MODEL 1
REMARK VINA RESULT:      -8.5      0.000      0.000
REMARK  Name = 
REMARK  2 active torsions:
REMARK  status: ('A' for Active; 'I' for Inactive)
REMARK    1  A    between atoms: C_1  and  N_2
REMARK    2  A    between atoms: N_13  and  C_14
REMARK                            x       y       z     vdW  Elec       q    Type
REMARK                         _______ _______ _______ _____ _____    ______ ____
ROOT
ATOM      1  C   UNL     1       6.852   5.989  18.737  0.00  0.00    +0.000 C 
ATOM      2  N   UNL     1       6.237   5.171  17.710  0.00  0.00    +0.000 N 
ATOM      3  C   UNL     1       6.999   4.417  16.833  0.00  0.00    +0.000 C 
ATOM      4  O   UNL     1       8.182   4.144  16.939  0.00  0.00    +0.000 OA
ATOM      5  C   UNL     1       6.146   4.069  15.652  0.00  0.00    +0.000 C 
ATOM      6  C   UNL     1       4.720   4.367  16.087  0.00  0.00    +0.000 C 
ATOM      7  C   UNL     1       4.806   5.143  17.416  0.00  0.00    +0.000 C 
ATOM      8  C   UNL     1       4.008   4.424  18.527  0.00  0.00    +0.000 C 
ATOM      9  C   UNL     1       3.463   5.527  19.424  0.00  0.00    +0.000 C 
ATOM     10  N   UNL     1       3.361   6.683  18.563  0.00  0.00    +0.000 N 
ATOM     11  C   UNL     1       2.633   7.834  18.718  0.00  0.00    +0.000 C 
ATOM     12  O   UNL     1       2.692   8.691  17.831  0.00  0.00    +0.000 OA
ATOM     13  N   UNL     1       1.881   7.942  19.863  0.00  0.00    +0.000 N 
ATOM     14  C   UNL     1       4.121   6.514  17.329  0.00  0.00    +0.000 C 
ATOM     15  H   UNL     1       2.109   7.329  20.630  0.00  0.00    +0.000 HD
ENDROOT
BRANCH  13  16
ATOM     16  C   UNL     1       0.971   9.000  20.130  0.00  0.00    +0.000 A 
ATOM     17  C   UNL     1       0.288   9.666  19.103  0.00  0.00    +0.000 A 
ATOM     18  C   UNL     1      -0.580  10.722  19.367  0.00  0.00    +0.000 A 
ATOM     19  C   UNL     1      -0.791  11.123  20.675  0.00  0.00    +0.000 A 
ATOM     20  C   UNL     1      -0.146  10.456  21.721  0.00  0.00    +0.000 A 
ATOM     21  C   UNL     1       0.734   9.399  21.452  0.00  0.00    +0.000 A 
ATOM     22  O   UNL     1      -0.323  10.803  23.037  0.00  0.00    +0.000 OA
ATOM     23  C   UNL     1      -1.485  11.627  23.211  0.00  0.00    +0.000 C 
ATOM     24  C   UNL     1      -1.553  12.722  22.159  0.00  0.00    +0.000 C 
ATOM     25  O   UNL     1      -1.659  12.166  20.849  0.00  0.00    +0.000 OA
ENDBRANCH  13  16
TORSDOF 1
ENDMDL
MODEL 2
REMARK VINA RESULT:      -8.1      0.851      1.589
REMARK  Name = 
REMARK  2 active torsions:
REMARK  status: ('A' for Active; 'I' for Inactive)
REMARK    1  A    between atoms: C_1  and  N_2
REMARK    2  A    between atoms: N_13  and  C_14
REMARK                            x       y       z     vdW  Elec       q    Type
REMARK                         _______ _______ _______ _____ _____    ______ ____
ROOT
ATOM      1  C   UNL     1       6.847   5.900  18.754  0.00  0.00    +0.000 C 
ATOM      2  N   UNL     1       6.155   5.092  17.771  0.00  0.00    +0.000 N 
ATOM      3  C   UNL     1       6.846   4.377  16.806  0.00  0.00    +0.000 C 
ATOM      4  O   UNL     1       8.040   4.130  16.792  0.00  0.00    +0.000 OA
ATOM      5  C   UNL     1       5.892   4.035  15.703  0.00  0.00    +0.000 C 
ATOM      6  C   UNL     1       4.507   4.289  16.279  0.00  0.00    +0.000 C 
ATOM      7  C   UNL     1       4.703   5.036  17.613  0.00  0.00    +0.000 C 
ATOM      8  C   UNL     1       4.031   4.272  18.776  0.00  0.00    +0.000 C 
ATOM      9  C   UNL     1       3.550   5.341  19.749  0.00  0.00    +0.000 C 
ATOM     10  N   UNL     1       3.341   6.513  18.930  0.00  0.00    +0.000 N 
ATOM     11  C   UNL     1       2.605   7.642  19.183  0.00  0.00    +0.000 C 
ATOM     12  O   UNL     1       2.560   8.520  18.316  0.00  0.00    +0.000 OA
ATOM     13  N   UNL     1       1.963   7.705  20.396  0.00  0.00    +0.000 N 
ATOM     14  C   UNL     1       3.983   6.391  17.626  0.00  0.00    +0.000 C 
ATOM     15  H   UNL     1       2.278   7.081  21.122  0.00  0.00    +0.000 HD
ENDROOT
BRANCH  13  16
ATOM     16  C   UNL     1       1.061   8.735  20.774  0.00  0.00    +0.000 A 
ATOM     17  C   UNL     1       0.589   8.860  22.088  0.00  0.00    +0.000 A 
ATOM     18  C   UNL     1      -0.317   9.853  22.448  0.00  0.00    +0.000 A 
ATOM     19  C   UNL     1      -0.760  10.753  21.495  0.00  0.00    +0.000 A 
ATOM     20  C   UNL     1      -0.282  10.670  20.183  0.00  0.00    +0.000 A 
ATOM     21  C   UNL     1       0.624   9.665  19.821  0.00  0.00    +0.000 A 
ATOM     22  O   UNL     1      -0.678  11.541  19.198  0.00  0.00    +0.000 OA
ATOM     23  C   UNL     1      -1.300  12.710  19.749  0.00  0.00    +0.000 C 
ATOM     24  C   UNL     1      -2.297  12.348  20.838  0.00  0.00    +0.000 C 
ATOM     25  O   UNL     1      -1.648  11.698  21.930  0.00  0.00    +0.000 OA
ENDBRANCH  13  16
TORSDOF 1
ENDMDL
MODEL 3
REMARK VINA RESULT:      -8.0      1.363      1.983
REMARK  Name = 
REMARK  2 active torsions:
REMARK  status: ('A' for Active; 'I' for Inactive)
REMARK    1  A    between atoms: C_1  and  N_2
REMARK    2  A    between atoms: N_13  and  C_14
REMARK                            x       y       z     vdW  Elec       q    Type
REMARK                         _______ _______ _______ _____ _____    ______ ____
ROOT
ATOM      1  C   UNL     1       6.771   6.294  18.534  0.00  0.00    +0.000 C 
ATOM      2  N   UNL     1       6.161   5.333  17.637  0.00  0.00    +0.000 N 
ATOM      3  C   UNL     1       6.927   4.466  16.874  0.00  0.00    +0.000 C 
ATOM      4  O   UNL     1       8.113   4.220  17.015  0.00  0.00    +0.000 OA
ATOM      5  C   UNL     1       6.075   3.946  15.758  0.00  0.00    +0.000 C 
ATOM      6  C   UNL     1       4.648   4.293  16.149  0.00  0.00    +0.000 C 
ATOM      7  C   UNL     1       4.730   5.252  17.353  0.00  0.00    +0.000 C 
ATOM      8  C   UNL     1       3.939   4.693  18.558  0.00  0.00    +0.000 C 
ATOM      9  C   UNL     1       3.387   5.909  19.289  0.00  0.00    +0.000 C 
ATOM     10  N   UNL     1       3.274   6.928  18.271  0.00  0.00    +0.000 N 
ATOM     11  C   UNL     1       2.537   8.085  18.262  0.00  0.00    +0.000 C 
ATOM     12  O   UNL     1       2.588   8.806  17.261  0.00  0.00    +0.000 OA
ATOM     13  N   UNL     1       1.785   8.349  19.381  0.00  0.00    +0.000 N 
ATOM     14  C   UNL     1       4.034   6.590  17.073  0.00  0.00    +0.000 C 
ATOM     15  H   UNL     1       2.020   7.855  20.228  0.00  0.00    +0.000 HD
ENDROOT
BRANCH  13  16
ATOM     16  C   UNL     1       0.868   9.428  19.496  0.00  0.00    +0.000 A 
ATOM     17  C   UNL     1       1.128  10.537  20.312  0.00  0.00    +0.000 A 
ATOM     18  C   UNL     1       0.214  11.578  20.444  0.00  0.00    +0.000 A 
ATOM     19  C   UNL     1      -0.979  11.534  19.744  0.00  0.00    +0.000 A 
ATOM     20  C   UNL     1      -1.250  10.454  18.898  0.00  0.00    +0.000 A 
ATOM     21  C   UNL     1      -0.333   9.403  18.773  0.00  0.00    +0.000 A 
ATOM     22  O   UNL     1      -2.412  10.361  18.172  0.00  0.00    +0.000 OA
ATOM     23  C   UNL     1      -3.088  11.624  18.097  0.00  0.00    +0.000 C 
ATOM     24  C   UNL     1      -3.136  12.310  19.453  0.00  0.00    +0.000 C 
ATOM     25  O   UNL     1      -1.822  12.596  19.927  0.00  0.00    +0.000 OA
ENDBRANCH  13  16
TORSDOF 1
ENDMDL
MODEL 4
REMARK VINA RESULT:      -7.7      2.362      2.990
REMARK  Name = 
REMARK  2 active torsions:
REMARK  status: ('A' for Active; 'I' for Inactive)
REMARK    1  A    between atoms: C_1  and  N_2
REMARK    2  A    between atoms: N_13  and  C_14
REMARK                            x       y       z     vdW  Elec       q    Type
REMARK                         _______ _______ _______ _____ _____    ______ ____
ROOT
ATOM      1  C   UNL     1       1.624   4.381  17.668  0.00  0.00    +0.000 C 
ATOM      2  N   UNL     1       2.980   4.464  18.173  0.00  0.00    +0.000 N 
ATOM      3  C   UNL     1       3.781   3.339  18.287  0.00  0.00    +0.000 C 
ATOM      4  O   UNL     1       3.582   2.246  17.786  0.00  0.00    +0.000 OA
ATOM      5  C   UNL     1       4.901   3.655  19.229  0.00  0.00    +0.000 C 
ATOM      6  C   UNL     1       4.895   5.170  19.365  0.00  0.00    +0.000 C 
ATOM      7  C   UNL     1       3.593   5.676  18.712  0.00  0.00    +0.000 C 
ATOM      8  C   UNL     1       3.899   6.706  17.601  0.00  0.00    +0.000 C 
ATOM      9  C   UNL     1       2.735   7.687  17.617  0.00  0.00    +0.000 C 
ATOM     10  N   UNL     1       2.235   7.640  18.972  0.00  0.00    +0.000 N 
ATOM     11  C   UNL     1       1.446   8.534  19.649  0.00  0.00    +0.000 C 
ATOM     12  O   UNL     1       1.152   8.286  20.823  0.00  0.00    +0.000 OA
ATOM     13  N   UNL     1       1.044   9.652  18.960  0.00  0.00    +0.000 N 
ATOM     14  C   UNL     1       2.728   6.475  19.696  0.00  0.00    +0.000 C 
ATOM     15  H   UNL     1       1.105   9.627  17.954  0.00  0.00    +0.000 HD
ENDROOT
BRANCH  13  16
ATOM     16  C   UNL     1       0.334  10.739  19.538  0.00  0.00    +0.000 A 
ATOM     17  C   UNL     1      -1.051  10.886  19.381  0.00  0.00    +0.000 A 
ATOM     18  C   UNL     1      -1.738  11.967  19.924  0.00  0.00    +0.000 A 
ATOM     19  C   UNL     1      -1.047  12.921  20.651  0.00  0.00    +0.000 A 
ATOM     20  C   UNL     1       0.330  12.783  20.849  0.00  0.00    +0.000 A 
ATOM     21  C   UNL     1       1.021  11.698  20.295  0.00  0.00    +0.000 A 
ATOM     22  O   UNL     1       1.065  13.692  21.569  0.00  0.00    +0.000 OA
ATOM     23  C   UNL     1       0.224  14.533  22.370  0.00  0.00    +0.000 C 
ATOM     24  C   UNL     1      -0.974  15.036  21.579  0.00  0.00    +0.000 C 
ATOM     25  O   UNL     1      -1.796  13.951  21.152  0.00  0.00    +0.000 OA
ENDBRANCH  13  16
TORSDOF 1
ENDMDL
MODEL 5
REMARK VINA RESULT:      -7.6      2.356      3.147
REMARK  Name = 
REMARK  2 active torsions:
REMARK  status: ('A' for Active; 'I' for Inactive)
REMARK    1  A    between atoms: C_1  and  N_2
REMARK    2  A    between atoms: N_13  and  C_14
REMARK                            x       y       z     vdW  Elec       q    Type
REMARK                         _______ _______ _______ _____ _____    ______ ____
ROOT
ATOM      1  C   UNL     1       1.505   4.440  17.780  0.00  0.00    +0.000 C 
ATOM      2  N   UNL     1       2.876   4.480  18.247  0.00  0.00    +0.000 N 
ATOM      3  C   UNL     1       3.654   3.335  18.309  0.00  0.00    +0.000 C 
ATOM      4  O   UNL     1       3.416   2.259  17.787  0.00  0.00    +0.000 OA
ATOM      5  C   UNL     1       4.808   3.602  19.226  0.00  0.00    +0.000 C 
ATOM      6  C   UNL     1       4.840   5.112  19.399  0.00  0.00    +0.000 C 
ATOM      7  C   UNL     1       3.532   5.664  18.798  0.00  0.00    +0.000 C 
ATOM      8  C   UNL     1       3.829   6.714  17.704  0.00  0.00    +0.000 C 
ATOM      9  C   UNL     1       2.689   7.721  17.779  0.00  0.00    +0.000 C 
ATOM     10  N   UNL     1       2.228   7.651  19.146  0.00  0.00    +0.000 N 
ATOM     11  C   UNL     1       1.479   8.544  19.869  0.00  0.00    +0.000 C 
ATOM     12  O   UNL     1       1.214   8.273  21.044  0.00  0.00    +0.000 OA
ATOM     13  N   UNL     1       1.083   9.688  19.221  0.00  0.00    +0.000 N 
ATOM     14  C   UNL     1       2.715   6.456  19.827  0.00  0.00    +0.000 C 
ATOM     15  H   UNL     1       1.114   9.687  18.213  0.00  0.00    +0.000 HD
ENDROOT
BRANCH  13  16
ATOM     16  C   UNL     1       0.415  10.775  19.846  0.00  0.00    +0.000 A 
ATOM     17  C   UNL     1       1.098  11.706  20.640  0.00  0.00    +0.000 A 
ATOM     18  C   UNL     1       0.435  12.753  21.274  0.00  0.00    +0.000 A 
ATOM     19  C   UNL     1      -0.932  12.895  21.111  0.00  0.00    +0.000 A 
ATOM     20  C   UNL     1      -1.633  11.999  20.298  0.00  0.00    +0.000 A 
ATOM     21  C   UNL     1      -0.965  10.941  19.668  0.00  0.00    +0.000 A 
ATOM     22  O   UNL     1      -2.987  12.096  20.092  0.00  0.00    +0.000 OA
ATOM     23  C   UNL     1      -3.486  13.385  20.475  0.00  0.00    +0.000 C 
ATOM     24  C   UNL     1      -2.927  13.820  21.820  0.00  0.00    +0.000 C 
ATOM     25  O   UNL     1      -1.507  13.950  21.765  0.00  0.00    +0.000 OA
ENDBRANCH  13  16
TORSDOF 1
ENDMDL
MODEL 6
REMARK VINA RESULT:      -7.6      2.056      8.982
REMARK  Name = 
REMARK  2 active torsions:
REMARK  status: ('A' for Active; 'I' for Inactive)
REMARK    1  A    between atoms: C_1  and  N_2
REMARK    2  A    between atoms: N_13  and  C_14
REMARK                            x       y       z     vdW  Elec       q    Type
REMARK                         _______ _______ _______ _____ _____    ______ ____
ROOT
ATOM      1  C   UNL     1      -1.922  10.951  19.262  0.00  0.00    +0.000 C 
ATOM      2  N   UNL     1      -0.975  11.914  19.786  0.00  0.00    +0.000 N 
ATOM      3  C   UNL     1      -1.340  13.226  20.037  0.00  0.00    +0.000 C 
ATOM      4  O   UNL     1      -2.473  13.672  20.096  0.00  0.00    +0.000 OA
ATOM      5  C   UNL     1      -0.093  14.052  20.123  0.00  0.00    +0.000 C 
ATOM      6  C   UNL     1       1.041  13.049  20.271  0.00  0.00    +0.000 C 
ATOM      7  C   UNL     1       0.449  11.654  19.989  0.00  0.00    +0.000 C 
ATOM      8  C   UNL     1       0.692  10.701  21.182  0.00  0.00    +0.000 C 
ATOM      9  C   UNL     1       0.866   9.316  20.574  0.00  0.00    +0.000 C 
ATOM     10  N   UNL     1       1.359   9.561  19.238  0.00  0.00    +0.000 N 
ATOM     11  C   UNL     1       2.006   8.719  18.371  0.00  0.00    +0.000 C 
ATOM     12  O   UNL     1       2.351   9.160  17.270  0.00  0.00    +0.000 OA
ATOM     13  N   UNL     1       2.228   7.434  18.804  0.00  0.00    +0.000 N 
ATOM     14  C   UNL     1       1.165  10.948  18.830  0.00  0.00    +0.000 C 
ATOM     15  H   UNL     1       1.680   7.104  19.584  0.00  0.00    +0.000 HD
ENDROOT
BRANCH  13  16
ATOM     16  C   UNL     1       2.990   6.468  18.095  0.00  0.00    +0.000 A 
ATOM     17  C   UNL     1       2.613   5.119  18.043  0.00  0.00    +0.000 A 
ATOM     18  C   UNL     1       3.378   4.171  17.372  0.00  0.00    +0.000 A 
ATOM     19  C   UNL     1       4.536   4.561  16.723  0.00  0.00    +0.000 A 
ATOM     20  C   UNL     1       4.920   5.905  16.732  0.00  0.00    +0.000 A 
ATOM     21  C   UNL     1       4.153   6.857  17.416  0.00  0.00    +0.000 A 
ATOM     22  O   UNL     1       6.053   6.353  16.098  0.00  0.00    +0.000 OA
ATOM     23  C   UNL     1       6.544   5.388  15.156  0.00  0.00    +0.000 C 
ATOM     24  C   UNL     1       6.551   3.988  15.748  0.00  0.00    +0.000 C 
ATOM     25  O   UNL     1       5.230   3.569  16.085  0.00  0.00    +0.000 OA
ENDBRANCH  13  16
TORSDOF 1
ENDMDL
MODEL 7
REMARK VINA RESULT:      -7.5      5.766      8.315
REMARK  Name = 
REMARK  2 active torsions:
REMARK  status: ('A' for Active; 'I' for Inactive)
REMARK    1  A    between atoms: C_1  and  N_2
REMARK    2  A    between atoms: N_13  and  C_14
REMARK                            x       y       z     vdW  Elec       q    Type
REMARK                         _______ _______ _______ _____ _____    ______ ____
ROOT
ATOM      1  C   UNL     1       7.585   5.006  15.748  0.00  0.00    +0.000 C 
ATOM      2  N   UNL     1       6.362   4.968  16.523  0.00  0.00    +0.000 N 
ATOM      3  C   UNL     1       5.310   4.135  16.176  0.00  0.00    +0.000 C 
ATOM      4  O   UNL     1       5.344   3.203  15.391  0.00  0.00    +0.000 OA
ATOM      5  C   UNL     1       4.072   4.637  16.853  0.00  0.00    +0.000 C 
ATOM      6  C   UNL     1       4.562   5.608  17.915  0.00  0.00    +0.000 C 
ATOM      7  C   UNL     1       6.060   5.856  17.643  0.00  0.00    +0.000 C 
ATOM      8  C   UNL     1       6.909   5.514  18.889  0.00  0.00    +0.000 C 
ATOM      9  C   UNL     1       8.081   6.486  18.868  0.00  0.00    +0.000 C 
ATOM     10  N   UNL     1       7.589   7.639  18.149  0.00  0.00    +0.000 N 
ATOM     11  C   UNL     1       8.063   8.925  18.119  0.00  0.00    +0.000 C 
ATOM     12  O   UNL     1       7.461   9.757  17.433  0.00  0.00    +0.000 OA
ATOM     13  N   UNL     1       9.183   9.190  18.869  0.00  0.00    +0.000 N 
ATOM     14  C   UNL     1       6.365   7.342  17.413  0.00  0.00    +0.000 C 
ATOM     15  H   UNL     1       9.744   8.406  19.163  0.00  0.00    +0.000 HD
ENDROOT
BRANCH  13  16
ATOM     16  C   UNL     1       9.736  10.486  19.056  0.00  0.00    +0.000 A 
ATOM     17  C   UNL     1       9.683  11.141  20.293  0.00  0.00    +0.000 A 
ATOM     18  C   UNL     1      10.200  12.422  20.465  0.00  0.00    +0.000 A 
ATOM     19  C   UNL     1      10.797  13.068  19.396  0.00  0.00    +0.000 A 
ATOM     20  C   UNL     1      10.891  12.424  18.158  0.00  0.00    +0.000 A 
ATOM     21  C   UNL     1      10.362  11.138  17.986  0.00  0.00    +0.000 A 
ATOM     22  O   UNL     1      11.480  13.011  17.066  0.00  0.00    +0.000 OA
ATOM     23  C   UNL     1      12.284  14.137  17.443  0.00  0.00    +0.000 C 
ATOM     24  C   UNL     1      11.560  15.028  18.440  0.00  0.00    +0.000 C 
ATOM     25  O   UNL     1      11.281  14.322  19.648  0.00  0.00    +0.000 OA
ENDBRANCH  13  16
TORSDOF 1
ENDMDL
MODEL 8
REMARK VINA RESULT:      -7.5      1.116      1.452
REMARK  Name = 
REMARK  2 active torsions:
REMARK  status: ('A' for Active; 'I' for Inactive)
REMARK    1  A    between atoms: C_1  and  N_2
REMARK    2  A    between atoms: N_13  and  C_14
REMARK                            x       y       z     vdW  Elec       q    Type
REMARK                         _______ _______ _______ _____ _____    ______ ____
ROOT
ATOM      1  C   UNL     1       6.805   6.469  17.758  0.00  0.00    +0.000 C 
ATOM      2  N   UNL     1       6.072   5.409  17.098  0.00  0.00    +0.000 N 
ATOM      3  C   UNL     1       6.626   4.684  16.055  0.00  0.00    +0.000 C 
ATOM      4  O   UNL     1       7.801   4.652  15.730  0.00  0.00    +0.000 OA
ATOM      5  C   UNL     1       5.516   4.014  15.307  0.00  0.00    +0.000 C 
ATOM      6  C   UNL     1       4.304   4.107  16.221  0.00  0.00    +0.000 C 
ATOM      7  C   UNL     1       4.674   5.075  17.362  0.00  0.00    +0.000 C 
ATOM      8  C   UNL     1       4.499   4.396  18.739  0.00  0.00    +0.000 C 
ATOM      9  C   UNL     1       4.069   5.501  19.694  0.00  0.00    +0.000 C 
ATOM     10  N   UNL     1       3.414   6.477  18.853  0.00  0.00    +0.000 N 
ATOM     11  C   UNL     1       2.547   7.486  19.187  0.00  0.00    +0.000 C 
ATOM     12  O   UNL     1       2.097   8.197  18.283  0.00  0.00    +0.000 OA
ATOM     13  N   UNL     1       2.239   7.623  20.518  0.00  0.00    +0.000 N 
ATOM     14  C   UNL     1       3.711   6.268  17.440  0.00  0.00    +0.000 C 
ATOM     15  H   UNL     1       2.854   7.184  21.186  0.00  0.00    +0.000 HD
ENDROOT
BRANCH  13  16
ATOM     16  C   UNL     1       1.268   8.525  21.029  0.00  0.00    +0.000 A 
ATOM     17  C   UNL     1       0.172   8.083  21.783  0.00  0.00    +0.000 A 
ATOM     18  C   UNL     1      -0.793   8.967  22.258  0.00  0.00    +0.000 A 
ATOM     19  C   UNL     1      -0.669  10.320  21.995  0.00  0.00    +0.000 A 
ATOM     20  C   UNL     1       0.431  10.791  21.272  0.00  0.00    +0.000 A 
ATOM     21  C   UNL     1       1.396   9.899  20.788  0.00  0.00    +0.000 A 
ATOM     22  O   UNL     1       0.611  12.123  20.989  0.00  0.00    +0.000 OA
ATOM     23  C   UNL     1      -0.214  12.953  21.819  0.00  0.00    +0.000 C 
ATOM     24  C   UNL     1      -1.635  12.417  21.902  0.00  0.00    +0.000 C 
ATOM     25  O   UNL     1      -1.658  11.121  22.497  0.00  0.00    +0.000 OA
ENDBRANCH  13  16
TORSDOF 1
ENDMDL
MODEL 9
REMARK VINA RESULT:      -7.4      2.319      2.912
REMARK  Name = 
REMARK  2 active torsions:
REMARK  status: ('A' for Active; 'I' for Inactive)
REMARK    1  A    between atoms: C_1  and  N_2
REMARK    2  A    between atoms: N_13  and  C_14
REMARK                            x       y       z     vdW  Elec       q    Type
REMARK                         _______ _______ _______ _____ _____    ______ ____
ROOT
ATOM      1  C   UNL     1       1.281   4.037  18.175  0.00  0.00    +0.000 C 
ATOM      2  N   UNL     1       2.703   4.030  18.452  0.00  0.00    +0.000 N 
ATOM      3  C   UNL     1       3.439   2.857  18.432  0.00  0.00    +0.000 C 
ATOM      4  O   UNL     1       3.093   1.783  17.969  0.00  0.00    +0.000 OA
ATOM      5  C   UNL     1       4.716   3.091  19.180  0.00  0.00    +0.000 C 
ATOM      6  C   UNL     1       4.828   4.601  19.317  0.00  0.00    +0.000 C 
ATOM      7  C   UNL     1       3.472   5.195  18.886  0.00  0.00    +0.000 C 
ATOM      8  C   UNL     1       3.657   6.217  17.741  0.00  0.00    +0.000 C 
ATOM      9  C   UNL     1       2.576   7.269  17.948  0.00  0.00    +0.000 C 
ATOM     10  N   UNL     1       2.301   7.237  19.366  0.00  0.00    +0.000 N 
ATOM     11  C   UNL     1       1.691   8.170  20.165  0.00  0.00    +0.000 C 
ATOM     12  O   UNL     1       1.576   7.927  21.370  0.00  0.00    +0.000 OA
ATOM     13  N   UNL     1       1.254   9.319  19.553  0.00  0.00    +0.000 N 
ATOM     14  C   UNL     1       2.830   6.034  19.999  0.00  0.00    +0.000 C 
ATOM     15  H   UNL     1       1.148   9.302  18.550  0.00  0.00    +0.000 HD
ENDROOT
BRANCH  13  16
ATOM     16  C   UNL     1       0.717  10.442  20.240  0.00  0.00    +0.000 A 
ATOM     17  C   UNL     1       1.127  11.750  19.953  0.00  0.00    +0.000 A 
ATOM     18  C   UNL     1       0.621  12.844  20.648  0.00  0.00    +0.000 A 
ATOM     19  C   UNL     1      -0.324  12.646  21.641  0.00  0.00    +0.000 A 
ATOM     20  C   UNL     1      -0.774  11.353  21.925  0.00  0.00    +0.000 A 
ATOM     21  C   UNL     1      -0.256  10.253  21.230  0.00  0.00    +0.000 A 
ATOM     22  O   UNL     1      -1.716  11.097  22.891  0.00  0.00    +0.000 OA
ATOM     23  C   UNL     1      -2.419  12.289  23.270  0.00  0.00    +0.000 C 
ATOM     24  C   UNL     1      -1.464  13.453  23.481  0.00  0.00    +0.000 C 
ATOM     25  O   UNL     1      -0.773  13.772  22.275  0.00  0.00    +0.000 OA
ENDBRANCH  13  16
TORSDOF 1
ENDMDL
