MODEL 1
REMARK VINA RESULT:      -6.9      0.000      0.000
REMARK  Name = 
REMARK  5 active torsions:
REMARK  status: ('A' for Active; 'I' for Inactive)
REMARK    1  A    between atoms: C_1  and  C_2
REMARK    2  A    between atoms: C_5  and  C_6
REMARK    3  A    between atoms: C_6  and  N_7
REMARK    4  A    between atoms: C_12  and  C_13
REMARK    5  A    between atoms: N_18  and  C_19
REMARK                            x       y       z     vdW  Elec       q    Type
REMARK                         _______ _______ _______ _____ _____    ______ ____
ROOT
ATOM      1  N   UNL     1       5.982   4.770  17.089  0.00  0.00    +0.000 N 
ATOM      2  C   UNL     1       6.948   4.264  16.238  0.00  0.00    +0.000 C 
ATOM      3  O   UNL     1       8.138   4.139  16.469  0.00  0.00    +0.000 OA
ATOM      4  C   UNL     1       6.286   3.971  14.917  0.00  0.00    +0.000 C 
ATOM      5  C   UNL     1       4.804   3.917  15.270  0.00  0.00    +0.000 C 
ATOM      6  C   UNL     1       4.675   4.860  16.460  0.00  0.00    +0.000 C 
ENDROOT
BRANCH   6   7
ATOM      7  C   UNL     1       3.524   4.437  17.397  0.00  0.00    +0.000 C 
ATOM      8  O   UNL     1       3.325   3.249  17.665  0.00  0.00    +0.000 OA
ATOM      9  N   UNL     1       2.736   5.432  17.948  0.00  0.00    +0.000 N 
ATOM     10  C   UNL     1       1.878   5.117  19.100  0.00  0.00    +0.000 C 
ATOM     11  C   UNL     1       2.202   6.050  20.283  0.00  0.00    +0.000 C 
ATOM     12  N   UNL     1       2.153   7.462  19.859  0.00  0.00    +0.000 N 
ATOM     13  C   UNL     1       2.977   7.803  18.688  0.00  0.00    +0.000 C 
ATOM     14  C   UNL     1       2.670   6.837  17.525  0.00  0.00    +0.000 C 
BRANCH  12  15
ATOM     15  C   UNL     1       1.315   8.387  20.450  0.00  0.00    +0.000 A 
ATOM     16  C   UNL     1       0.990   8.316  21.814  0.00  0.00    +0.000 A 
ATOM     17  C   UNL     1       0.142   9.247  22.424  0.00  0.00    +0.000 A 
ATOM     18  C   UNL     1      -0.406  10.283  21.676  0.00  0.00    +0.000 A 
ATOM     19  C   UNL     1      -0.104  10.381  20.323  0.00  0.00    +0.000 A 
ATOM     20  C   UNL     1       0.745   9.443  19.723  0.00  0.00    +0.000 A 
ENDBRANCH  12  15
ENDBRANCH   6   7
BRANCH   1  21
ATOM     21  C   UNL     1       6.293   5.375  18.372  0.00  0.00    +0.000 C 
BRANCH  21  26
ATOM     22  C   UNL     1       9.048  10.509  18.181  0.00  0.00    +0.000 C 
ATOM     23  C   UNL     1       8.375   9.166  18.162  0.00  0.00    +0.000 A 
ATOM     24  C   UNL     1       7.257   8.930  17.354  0.00  0.00    +0.000 A 
ATOM     25  C   UNL     1       6.598   7.697  17.397  0.00  0.00    +0.000 A 
ATOM     26  C   UNL     1       7.044   6.680  18.251  0.00  0.00    +0.000 A 
ATOM     27  C   UNL     1       8.189   6.906  19.027  0.00  0.00    +0.000 A 
ATOM     28  C   UNL     1       8.841   8.141  18.991  0.00  0.00    +0.000 A 
ENDBRANCH  21  26
ENDBRANCH   1  21
TORSDOF 4
ENDMDL
MODEL 2
REMARK VINA RESULT:      -6.9      2.560      7.394
REMARK  Name = 
REMARK  5 active torsions:
REMARK  status: ('A' for Active; 'I' for Inactive)
REMARK    1  A    between atoms: C_1  and  C_2
REMARK    2  A    between atoms: C_5  and  C_6
REMARK    3  A    between atoms: C_6  and  N_7
REMARK    4  A    between atoms: C_12  and  C_13
REMARK    5  A    between atoms: N_18  and  C_19
REMARK                            x       y       z     vdW  Elec       q    Type
REMARK                         _______ _______ _______ _____ _____    ______ ____
ROOT
ATOM      1  N   UNL     1       2.728   4.014  19.909  0.00  0.00    +0.000 N 
ATOM      2  C   UNL     1       1.673   3.283  19.393  0.00  0.00    +0.000 C 
ATOM      3  O   UNL     1       0.486   3.539  19.490  0.00  0.00    +0.000 OA
ATOM      4  C   UNL     1       2.243   2.042  18.756  0.00  0.00    +0.000 C 
ATOM      5  C   UNL     1       3.713   2.393  18.556  0.00  0.00    +0.000 C 
ATOM      6  C   UNL     1       4.014   3.373  19.683  0.00  0.00    +0.000 C 
ENDROOT
BRANCH   6   7
ATOM      7  C   UNL     1       5.123   4.371  19.287  0.00  0.00    +0.000 C 
ATOM      8  O   UNL     1       5.805   4.938  20.145  0.00  0.00    +0.000 OA
ATOM      9  N   UNL     1       5.346   4.592  17.940  0.00  0.00    +0.000 N 
ATOM     10  C   UNL     1       6.596   5.239  17.513  0.00  0.00    +0.000 C 
ATOM     11  C   UNL     1       7.348   4.347  16.507  0.00  0.00    +0.000 C 
ATOM     12  N   UNL     1       6.460   3.954  15.398  0.00  0.00    +0.000 N 
ATOM     13  C   UNL     1       5.186   3.331  15.793  0.00  0.00    +0.000 C 
ATOM     14  C   UNL     1       4.462   4.216  16.829  0.00  0.00    +0.000 C 
BRANCH  12  15
ATOM     15  C   UNL     1       6.749   4.239  14.078  0.00  0.00    +0.000 A 
ATOM     16  C   UNL     1       7.623   5.280  13.726  0.00  0.00    +0.000 A 
ATOM     17  C   UNL     1       7.922   5.578  12.392  0.00  0.00    +0.000 A 
ATOM     18  C   UNL     1       7.351   4.832  11.368  0.00  0.00    +0.000 A 
ATOM     19  C   UNL     1       6.482   3.794  11.683  0.00  0.00    +0.000 A 
ATOM     20  C   UNL     1       6.188   3.505  13.021  0.00  0.00    +0.000 A 
ENDBRANCH  12  15
ENDBRANCH   6   7
BRANCH   1  21
ATOM     21  C   UNL     1       2.549   5.154  20.790  0.00  0.00    +0.000 C 
BRANCH  21  26
ATOM     22  C   UNL     1       1.517  10.161  17.990  0.00  0.00    +0.000 C 
ATOM     23  C   UNL     1       1.706   8.852  18.702  0.00  0.00    +0.000 A 
ATOM     24  C   UNL     1       1.332   8.699  20.041  0.00  0.00    +0.000 A 
ATOM     25  C   UNL     1       1.576   7.495  20.713  0.00  0.00    +0.000 A 
ATOM     26  C   UNL     1       2.201   6.427  20.056  0.00  0.00    +0.000 A 
ATOM     27  C   UNL     1       2.536   6.571  18.703  0.00  0.00    +0.000 A 
ATOM     28  C   UNL     1       2.301   7.776  18.036  0.00  0.00    +0.000 A 
ENDBRANCH  21  26
ENDBRANCH   1  21
TORSDOF 4
ENDMDL
MODEL 3
REMARK VINA RESULT:      -6.8      4.856      9.993
REMARK  Name = 
REMARK  5 active torsions:
REMARK  status: ('A' for Active; 'I' for Inactive)
REMARK    1  A    between atoms: C_1  and  C_2
REMARK    2  A    between atoms: C_5  and  C_6
REMARK    3  A    between atoms: C_6  and  N_7
REMARK    4  A    between atoms: C_12  and  C_13
REMARK    5  A    between atoms: N_18  and  C_19
REMARK                            x       y       z     vdW  Elec       q    Type
REMARK                         _______ _______ _______ _____ _____    ______ ____
ROOT
ATOM      1  N   UNL     1      -2.112  13.317  20.682  0.00  0.00    +0.000 N 
ATOM      2  C   UNL     1      -2.569  14.623  20.691  0.00  0.00    +0.000 C 
ATOM      3  O   UNL     1      -3.728  14.995  20.633  0.00  0.00    +0.000 OA
ATOM      4  C   UNL     1      -1.366  15.529  20.693  0.00  0.00    +0.000 C 
ATOM      5  C   UNL     1      -0.237  14.616  21.158  0.00  0.00    +0.000 C 
ATOM      6  C   UNL     1      -0.660  13.234  20.674  0.00  0.00    +0.000 C 
ENDROOT
BRANCH   6   7
ATOM      7  C   UNL     1      -0.115  12.119  21.593  0.00  0.00    +0.000 C 
ATOM      8  O   UNL     1      -0.451  12.051  22.778  0.00  0.00    +0.000 OA
ATOM      9  N   UNL     1       0.744  11.185  21.042  0.00  0.00    +0.000 N 
ATOM     10  C   UNL     1       1.000   9.929  21.761  0.00  0.00    +0.000 C 
ATOM     11  C   UNL     1       0.655   8.719  20.870  0.00  0.00    +0.000 C 
ATOM     12  N   UNL     1       1.340   8.822  19.569  0.00  0.00    +0.000 N 
ATOM     13  C   UNL     1       1.129  10.082  18.837  0.00  0.00    +0.000 C 
ATOM     14  C   UNL     1       1.440  11.284  19.752  0.00  0.00    +0.000 C 
BRANCH  12  15
ATOM     15  C   UNL     1       2.204   7.850  19.104  0.00  0.00    +0.000 A 
ATOM     16  C   UNL     1       2.949   8.032  17.928  0.00  0.00    +0.000 A 
ATOM     17  C   UNL     1       3.827   7.054  17.448  0.00  0.00    +0.000 A 
ATOM     18  C   UNL     1       3.984   5.860  18.141  0.00  0.00    +0.000 A 
ATOM     19  C   UNL     1       3.261   5.649  19.309  0.00  0.00    +0.000 A 
ATOM     20  C   UNL     1       2.384   6.633  19.780  0.00  0.00    +0.000 A 
ENDBRANCH  12  15
ENDBRANCH   6   7
BRANCH   1  21
ATOM     21  C   UNL     1      -2.977  12.174  20.450  0.00  0.00    +0.000 C 
BRANCH  21  26
ATOM     22  C   UNL     1      -3.602  10.487  14.905  0.00  0.00    +0.000 C 
ATOM     23  C   UNL     1      -3.416  10.992  16.307  0.00  0.00    +0.000 A 
ATOM     24  C   UNL     1      -2.148  11.031  16.899  0.00  0.00    +0.000 A 
ATOM     25  C   UNL     1      -1.997  11.440  18.228  0.00  0.00    +0.000 A 
ATOM     26  C   UNL     1      -3.113  11.813  18.990  0.00  0.00    +0.000 A 
ATOM     27  C   UNL     1      -4.374  11.813  18.381  0.00  0.00    +0.000 A 
ATOM     28  C   UNL     1      -4.526  11.396  17.056  0.00  0.00    +0.000 A 
ENDBRANCH  21  26
ENDBRANCH   1  21
TORSDOF 4
ENDMDL
MODEL 4
REMARK VINA RESULT:      -6.8      5.488      9.383
REMARK  Name = 
REMARK  5 active torsions:
REMARK  status: ('A' for Active; 'I' for Inactive)
REMARK    1  A    between atoms: C_1  and  C_2
REMARK    2  A    between atoms: C_5  and  C_6
REMARK    3  A    between atoms: C_6  and  N_7
REMARK    4  A    between atoms: C_12  and  C_13
REMARK    5  A    between atoms: N_18  and  C_19
REMARK                            x       y       z     vdW  Elec       q    Type
REMARK                         _______ _______ _______ _____ _____    ______ ____
ROOT
ATOM      1  N   UNL     1       0.791   9.963  19.741  0.00  0.00    +0.000 N 
ATOM      2  C   UNL     1       1.377   8.712  19.664  0.00  0.00    +0.000 C 
ATOM      3  O   UNL     1       1.799   8.159  18.664  0.00  0.00    +0.000 OA
ATOM      4  C   UNL     1       1.322   8.095  21.038  0.00  0.00    +0.000 C 
ATOM      5  C   UNL     1       1.089   9.293  21.952  0.00  0.00    +0.000 C 
ATOM      6  C   UNL     1       0.319  10.277  21.080  0.00  0.00    +0.000 C 
ENDROOT
BRANCH   6   7
ATOM      7  C   UNL     1       0.599  11.739  21.490  0.00  0.00    +0.000 C 
ATOM      8  O   UNL     1       1.672  12.282  21.217  0.00  0.00    +0.000 OA
ATOM      9  N   UNL     1      -0.400  12.429  22.154  0.00  0.00    +0.000 N 
ATOM     10  C   UNL     1      -0.324  13.895  22.245  0.00  0.00    +0.000 C 
ATOM     11  C   UNL     1      -1.597  14.537  21.660  0.00  0.00    +0.000 C 
ATOM     12  N   UNL     1      -2.803  13.953  22.276  0.00  0.00    +0.000 N 
ATOM     13  C   UNL     1      -2.893  12.484  22.229  0.00  0.00    +0.000 C 
ATOM     14  C   UNL     1      -1.597  11.855  22.782  0.00  0.00    +0.000 C 
BRANCH  12  15
ATOM     15  C   UNL     1      -3.740  14.716  22.945  0.00  0.00    +0.000 A 
ATOM     16  C   UNL     1      -3.396  15.476  24.073  0.00  0.00    +0.000 A 
ATOM     17  C   UNL     1      -4.338  16.252  24.759  0.00  0.00    +0.000 A 
ATOM     18  C   UNL     1      -5.657  16.288  24.326  0.00  0.00    +0.000 A 
ATOM     19  C   UNL     1      -6.030  15.546  23.211  0.00  0.00    +0.000 A 
ATOM     20  C   UNL     1      -5.080  14.772  22.533  0.00  0.00    +0.000 A 
ENDBRANCH  12  15
ENDBRANCH   6   7
BRANCH   1  21
ATOM     21  C   UNL     1       0.460  10.758  18.572  0.00  0.00    +0.000 C 
BRANCH  21  26
ATOM     22  C   UNL     1      -5.316  10.898  17.797  0.00  0.00    +0.000 C 
ATOM     23  C   UNL     1      -3.820  10.885  17.921  0.00  0.00    +0.000 A 
ATOM     24  C   UNL     1      -3.063   9.819  17.423  0.00  0.00    +0.000 A 
ATOM     25  C   UNL     1      -1.675   9.787  17.605  0.00  0.00    +0.000 A 
ATOM     26  C   UNL     1      -1.023  10.820  18.292  0.00  0.00    +0.000 A 
ATOM     27  C   UNL     1      -1.780  11.905  18.752  0.00  0.00    +0.000 A 
ATOM     28  C   UNL     1      -3.166  11.933  18.578  0.00  0.00    +0.000 A 
ENDBRANCH  21  26
ENDBRANCH   1  21
TORSDOF 4
ENDMDL
MODEL 5
REMARK VINA RESULT:      -6.7      5.518      9.430
REMARK  Name = 
REMARK  5 active torsions:
REMARK  status: ('A' for Active; 'I' for Inactive)
REMARK    1  A    between atoms: C_1  and  C_2
REMARK    2  A    between atoms: C_5  and  C_6
REMARK    3  A    between atoms: C_6  and  N_7
REMARK    4  A    between atoms: C_12  and  C_13
REMARK    5  A    between atoms: N_18  and  C_19
REMARK                            x       y       z     vdW  Elec       q    Type
REMARK                         _______ _______ _______ _____ _____    ______ ____
ROOT
ATOM      1  N   UNL     1       0.794   9.996  19.821  0.00  0.00    +0.000 N 
ATOM      2  C   UNL     1       1.393   8.750  19.757  0.00  0.00    +0.000 C 
ATOM      3  O   UNL     1       1.832   8.196  18.764  0.00  0.00    +0.000 OA
ATOM      4  C   UNL     1       1.330   8.140  21.134  0.00  0.00    +0.000 C 
ATOM      5  C   UNL     1       1.075   9.340  22.039  0.00  0.00    +0.000 C 
ATOM      6  C   UNL     1       0.305  10.312  21.154  0.00  0.00    +0.000 C 
ENDROOT
BRANCH   6   7
ATOM      7  C   UNL     1       0.567  11.778  21.559  0.00  0.00    +0.000 C 
ATOM      8  O   UNL     1       1.636  12.332  21.291  0.00  0.00    +0.000 OA
ATOM      9  N   UNL     1      -0.444  12.461  22.213  0.00  0.00    +0.000 N 
ATOM     10  C   UNL     1      -0.384  13.928  22.298  0.00  0.00    +0.000 C 
ATOM     11  C   UNL     1      -1.659  14.554  21.700  0.00  0.00    +0.000 C 
ATOM     12  N   UNL     1      -2.863  13.960  22.310  0.00  0.00    +0.000 N 
ATOM     13  C   UNL     1      -2.938  12.490  22.270  0.00  0.00    +0.000 C 
ATOM     14  C   UNL     1      -1.640  11.878  22.835  0.00  0.00    +0.000 C 
BRANCH  12  15
ATOM     15  C   UNL     1      -3.813  14.716  22.968  0.00  0.00    +0.000 A 
ATOM     16  C   UNL     1      -5.186  14.479  22.799  0.00  0.00    +0.000 A 
ATOM     17  C   UNL     1      -6.158  15.239  23.460  0.00  0.00    +0.000 A 
ATOM     18  C   UNL     1      -5.774  16.264  24.316  0.00  0.00    +0.000 A 
ATOM     19  C   UNL     1      -4.422  16.524  24.506  0.00  0.00    +0.000 A 
ATOM     20  C   UNL     1      -3.459  15.759  23.839  0.00  0.00    +0.000 A 
ENDBRANCH  12  15
ENDBRANCH   6   7
BRANCH   1  21
ATOM     21  C   UNL     1       0.468  10.781  18.644  0.00  0.00    +0.000 C 
BRANCH  21  26
ATOM     22  C   UNL     1      -5.182  11.158  17.260  0.00  0.00    +0.000 C 
ATOM     23  C   UNL     1      -3.747  11.030  17.686  0.00  0.00    +0.000 A 
ATOM     24  C   UNL     1      -3.163  11.969  18.545  0.00  0.00    +0.000 A 
ATOM     25  C   UNL     1      -1.808  11.876  18.881  0.00  0.00    +0.000 A 
ATOM     26  C   UNL     1      -1.014  10.845  18.361  0.00  0.00    +0.000 A 
ATOM     27  C   UNL     1      -1.613   9.884  17.536  0.00  0.00    +0.000 A 
ATOM     28  C   UNL     1      -2.964   9.982  17.193  0.00  0.00    +0.000 A 
ENDBRANCH  21  26
ENDBRANCH   1  21
TORSDOF 4
ENDMDL
MODEL 6
REMARK VINA RESULT:      -6.6      0.118      1.287
REMARK  Name = 
REMARK  5 active torsions:
REMARK  status: ('A' for Active; 'I' for Inactive)
REMARK    1  A    between atoms: C_1  and  C_2
REMARK    2  A    between atoms: C_5  and  C_6
REMARK    3  A    between atoms: C_6  and  N_7
REMARK    4  A    between atoms: C_12  and  C_13
REMARK    5  A    between atoms: N_18  and  C_19
REMARK                            x       y       z     vdW  Elec       q    Type
REMARK                         _______ _______ _______ _____ _____    ______ ____
ROOT
ATOM      1  N   UNL     1       6.053   4.730  17.083  0.00  0.00    +0.000 N 
ATOM      2  C   UNL     1       6.980   4.247  16.177  0.00  0.00    +0.000 C 
ATOM      3  O   UNL     1       8.170   4.069  16.368  0.00  0.00    +0.000 OA
ATOM      4  C   UNL     1       6.276   4.059  14.858  0.00  0.00    +0.000 C 
ATOM      5  C   UNL     1       4.802   4.032  15.246  0.00  0.00    +0.000 C 
ATOM      6  C   UNL     1       4.734   4.902  16.495  0.00  0.00    +0.000 C 
ENDROOT
BRANCH   6   7
ATOM      7  C   UNL     1       3.593   4.459  17.435  0.00  0.00    +0.000 C 
ATOM      8  O   UNL     1       3.425   3.269  17.716  0.00  0.00    +0.000 OA
ATOM      9  N   UNL     1       2.776   5.438  17.972  0.00  0.00    +0.000 N 
ATOM     10  C   UNL     1       1.924   5.114  19.126  0.00  0.00    +0.000 C 
ATOM     11  C   UNL     1       2.219   6.069  20.298  0.00  0.00    +0.000 C 
ATOM     12  N   UNL     1       2.132   7.473  19.857  0.00  0.00    +0.000 N 
ATOM     13  C   UNL     1       2.950   7.824  18.684  0.00  0.00    +0.000 C 
ATOM     14  C   UNL     1       2.673   6.836  17.532  0.00  0.00    +0.000 C 
BRANCH  12  15
ATOM     15  C   UNL     1       1.268   8.382  20.435  0.00  0.00    +0.000 A 
ATOM     16  C   UNL     1       0.801   9.502  19.729  0.00  0.00    +0.000 A 
ATOM     17  C   UNL     1      -0.074  10.430  20.305  0.00  0.00    +0.000 A 
ATOM     18  C   UNL     1      -0.510  10.256  21.613  0.00  0.00    +0.000 A 
ATOM     19  C   UNL     1      -0.067   9.157  22.339  0.00  0.00    +0.000 A 
ATOM     20  C   UNL     1       0.810   8.235  21.754  0.00  0.00    +0.000 A 
ENDBRANCH  12  15
ENDBRANCH   6   7
BRANCH   1  21
ATOM     21  C   UNL     1       6.416   5.242  18.393  0.00  0.00    +0.000 C 
BRANCH  21  26
ATOM     22  C   UNL     1       9.048  10.422  17.921  0.00  0.00    +0.000 C 
ATOM     23  C   UNL     1       8.336   9.113  18.110  0.00  0.00    +0.000 A 
ATOM     24  C   UNL     1       8.829   8.145  18.992  0.00  0.00    +0.000 A 
ATOM     25  C   UNL     1       8.195   6.903  19.109  0.00  0.00    +0.000 A 
ATOM     26  C   UNL     1       7.060   6.608  18.342  0.00  0.00    +0.000 A 
ATOM     27  C   UNL     1       6.546   7.596  17.492  0.00  0.00    +0.000 A 
ATOM     28  C   UNL     1       7.184   8.832  17.369  0.00  0.00    +0.000 A 
ENDBRANCH  21  26
ENDBRANCH   1  21
TORSDOF 4
ENDMDL
MODEL 7
REMARK VINA RESULT:      -6.5      5.791      9.770
REMARK  Name = 
REMARK  5 active torsions:
REMARK  status: ('A' for Active; 'I' for Inactive)
REMARK    1  A    between atoms: C_1  and  C_2
REMARK    2  A    between atoms: C_5  and  C_6
REMARK    3  A    between atoms: C_6  and  N_7
REMARK    4  A    between atoms: C_12  and  C_13
REMARK    5  A    between atoms: N_18  and  C_19
REMARK                            x       y       z     vdW  Elec       q    Type
REMARK                         _______ _______ _______ _____ _____    ______ ____
ROOT
ATOM      1  N   UNL     1       0.560  10.257  19.977  0.00  0.00    +0.000 N 
ATOM      2  C   UNL     1       1.182   9.022  19.922  0.00  0.00    +0.000 C 
ATOM      3  O   UNL     1       1.640   8.475  18.934  0.00  0.00    +0.000 OA
ATOM      4  C   UNL     1       1.115   8.413  21.298  0.00  0.00    +0.000 C 
ATOM      5  C   UNL     1       0.830   9.610  22.199  0.00  0.00    +0.000 C 
ATOM      6  C   UNL     1       0.052  10.567  21.304  0.00  0.00    +0.000 C 
ENDROOT
BRANCH   6   7
ATOM      7  C   UNL     1       0.283  12.038  21.710  0.00  0.00    +0.000 C 
ATOM      8  O   UNL     1       1.361  12.596  21.492  0.00  0.00    +0.000 OA
ATOM      9  N   UNL     1      -0.764  12.720  22.304  0.00  0.00    +0.000 N 
ATOM     10  C   UNL     1      -0.718  14.188  22.379  0.00  0.00    +0.000 C 
ATOM     11  C   UNL     1      -1.964  14.800  21.711  0.00  0.00    +0.000 C 
ATOM     12  N   UNL     1      -3.194  14.204  22.264  0.00  0.00    +0.000 N 
ATOM     13  C   UNL     1      -3.258  12.733  22.232  0.00  0.00    +0.000 C 
ATOM     14  C   UNL     1      -1.987  12.134  22.868  0.00  0.00    +0.000 C 
BRANCH  12  15
ATOM     15  C   UNL     1      -4.181  14.959  22.865  0.00  0.00    +0.000 A 
ATOM     16  C   UNL     1      -5.476  15.035  22.328  0.00  0.00    +0.000 A 
ATOM     17  C   UNL     1      -6.484  15.799  22.929  0.00  0.00    +0.000 A 
ATOM     18  C   UNL     1      -6.218  16.509  24.093  0.00  0.00    +0.000 A 
ATOM     19  C   UNL     1      -4.946  16.454  24.650  0.00  0.00    +0.000 A 
ATOM     20  C   UNL     1      -3.945  15.689  24.041  0.00  0.00    +0.000 A 
ENDBRANCH  12  15
ENDBRANCH   6   7
BRANCH   1  21
ATOM     21  C   UNL     1       0.233  11.035  18.796  0.00  0.00    +0.000 C 
BRANCH  21  26
ATOM     22  C   UNL     1      -5.511  10.898  17.811  0.00  0.00    +0.000 C 
ATOM     23  C   UNL     1      -4.021  10.952  17.988  0.00  0.00    +0.000 A 
ATOM     24  C   UNL     1      -3.208   9.882  17.595  0.00  0.00    +0.000 A 
ATOM     25  C   UNL     1      -1.829   9.917  17.828  0.00  0.00    +0.000 A 
ATOM     26  C   UNL     1      -1.240  11.020  18.460  0.00  0.00    +0.000 A 
ATOM     27  C   UNL     1      -2.052  12.106  18.813  0.00  0.00    +0.000 A 
ATOM     28  C   UNL     1      -3.430  12.068  18.590  0.00  0.00    +0.000 A 
ENDBRANCH  21  26
ENDBRANCH   1  21
TORSDOF 4
ENDMDL
MODEL 8
REMARK VINA RESULT:      -6.4      1.857      4.193
REMARK  Name = 
REMARK  5 active torsions:
REMARK  status: ('A' for Active; 'I' for Inactive)
REMARK    1  A    between atoms: C_1  and  C_2
REMARK    2  A    between atoms: C_5  and  C_6
REMARK    3  A    between atoms: C_6  and  N_7
REMARK    4  A    between atoms: C_12  and  C_13
REMARK    5  A    between atoms: N_18  and  C_19
REMARK                            x       y       z     vdW  Elec       q    Type
REMARK                         _______ _______ _______ _____ _____    ______ ____
ROOT
ATOM      1  N   UNL     1       6.033   5.402  16.365  0.00  0.00    +0.000 N 
ATOM      2  C   UNL     1       7.138   6.020  16.924  0.00  0.00    +0.000 C 
ATOM      3  O   UNL     1       7.715   7.008  16.506  0.00  0.00    +0.000 OA
ATOM      4  C   UNL     1       7.573   5.198  18.109  0.00  0.00    +0.000 C 
ATOM      5  C   UNL     1       6.342   4.355  18.424  0.00  0.00    +0.000 C 
ATOM      6  C   UNL     1       5.654   4.190  17.074  0.00  0.00    +0.000 C 
ENDROOT
BRANCH   6   7
ATOM      7  C   UNL     1       4.126   4.036  17.231  0.00  0.00    +0.000 C 
ATOM      8  O   UNL     1       3.567   2.963  16.991  0.00  0.00    +0.000 OA
ATOM      9  N   UNL     1       3.405   5.132  17.670  0.00  0.00    +0.000 N 
ATOM     10  C   UNL     1       2.035   4.940  18.169  0.00  0.00    +0.000 C 
ATOM     11  C   UNL     1       1.903   5.487  19.604  0.00  0.00    +0.000 C 
ATOM     12  N   UNL     1       2.384   6.879  19.674  0.00  0.00    +0.000 N 
ATOM     13  C   UNL     1       3.741   7.110  19.153  0.00  0.00    +0.000 C 
ATOM     14  C   UNL     1       3.871   6.523  17.732  0.00  0.00    +0.000 C 
BRANCH  12  15
ATOM     15  C   UNL     1       1.585   7.920  20.103  0.00  0.00    +0.000 A 
ATOM     16  C   UNL     1       0.971   7.901  21.366  0.00  0.00    +0.000 A 
ATOM     17  C   UNL     1       0.159   8.951  21.811  0.00  0.00    +0.000 A 
ATOM     18  C   UNL     1      -0.058  10.056  20.996  0.00  0.00    +0.000 A 
ATOM     19  C   UNL     1       0.535  10.105  19.741  0.00  0.00    +0.000 A 
ATOM     20  C   UNL     1       1.345   9.049  19.305  0.00  0.00    +0.000 A 
ENDBRANCH  12  15
ENDBRANCH   6   7
BRANCH   1  21
ATOM     21  C   UNL     1       5.478   5.780  15.078  0.00  0.00    +0.000 C 
BRANCH  21  26
ATOM     22  C   UNL     1       7.246   2.076  10.938  0.00  0.00    +0.000 C 
ATOM     23  C   UNL     1       6.779   3.085  11.948  0.00  0.00    +0.000 A 
ATOM     24  C   UNL     1       7.636   4.087  12.417  0.00  0.00    +0.000 A 
ATOM     25  C   UNL     1       7.211   4.979  13.408  0.00  0.00    +0.000 A 
ATOM     26  C   UNL     1       5.922   4.881  13.949  0.00  0.00    +0.000 A 
ATOM     27  C   UNL     1       5.054   3.903  13.447  0.00  0.00    +0.000 A 
ATOM     28  C   UNL     1       5.482   3.007  12.464  0.00  0.00    +0.000 A 
ENDBRANCH  21  26
ENDBRANCH   1  21
TORSDOF 4
ENDMDL
MODEL 9
REMARK VINA RESULT:      -6.3      4.619      8.417
REMARK  Name = 
REMARK  5 active torsions:
REMARK  status: ('A' for Active; 'I' for Inactive)
REMARK    1  A    between atoms: C_1  and  C_2
REMARK    2  A    between atoms: C_5  and  C_6
REMARK    3  A    between atoms: C_6  and  N_7
REMARK    4  A    between atoms: C_12  and  C_13
REMARK    5  A    between atoms: N_18  and  C_19
REMARK                            x       y       z     vdW  Elec       q    Type
REMARK                         _______ _______ _______ _____ _____    ______ ____
ROOT
ATOM      1  N   UNL     1      -0.024  13.000  21.443  0.00  0.00    +0.000 N 
ATOM      2  C   UNL     1      -0.396  14.147  22.122  0.00  0.00    +0.000 C 
ATOM      3  O   UNL     1       0.341  14.952  22.663  0.00  0.00    +0.000 OA
ATOM      4  C   UNL     1      -1.902  14.188  22.160  0.00  0.00    +0.000 C 
ATOM      5  C   UNL     1      -2.309  13.227  21.049  0.00  0.00    +0.000 C 
ATOM      6  C   UNL     1      -1.167  12.219  20.997  0.00  0.00    +0.000 C 
ENDROOT
BRANCH   6   7
ATOM      7  C   UNL     1      -0.985  11.640  19.578  0.00  0.00    +0.000 C 
ATOM      8  O   UNL     1      -1.305  12.290  18.580  0.00  0.00    +0.000 OA
ATOM      9  N   UNL     1      -0.430  10.378  19.459  0.00  0.00    +0.000 N 
ATOM     10  C   UNL     1       0.086   9.939  18.154  0.00  0.00    +0.000 C 
ATOM     11  C   UNL     1       1.567   9.529  18.270  0.00  0.00    +0.000 C 
ATOM     12  N   UNL     1       1.749   8.548  19.355  0.00  0.00    +0.000 N 
ATOM     13  C   UNL     1       1.216   8.945  20.669  0.00  0.00    +0.000 C 
ATOM     14  C   UNL     1      -0.255   9.389  20.530  0.00  0.00    +0.000 C 
BRANCH  12  15
ATOM     15  C   UNL     1       2.292   7.296  19.142  0.00  0.00    +0.000 A 
ATOM     16  C   UNL     1       2.105   6.249  20.059  0.00  0.00    +0.000 A 
ATOM     17  C   UNL     1       2.651   4.977  19.854  0.00  0.00    +0.000 A 
ATOM     18  C   UNL     1       3.401   4.718  18.713  0.00  0.00    +0.000 A 
ATOM     19  C   UNL     1       3.604   5.733  17.786  0.00  0.00    +0.000 A 
ATOM     20  C   UNL     1       3.055   7.002  18.001  0.00  0.00    +0.000 A 
ENDBRANCH  12  15
ENDBRANCH   6   7
BRANCH   1  21
ATOM     21  C   UNL     1       1.342  12.509  21.404  0.00  0.00    +0.000 C 
BRANCH  21  26
ATOM     22  C   UNL     1       4.947  15.250  17.733  0.00  0.00    +0.000 C 
ATOM     23  C   UNL     1       3.978  14.612  18.688  0.00  0.00    +0.000 A 
ATOM     24  C   UNL     1       4.106  14.786  20.070  0.00  0.00    +0.000 A 
ATOM     25  C   UNL     1       3.238  14.131  20.951  0.00  0.00    +0.000 A 
ATOM     26  C   UNL     1       2.230  13.289  20.464  0.00  0.00    +0.000 A 
ATOM     27  C   UNL     1       2.080  13.151  19.078  0.00  0.00    +0.000 A 
ATOM     28  C   UNL     1       2.952  13.797  18.199  0.00  0.00    +0.000 A 
ENDBRANCH  21  26
ENDBRANCH   1  21
TORSDOF 4
ENDMDL
