MODEL 1
REMARK VINA RESULT:      -8.5      0.000      0.000
REMARK  Name = 
REMARK  5 active torsions:
REMARK  status: ('A' for Active; 'I' for Inactive)
REMARK    1  A    between atoms: C_2  and  C_3
REMARK    2  A    between atoms: C_9  and  C_10
REMARK    3  A    between atoms: N_13  and  S_14
REMARK    4  A    between atoms: S_14  and  C_17
REMARK    5  A    between atoms: C_17  and  C_18
REMARK                            x       y       z     vdW  Elec       q    Type
REMARK                         _______ _______ _______ _____ _____    ______ ____
ROOT
ATOM      1  C   UNL     1       1.308   9.815  18.016  0.00  0.00    +0.000 C 
ATOM      2  C   UNL     1       2.018  11.115  18.409  0.00  0.00    +0.000 C 
ATOM      3  C   UNL     1       1.460  11.788  19.654  0.00  0.00    +0.000 C 
ATOM      4  N   UNL     1      -0.027  11.950  19.636  0.00  0.00    +0.000 NA
ATOM      5  C   UNL     1      -0.787  10.732  19.180  0.00  0.00    +0.000 C 
ATOM      6  C   UNL     1      -0.197  10.101  17.921  0.00  0.00    +0.000 C 
ENDROOT
BRANCH   1  13
ATOM      7  C   UNL     1       3.213   5.118  18.876  0.00  0.00    +0.000 A 
ATOM      8  C   UNL     1       3.038   4.450  20.105  0.00  0.00    +0.000 A 
ATOM      9  N   UNL     1       2.312   5.124  20.988  0.00  0.00    +0.000 NA
ATOM     10  N   UNL     1       2.069   6.299  20.374  0.00  0.00    +0.000 N 
ATOM     11  C   UNL     1       1.405   7.372  20.940  0.00  0.00    +0.000 A 
ATOM     12  C   UNL     1       1.207   8.486  20.234  0.00  0.00    +0.000 A 
ATOM     13  C   UNL     1       1.655   8.571  18.844  0.00  0.00    +0.000 A 
ATOM     14  C   UNL     1       2.336   7.523  18.307  0.00  0.00    +0.000 A 
ATOM     15  C   UNL     1       2.577   6.334  19.075  0.00  0.00    +0.000 A 
BRANCH   7  17
ATOM     16  O   UNL     1       3.467   3.843  16.920  0.00  0.00    +0.000 OA
ATOM     17  C   UNL     1       3.954   4.631  17.719  0.00  0.00    +0.000 C 
ATOM     18  N   UNL     1       5.235   5.174  17.573  0.00  0.00    +0.000 N 
ATOM     19  C   UNL     1       6.008   4.983  16.362  0.00  0.00    +0.000 C 
ATOM     20  C   UNL     1       7.379   4.564  16.876  0.00  0.00    +0.000 C 
ATOM     21  C   UNL     1       7.528   5.355  18.164  0.00  0.00    +0.000 C 
ATOM     22  C   UNL     1       6.113   5.443  18.707  0.00  0.00    +0.000 C 
ENDBRANCH   7  17
ENDBRANCH   1  13
BRANCH   4  23
ATOM     23  S   UNL     1      -0.640  12.536  21.168  0.00  0.00    +0.000 S 
ATOM     24  O   UNL     1      -1.323  11.415  21.791  0.00  0.00    +0.000 OA
ATOM     25  O   UNL     1       0.478  13.175  21.827  0.00  0.00    +0.000 OA
BRANCH  23  26
ATOM     26  C   UNL     1      -1.877  13.760  20.667  0.00  0.00    +0.000 C 
BRANCH  26  27
ATOM     27  C   UNL     1      -3.181  13.495  21.396  0.00  0.00    +0.000 A 
ATOM     28  C   UNL     1      -3.351  13.942  22.719  0.00  0.00    +0.000 A 
ATOM     29  C   UNL     1      -4.558  13.735  23.400  0.00  0.00    +0.000 A 
ATOM     30  C   UNL     1      -5.613  13.075  22.774  0.00  0.00    +0.000 A 
ATOM     31  C   UNL     1      -5.452  12.607  21.472  0.00  0.00    +0.000 A 
ATOM     32  C   UNL     1      -4.249  12.810  20.789  0.00  0.00    +0.000 A 
ATOM     33 CL   UNL     1      -4.127  12.146  19.197  0.00  0.00    +0.000 Cl
ENDBRANCH  26  27
ENDBRANCH  23  26
ENDBRANCH   4  23
TORSDOF 5
ENDMDL
MODEL 2
REMARK VINA RESULT:      -8.3      1.051      1.341
REMARK  Name = 
REMARK  5 active torsions:
REMARK  status: ('A' for Active; 'I' for Inactive)
REMARK    1  A    between atoms: C_2  and  C_3
REMARK    2  A    between atoms: C_9  and  C_10
REMARK    3  A    between atoms: N_13  and  S_14
REMARK    4  A    between atoms: S_14  and  C_17
REMARK    5  A    between atoms: C_17  and  C_18
REMARK                            x       y       z     vdW  Elec       q    Type
REMARK                         _______ _______ _______ _____ _____    ______ ____
ROOT
ATOM      1  C   UNL     1       1.266   9.791  17.931  0.00  0.00    +0.000 C 
ATOM      2  C   UNL     1       1.979  11.097  18.298  0.00  0.00    +0.000 C 
ATOM      3  C   UNL     1       1.480  11.753  19.576  0.00  0.00    +0.000 C 
ATOM      4  N   UNL     1      -0.008  11.896  19.638  0.00  0.00    +0.000 NA
ATOM      5  C   UNL     1      -0.776  10.672  19.212  0.00  0.00    +0.000 C 
ATOM      6  C   UNL     1      -0.245  10.058  17.918  0.00  0.00    +0.000 C 
ENDROOT
BRANCH   1  13
ATOM      7  C   UNL     1       3.207   5.083  18.635  0.00  0.00    +0.000 A 
ATOM      8  C   UNL     1       3.128   4.416  19.875  0.00  0.00    +0.000 A 
ATOM      9  N   UNL     1       2.480   5.094  20.813  0.00  0.00    +0.000 NA
ATOM     10  N   UNL     1       2.195   6.271  20.221  0.00  0.00    +0.000 N 
ATOM     11  C   UNL     1       1.585   7.347  20.838  0.00  0.00    +0.000 A 
ATOM     12  C   UNL     1       1.337   8.462  20.150  0.00  0.00    +0.000 A 
ATOM     13  C   UNL     1       1.672   8.545  18.728  0.00  0.00    +0.000 A 
ATOM     14  C   UNL     1       2.300   7.494  18.138  0.00  0.00    +0.000 A 
ATOM     15  C   UNL     1       2.596   6.303  18.885  0.00  0.00    +0.000 A 
BRANCH   7  17
ATOM     16  O   UNL     1       3.429   3.618  16.814  0.00  0.00    +0.000 OA
ATOM     17  C   UNL     1       3.849   4.592  17.423  0.00  0.00    +0.000 C 
ATOM     18  N   UNL     1       4.942   5.350  16.990  0.00  0.00    +0.000 N 
ATOM     19  C   UNL     1       5.543   5.144  15.687  0.00  0.00    +0.000 C 
ATOM     20  C   UNL     1       7.035   5.081  15.987  0.00  0.00    +0.000 C 
ATOM     21  C   UNL     1       7.204   6.061  17.136  0.00  0.00    +0.000 C 
ATOM     22  C   UNL     1       5.904   5.945  17.912  0.00  0.00    +0.000 C 
ENDBRANCH   7  17
ENDBRANCH   1  13
BRANCH   4  23
ATOM     23  S   UNL     1      -0.547  12.461  21.205  0.00  0.00    +0.000 S 
ATOM     24  O   UNL     1      -1.296  11.368  21.798  0.00  0.00    +0.000 OA
ATOM     25  O   UNL     1       0.628  12.992  21.863  0.00  0.00    +0.000 OA
BRANCH  23  26
ATOM     26  C   UNL     1      -1.702  13.790  20.780  0.00  0.00    +0.000 C 
BRANCH  26  27
ATOM     27  C   UNL     1      -3.062  13.494  21.383  0.00  0.00    +0.000 A 
ATOM     28  C   UNL     1      -4.073  12.918  20.592  0.00  0.00    +0.000 A 
ATOM     29  C   UNL     1      -5.326  12.609  21.138  0.00  0.00    +0.000 A 
ATOM     30  C   UNL     1      -5.591  12.871  22.480  0.00  0.00    +0.000 A 
ATOM     31  C   UNL     1      -4.608  13.460  23.271  0.00  0.00    +0.000 A 
ATOM     32  C   UNL     1      -3.357  13.774  22.730  0.00  0.00    +0.000 A 
ATOM     33 CL   UNL     1      -2.220  14.551  23.776  0.00  0.00    +0.000 Cl
ENDBRANCH  26  27
ENDBRANCH  23  26
ENDBRANCH   4  23
TORSDOF 5
ENDMDL
MODEL 3
REMARK VINA RESULT:      -8.3      1.063      1.422
REMARK  Name = 
REMARK  5 active torsions:
REMARK  status: ('A' for Active; 'I' for Inactive)
REMARK    1  A    between atoms: C_2  and  C_3
REMARK    2  A    between atoms: C_9  and  C_10
REMARK    3  A    between atoms: N_13  and  S_14
REMARK    4  A    between atoms: S_14  and  C_17
REMARK    5  A    between atoms: C_17  and  C_18
REMARK                            x       y       z     vdW  Elec       q    Type
REMARK                         _______ _______ _______ _____ _____    ______ ____
ROOT
ATOM      1  C   UNL     1       1.176   9.859  18.055  0.00  0.00    +0.000 C 
ATOM      2  C   UNL     1       2.072  11.091  18.218  0.00  0.00    +0.000 C 
ATOM      3  C   UNL     1       1.864  11.858  19.516  0.00  0.00    +0.000 C 
ATOM      4  N   UNL     1       0.430  12.170  19.808  0.00  0.00    +0.000 NA
ATOM      5  C   UNL     1      -0.521  11.022  19.590  0.00  0.00    +0.000 C 
ATOM      6  C   UNL     1      -0.281  10.294  18.269  0.00  0.00    +0.000 C 
ENDROOT
BRANCH   1  13
ATOM      7  C   UNL     1       3.174   5.179  18.780  0.00  0.00    +0.000 A 
ATOM      8  C   UNL     1       3.069   4.499  20.012  0.00  0.00    +0.000 A 
ATOM      9  N   UNL     1       2.379   5.158  20.935  0.00  0.00    +0.000 NA
ATOM     10  N   UNL     1       2.092   6.335  20.343  0.00  0.00    +0.000 N 
ATOM     11  C   UNL     1       1.445   7.395  20.950  0.00  0.00    +0.000 A 
ATOM     12  C   UNL     1       1.199   8.512  20.264  0.00  0.00    +0.000 A 
ATOM     13  C   UNL     1       1.577   8.613  18.854  0.00  0.00    +0.000 A 
ATOM     14  C   UNL     1       2.243   7.578  18.275  0.00  0.00    +0.000 A 
ATOM     15  C   UNL     1       2.535   6.386  19.021  0.00  0.00    +0.000 A 
BRANCH   7  17
ATOM     16  O   UNL     1       3.347   3.923  16.804  0.00  0.00    +0.000 OA
ATOM     17  C   UNL     1       3.864   4.710  17.585  0.00  0.00    +0.000 C 
ATOM     18  N   UNL     1       5.129   5.269  17.381  0.00  0.00    +0.000 N 
ATOM     19  C   UNL     1       5.845   5.096  16.132  0.00  0.00    +0.000 C 
ATOM     20  C   UNL     1       7.244   4.689  16.574  0.00  0.00    +0.000 C 
ATOM     21  C   UNL     1       7.447   5.471  17.861  0.00  0.00    +0.000 C 
ATOM     22  C   UNL     1       6.059   5.539  18.473  0.00  0.00    +0.000 C 
ENDBRANCH   7  17
ENDBRANCH   1  13
BRANCH   4  23
ATOM     23  S   UNL     1       0.223  12.864  21.402  0.00  0.00    +0.000 S 
ATOM     24  O   UNL     1      -0.102  11.761  22.289  0.00  0.00    +0.000 OA
ATOM     25  O   UNL     1       1.396  13.678  21.638  0.00  0.00    +0.000 OA
BRANCH  23  26
ATOM     26  C   UNL     1      -1.249  13.900  21.203  0.00  0.00    +0.000 C 
BRANCH  26  27
ATOM     27  C   UNL     1      -1.886  14.143  22.558  0.00  0.00    +0.000 A 
ATOM     28  C   UNL     1      -1.191  14.870  23.543  0.00  0.00    +0.000 A 
ATOM     29  C   UNL     1      -1.774  15.133  24.790  0.00  0.00    +0.000 A 
ATOM     30  C   UNL     1      -3.057  14.673  25.076  0.00  0.00    +0.000 A 
ATOM     31  C   UNL     1      -3.749  13.933  24.120  0.00  0.00    +0.000 A 
ATOM     32  C   UNL     1      -3.171  13.666  22.875  0.00  0.00    +0.000 A 
ATOM     33 CL   UNL     1      -4.087  12.696  21.774  0.00  0.00    +0.000 Cl
ENDBRANCH  26  27
ENDBRANCH  23  26
ENDBRANCH   4  23
TORSDOF 5
ENDMDL
MODEL 4
REMARK VINA RESULT:      -8.3      1.345      1.640
REMARK  Name = 
REMARK  5 active torsions:
REMARK  status: ('A' for Active; 'I' for Inactive)
REMARK    1  A    between atoms: C_2  and  C_3
REMARK    2  A    between atoms: C_9  and  C_10
REMARK    3  A    between atoms: N_13  and  S_14
REMARK    4  A    between atoms: S_14  and  C_17
REMARK    5  A    between atoms: C_17  and  C_18
REMARK                            x       y       z     vdW  Elec       q    Type
REMARK                         _______ _______ _______ _____ _____    ______ ____
ROOT
ATOM      1  C   UNL     1       1.172   9.956  18.084  0.00  0.00    +0.000 C 
ATOM      2  C   UNL     1       2.071  11.186  18.252  0.00  0.00    +0.000 C 
ATOM      3  C   UNL     1       1.844  11.963  19.540  0.00  0.00    +0.000 C 
ATOM      4  N   UNL     1       0.407  12.284  19.805  0.00  0.00    +0.000 NA
ATOM      5  C   UNL     1      -0.545  11.139  19.580  0.00  0.00    +0.000 C 
ATOM      6  C   UNL     1      -0.286  10.399  18.269  0.00  0.00    +0.000 C 
ENDROOT
BRANCH   1  13
ATOM      7  C   UNL     1       3.208   5.306  18.898  0.00  0.00    +0.000 A 
ATOM      8  C   UNL     1       3.054   4.622  20.121  0.00  0.00    +0.000 A 
ATOM      9  N   UNL     1       2.310   5.268  21.011  0.00  0.00    +0.000 NA
ATOM     10  N   UNL     1       2.033   6.441  20.408  0.00  0.00    +0.000 N 
ATOM     11  C   UNL     1       1.340   7.489  20.985  0.00  0.00    +0.000 A 
ATOM     12  C   UNL     1       1.110   8.604  20.289  0.00  0.00    +0.000 A 
ATOM     13  C   UNL     1       1.555   8.715  18.899  0.00  0.00    +0.000 A 
ATOM     14  C   UNL     1       2.263   7.692  18.352  0.00  0.00    +0.000 A 
ATOM     15  C   UNL     1       2.538   6.503  19.109  0.00  0.00    +0.000 A 
BRANCH   7  17
ATOM     16  O   UNL     1       3.459   4.148  16.871  0.00  0.00    +0.000 OA
ATOM     17  C   UNL     1       3.962   4.852  17.737  0.00  0.00    +0.000 C 
ATOM     18  N   UNL     1       5.276   5.323  17.669  0.00  0.00    +0.000 N 
ATOM     19  C   UNL     1       6.082   5.164  16.474  0.00  0.00    +0.000 C 
ATOM     20  C   UNL     1       7.406   4.630  17.003  0.00  0.00    +0.000 C 
ATOM     21  C   UNL     1       7.553   5.325  18.347  0.00  0.00    +0.000 C 
ATOM     22  C   UNL     1       6.126   5.464  18.847  0.00  0.00    +0.000 C 
ENDBRANCH   7  17
ENDBRANCH   1  13
BRANCH   4  23
ATOM     23  S   UNL     1       0.176  12.991  21.390  0.00  0.00    +0.000 S 
ATOM     24  O   UNL     1      -0.238  11.909  22.264  0.00  0.00    +0.000 OA
ATOM     25  O   UNL     1       1.379  13.745  21.670  0.00  0.00    +0.000 OA
BRANCH  23  26
ATOM     26  C   UNL     1      -1.233  14.100  21.136  0.00  0.00    +0.000 C 
BRANCH  26  27
ATOM     27  C   UNL     1      -2.285  13.838  22.197  0.00  0.00    +0.000 A 
ATOM     28  C   UNL     1      -3.405  13.040  21.897  0.00  0.00    +0.000 A 
ATOM     29  C   UNL     1      -4.372  12.760  22.871  0.00  0.00    +0.000 A 
ATOM     30  C   UNL     1      -4.239  13.272  24.159  0.00  0.00    +0.000 A 
ATOM     31  C   UNL     1      -3.148  14.081  24.466  0.00  0.00    +0.000 A 
ATOM     32  C   UNL     1      -2.181  14.366  23.496  0.00  0.00    +0.000 A 
ATOM     33 CL   UNL     1      -0.892  15.422  23.957  0.00  0.00    +0.000 Cl
ENDBRANCH  26  27
ENDBRANCH  23  26
ENDBRANCH   4  23
TORSDOF 5
ENDMDL
MODEL 5
REMARK VINA RESULT:      -8.1      1.242      1.581
REMARK  Name = 
REMARK  5 active torsions:
REMARK  status: ('A' for Active; 'I' for Inactive)
REMARK    1  A    between atoms: C_2  and  C_3
REMARK    2  A    between atoms: C_9  and  C_10
REMARK    3  A    between atoms: N_13  and  S_14
REMARK    4  A    between atoms: S_14  and  C_17
REMARK    5  A    between atoms: C_17  and  C_18
REMARK                            x       y       z     vdW  Elec       q    Type
REMARK                         _______ _______ _______ _____ _____    ______ ____
ROOT
ATOM      1  C   UNL     1       1.212   9.910  18.129  0.00  0.00    +0.000 C 
ATOM      2  C   UNL     1       1.825  11.223  18.627  0.00  0.00    +0.000 C 
ATOM      3  C   UNL     1       1.212  11.761  19.912  0.00  0.00    +0.000 C 
ATOM      4  N   UNL     1      -0.283  11.819  19.886  0.00  0.00    +0.000 NA
ATOM      5  C   UNL     1      -0.952  10.589  19.330  0.00  0.00    +0.000 C 
ATOM      6  C   UNL     1      -0.308  10.097  18.035  0.00  0.00    +0.000 C 
ENDROOT
BRANCH   1  13
ATOM      7  C   UNL     1       3.187   5.187  18.601  0.00  0.00    +0.000 A 
ATOM      8  C   UNL     1       3.136   4.470  19.814  0.00  0.00    +0.000 A 
ATOM      9  N   UNL     1       2.504   5.106  20.792  0.00  0.00    +0.000 NA
ATOM     10  N   UNL     1       2.202   6.304  20.254  0.00  0.00    +0.000 N 
ATOM     11  C   UNL     1       1.601   7.351  20.927  0.00  0.00    +0.000 A 
ATOM     12  C   UNL     1       1.334   8.492  20.290  0.00  0.00    +0.000 A 
ATOM     13  C   UNL     1       1.639   8.635  18.866  0.00  0.00    +0.000 A 
ATOM     14  C   UNL     1       2.260   7.612  18.221  0.00  0.00    +0.000 A 
ATOM     15  C   UNL     1       2.576   6.393  18.913  0.00  0.00    +0.000 A 
BRANCH   7  17
ATOM     16  O   UNL     1       3.362   3.817  16.702  0.00  0.00    +0.000 OA
ATOM     17  C   UNL     1       3.807   4.750  17.357  0.00  0.00    +0.000 C 
ATOM     18  N   UNL     1       4.909   5.509  16.952  0.00  0.00    +0.000 N 
ATOM     19  C   UNL     1       5.491   5.362  15.633  0.00  0.00    +0.000 C 
ATOM     20  C   UNL     1       6.985   5.256  15.911  0.00  0.00    +0.000 C 
ATOM     21  C   UNL     1       7.185   6.171  17.107  0.00  0.00    +0.000 C 
ATOM     22  C   UNL     1       5.892   6.038  17.892  0.00  0.00    +0.000 C 
ENDBRANCH   7  17
ENDBRANCH   1  13
BRANCH   4  23
ATOM     23  S   UNL     1      -0.948  12.244  21.448  0.00  0.00    +0.000 S 
ATOM     24  O   UNL     1      -1.014  11.012  22.214  0.00  0.00    +0.000 OA
ATOM     25  O   UNL     1      -0.167  13.366  21.923  0.00  0.00    +0.000 OA
BRANCH  23  26
ATOM     26  C   UNL     1      -2.636  12.762  21.042  0.00  0.00    +0.000 C 
BRANCH  26  27
ATOM     27  C   UNL     1      -3.023  13.953  21.899  0.00  0.00    +0.000 A 
ATOM     28  C   UNL     1      -2.915  15.257  21.382  0.00  0.00    +0.000 A 
ATOM     29  C   UNL     1      -3.296  16.368  22.146  0.00  0.00    +0.000 A 
ATOM     30  C   UNL     1      -3.789  16.197  23.437  0.00  0.00    +0.000 A 
ATOM     31  C   UNL     1      -3.882  14.914  23.971  0.00  0.00    +0.000 A 
ATOM     32  C   UNL     1      -3.500  13.802  23.213  0.00  0.00    +0.000 A 
ATOM     33 CL   UNL     1      -3.602  12.255  23.981  0.00  0.00    +0.000 Cl
ENDBRANCH  26  27
ENDBRANCH  23  26
ENDBRANCH   4  23
TORSDOF 5
ENDMDL
MODEL 6
REMARK VINA RESULT:      -8.0      1.876      1.906
REMARK  Name = 
REMARK  5 active torsions:
REMARK  status: ('A' for Active; 'I' for Inactive)
REMARK    1  A    between atoms: C_2  and  C_3
REMARK    2  A    between atoms: C_9  and  C_10
REMARK    3  A    between atoms: N_13  and  S_14
REMARK    4  A    between atoms: S_14  and  C_17
REMARK    5  A    between atoms: C_17  and  C_18
REMARK                            x       y       z     vdW  Elec       q    Type
REMARK                         _______ _______ _______ _____ _____    ______ ____
ROOT
ATOM      1  C   UNL     1       1.213   9.862  18.061  0.00  0.00    +0.000 C 
ATOM      2  C   UNL     1       1.856  11.175  18.519  0.00  0.00    +0.000 C 
ATOM      3  C   UNL     1       1.278  11.747  19.805  0.00  0.00    +0.000 C 
ATOM      4  N   UNL     1      -0.216  11.828  19.809  0.00  0.00    +0.000 NA
ATOM      5  C   UNL     1      -0.914  10.597  19.293  0.00  0.00    +0.000 C 
ATOM      6  C   UNL     1      -0.306  10.069  17.996  0.00  0.00    +0.000 C 
ENDROOT
BRANCH   1  13
ATOM      7  C   UNL     1       3.194   5.148  18.597  0.00  0.00    +0.000 A 
ATOM      8  C   UNL     1       3.136   4.443  19.818  0.00  0.00    +0.000 A 
ATOM      9  N   UNL     1       2.496   5.089  20.784  0.00  0.00    +0.000 NA
ATOM     10  N   UNL     1       2.195   6.280  20.231  0.00  0.00    +0.000 N 
ATOM     11  C   UNL     1       1.587   7.334  20.889  0.00  0.00    +0.000 A 
ATOM     12  C   UNL     1       1.322   8.467  20.238  0.00  0.00    +0.000 A 
ATOM     13  C   UNL     1       1.638   8.595  18.815  0.00  0.00    +0.000 A 
ATOM     14  C   UNL     1       2.265   7.566  18.185  0.00  0.00    +0.000 A 
ATOM     15  C   UNL     1       2.579   6.356  18.892  0.00  0.00    +0.000 A 
BRANCH   7  17
ATOM     16  O   UNL     1       3.411   3.731  16.737  0.00  0.00    +0.000 OA
ATOM     17  C   UNL     1       3.824   4.699  17.363  0.00  0.00    +0.000 C 
ATOM     18  N   UNL     1       4.895   5.487  16.930  0.00  0.00    +0.000 N 
ATOM     19  C   UNL     1       5.476   5.323  15.612  0.00  0.00    +0.000 C 
ATOM     20  C   UNL     1       6.974   5.281  15.884  0.00  0.00    +0.000 C 
ATOM     21  C   UNL     1       7.146   6.236  17.053  0.00  0.00    +0.000 C 
ATOM     22  C   UNL     1       5.862   6.078  17.849  0.00  0.00    +0.000 C 
ENDBRANCH   7  17
ENDBRANCH   1  13
BRANCH   4  23
ATOM     23  S   UNL     1      -0.841  12.294  21.377  0.00  0.00    +0.000 S 
ATOM     24  O   UNL     1      -2.289  12.247  21.271  0.00  0.00    +0.000 OA
ATOM     25  O   UNL     1      -0.146  11.472  22.344  0.00  0.00    +0.000 OA
BRANCH  23  26
ATOM     26  C   UNL     1      -0.329  14.025  21.518  0.00  0.00    +0.000 C 
BRANCH  26  27
ATOM     27  C   UNL     1      -1.234  14.745  22.500  0.00  0.00    +0.000 A 
ATOM     28  C   UNL     1      -1.245  14.367  23.855  0.00  0.00    +0.000 A 
ATOM     29  C   UNL     1      -2.050  15.040  24.784  0.00  0.00    +0.000 A 
ATOM     30  C   UNL     1      -2.859  16.098  24.376  0.00  0.00    +0.000 A 
ATOM     31  C   UNL     1      -2.876  16.470  23.034  0.00  0.00    +0.000 A 
ATOM     32  C   UNL     1      -2.075  15.800  22.103  0.00  0.00    +0.000 A 
ATOM     33 CL   UNL     1      -2.204  16.300  20.452  0.00  0.00    +0.000 Cl
ENDBRANCH  26  27
ENDBRANCH  23  26
ENDBRANCH   4  23
TORSDOF 5
ENDMDL
MODEL 7
REMARK VINA RESULT:      -8.0      2.127      2.620
REMARK  Name = 
REMARK  5 active torsions:
REMARK  status: ('A' for Active; 'I' for Inactive)
REMARK    1  A    between atoms: C_2  and  C_3
REMARK    2  A    between atoms: C_9  and  C_10
REMARK    3  A    between atoms: N_13  and  S_14
REMARK    4  A    between atoms: S_14  and  C_17
REMARK    5  A    between atoms: C_17  and  C_18
REMARK                            x       y       z     vdW  Elec       q    Type
REMARK                         _______ _______ _______ _____ _____    ______ ____
ROOT
ATOM      1  C   UNL     1       1.344   9.793  18.002  0.00  0.00    +0.000 C 
ATOM      2  C   UNL     1       1.955  11.117  18.472  0.00  0.00    +0.000 C 
ATOM      3  C   UNL     1       1.253  11.750  19.664  0.00  0.00    +0.000 C 
ATOM      4  N   UNL     1      -0.231  11.847  19.507  0.00  0.00    +0.000 NA
ATOM      5  C   UNL     1      -0.890  10.603  18.970  0.00  0.00    +0.000 C 
ATOM      6  C   UNL     1      -0.156  10.014  17.767  0.00  0.00    +0.000 C 
ENDROOT
BRANCH   1  13
ATOM      7  C   UNL     1       3.186   5.086  18.937  0.00  0.00    +0.000 A 
ATOM      8  C   UNL     1       2.989   4.433  20.172  0.00  0.00    +0.000 A 
ATOM      9  N   UNL     1       2.259   5.125  21.037  0.00  0.00    +0.000 NA
ATOM     10  N   UNL     1       2.036   6.296  20.408  0.00  0.00    +0.000 N 
ATOM     11  C   UNL     1       1.377   7.382  20.953  0.00  0.00    +0.000 A 
ATOM     12  C   UNL     1       1.200   8.490  20.232  0.00  0.00    +0.000 A 
ATOM     13  C   UNL     1       1.667   8.555  18.847  0.00  0.00    +0.000 A 
ATOM     14  C   UNL     1       2.343   7.494  18.330  0.00  0.00    +0.000 A 
ATOM     15  C   UNL     1       2.561   6.311  19.115  0.00  0.00    +0.000 A 
BRANCH   7  17
ATOM     16  O   UNL     1       3.470   3.749  17.028  0.00  0.00    +0.000 OA
ATOM     17  C   UNL     1       3.938   4.579  17.796  0.00  0.00    +0.000 C 
ATOM     18  N   UNL     1       5.202   5.151  17.625  0.00  0.00    +0.000 N 
ATOM     19  C   UNL     1       5.977   4.937  16.418  0.00  0.00    +0.000 C 
ATOM     20  C   UNL     1       7.360   4.576  16.941  0.00  0.00    +0.000 C 
ATOM     21  C   UNL     1       7.492   5.417  18.200  0.00  0.00    +0.000 C 
ATOM     22  C   UNL     1       6.076   5.485  18.745  0.00  0.00    +0.000 C 
ENDBRANCH   7  17
ENDBRANCH   1  13
BRANCH   4  23
ATOM     23  S   UNL     1      -1.011  12.385  20.979  0.00  0.00    +0.000 S 
ATOM     24  O   UNL     1      -2.345  12.818  20.601  0.00  0.00    +0.000 OA
ATOM     25  O   UNL     1      -0.828  11.319  21.941  0.00  0.00    +0.000 OA
BRANCH  23  26
ATOM     26  C   UNL     1      -0.040  13.843  21.441  0.00  0.00    +0.000 C 
BRANCH  26  27
ATOM     27  C   UNL     1      -0.485  15.033  20.613  0.00  0.00    +0.000 A 
ATOM     28  C   UNL     1       0.100  15.274  19.355  0.00  0.00    +0.000 A 
ATOM     29  C   UNL     1      -0.318  16.350  18.561  0.00  0.00    +0.000 A 
ATOM     30  C   UNL     1      -1.322  17.204  19.009  0.00  0.00    +0.000 A 
ATOM     31  C   UNL     1      -1.896  16.993  20.260  0.00  0.00    +0.000 A 
ATOM     32  C   UNL     1      -1.480  15.921  21.058  0.00  0.00    +0.000 A 
ATOM     33 CL   UNL     1      -2.213  15.772  22.618  0.00  0.00    +0.000 Cl
ENDBRANCH  26  27
ENDBRANCH  23  26
ENDBRANCH   4  23
TORSDOF 5
ENDMDL
MODEL 8
REMARK VINA RESULT:      -7.9      1.812      2.276
REMARK  Name = 
REMARK  5 active torsions:
REMARK  status: ('A' for Active; 'I' for Inactive)
REMARK    1  A    between atoms: C_2  and  C_3
REMARK    2  A    between atoms: C_9  and  C_10
REMARK    3  A    between atoms: N_13  and  S_14
REMARK    4  A    between atoms: S_14  and  C_17
REMARK    5  A    between atoms: C_17  and  C_18
REMARK                            x       y       z     vdW  Elec       q    Type
REMARK                         _______ _______ _______ _____ _____    ______ ____
ROOT
ATOM      1  C   UNL     1       1.522   9.663  17.696  0.00  0.00    +0.000 C 
ATOM      2  C   UNL     1       2.022  11.038  18.153  0.00  0.00    +0.000 C 
ATOM      3  C   UNL     1       1.503  11.480  19.512  0.00  0.00    +0.000 C 
ATOM      4  N   UNL     1       0.020  11.351  19.661  0.00  0.00    +0.000 NA
ATOM      5  C   UNL     1      -0.553  10.052  19.156  0.00  0.00    +0.000 C 
ATOM      6  C   UNL     1      -0.011   9.658  17.784  0.00  0.00    +0.000 C 
ENDROOT
BRANCH   1  13
ATOM      7  C   UNL     1       4.995   5.906  18.190  0.00  0.00    +0.000 A 
ATOM      8  C   UNL     1       4.882   4.903  19.175  0.00  0.00    +0.000 A 
ATOM      9  N   UNL     1       3.789   5.000  19.921  0.00  0.00    +0.000 NA
ATOM     10  N   UNL     1       3.204   6.134  19.489  0.00  0.00    +0.000 N 
ATOM     11  C   UNL     1       2.062   6.697  20.028  0.00  0.00    +0.000 A 
ATOM     12  C   UNL     1       1.559   7.819  19.510  0.00  0.00    +0.000 A 
ATOM     13  C   UNL     1       2.187   8.444  18.346  0.00  0.00    +0.000 A 
ATOM     14  C   UNL     1       3.328   7.901  17.844  0.00  0.00    +0.000 A 
ATOM     15  C   UNL     1       3.888   6.710  18.418  0.00  0.00    +0.000 A 
BRANCH   7  17
ATOM     16  O   UNL     1       6.862   6.996  17.274  0.00  0.00    +0.000 OA
ATOM     17  C   UNL     1       6.077   6.059  17.225  0.00  0.00    +0.000 C 
ATOM     18  N   UNL     1       6.171   5.031  16.282  0.00  0.00    +0.000 N 
ATOM     19  C   UNL     1       7.320   4.905  15.407  0.00  0.00    +0.000 C 
ATOM     20  C   UNL     1       6.701   4.697  14.032  0.00  0.00    +0.000 C 
ATOM     21  C   UNL     1       5.449   3.889  14.328  0.00  0.00    +0.000 C 
ATOM     22  C   UNL     1       5.000   4.394  15.689  0.00  0.00    +0.000 C 
ENDBRANCH   7  17
ENDBRANCH   1  13
BRANCH   4  23
ATOM     23  S   UNL     1      -0.504  11.672  21.301  0.00  0.00    +0.000 S 
ATOM     24  O   UNL     1      -0.667  10.378  21.939  0.00  0.00    +0.000 OA
ATOM     25  O   UNL     1       0.427  12.644  21.834  0.00  0.00    +0.000 OA
BRANCH  23  26
ATOM     26  C   UNL     1      -2.141  12.410  21.065  0.00  0.00    +0.000 C 
BRANCH  26  27
ATOM     27  C   UNL     1      -2.589  13.075  22.353  0.00  0.00    +0.000 A 
ATOM     28  C   UNL     1      -3.284  12.332  23.324  0.00  0.00    +0.000 A 
ATOM     29  C   UNL     1      -3.680  12.918  24.534  0.00  0.00    +0.000 A 
ATOM     30  C   UNL     1      -3.392  14.256  24.792  0.00  0.00    +0.000 A 
ATOM     31  C   UNL     1      -2.723  15.011  23.832  0.00  0.00    +0.000 A 
ATOM     32  C   UNL     1      -2.328  14.431  22.623  0.00  0.00    +0.000 A 
ATOM     33 CL   UNL     1      -1.551  15.462  21.472  0.00  0.00    +0.000 Cl
ENDBRANCH  26  27
ENDBRANCH  23  26
ENDBRANCH   4  23
TORSDOF 5
ENDMDL
MODEL 9
REMARK VINA RESULT:      -7.8      2.292      2.733
REMARK  Name = 
REMARK  5 active torsions:
REMARK  status: ('A' for Active; 'I' for Inactive)
REMARK    1  A    between atoms: C_2  and  C_3
REMARK    2  A    between atoms: C_9  and  C_10
REMARK    3  A    between atoms: N_13  and  S_14
REMARK    4  A    between atoms: S_14  and  C_17
REMARK    5  A    between atoms: C_17  and  C_18
REMARK                            x       y       z     vdW  Elec       q    Type
REMARK                         _______ _______ _______ _____ _____    ______ ____
ROOT
ATOM      1  C   UNL     1       1.175   9.873  17.947  0.00  0.00    +0.000 C 
ATOM      2  C   UNL     1       1.940  11.168  18.236  0.00  0.00    +0.000 C 
ATOM      3  C   UNL     1       1.533  11.870  19.522  0.00  0.00    +0.000 C 
ATOM      4  N   UNL     1       0.055  12.054  19.666  0.00  0.00    +0.000 NA
ATOM      5  C   UNL     1      -0.767  10.840  19.319  0.00  0.00    +0.000 C 
ATOM      6  C   UNL     1      -0.328  10.180  18.013  0.00  0.00    +0.000 C 
ENDROOT
BRANCH   1  13
ATOM      7  C   UNL     1       3.139   5.179  18.679  0.00  0.00    +0.000 A 
ATOM      8  C   UNL     1       3.080   4.527  19.928  0.00  0.00    +0.000 A 
ATOM      9  N   UNL     1       2.442   5.214  20.867  0.00  0.00    +0.000 NA
ATOM     10  N   UNL     1       2.145   6.383  20.265  0.00  0.00    +0.000 N 
ATOM     11  C   UNL     1       1.541   7.464  20.878  0.00  0.00    +0.000 A 
ATOM     12  C   UNL     1       1.280   8.571  20.180  0.00  0.00    +0.000 A 
ATOM     13  C   UNL     1       1.595   8.638  18.753  0.00  0.00    +0.000 A 
ATOM     14  C   UNL     1       2.219   7.581  18.166  0.00  0.00    +0.000 A 
ATOM     15  C   UNL     1       2.528   6.401  18.923  0.00  0.00    +0.000 A 
BRANCH   7  17
ATOM     16  O   UNL     1       3.331   3.705  16.862  0.00  0.00    +0.000 OA
ATOM     17  C   UNL     1       3.767   4.677  17.464  0.00  0.00    +0.000 C 
ATOM     18  N   UNL     1       4.866   5.419  17.021  0.00  0.00    +0.000 N 
ATOM     19  C   UNL     1       5.455   5.201  15.715  0.00  0.00    +0.000 C 
ATOM     20  C   UNL     1       6.948   5.121  16.004  0.00  0.00    +0.000 C 
ATOM     21  C   UNL     1       7.138   6.103  17.147  0.00  0.00    +0.000 C 
ATOM     22  C   UNL     1       5.842   6.006  17.934  0.00  0.00    +0.000 C 
ENDBRANCH   7  17
ENDBRANCH   1  13
BRANCH   4  23
ATOM     23  S   UNL     1      -0.377  12.674  21.246  0.00  0.00    +0.000 S 
ATOM     24  O   UNL     1      -1.797  12.971  21.194  0.00  0.00    +0.000 OA
ATOM     25  O   UNL     1       0.142  11.721  22.204  0.00  0.00    +0.000 OA
BRANCH  23  26
ATOM     26  C   UNL     1       0.537  14.235  21.331  0.00  0.00    +0.000 C 
BRANCH  26  27
ATOM     27  C   UNL     1      -0.164  15.282  20.485  0.00  0.00    +0.000 A 
ATOM     28  C   UNL     1      -1.387  15.829  20.914  0.00  0.00    +0.000 A 
ATOM     29  C   UNL     1      -2.035  16.819  20.163  0.00  0.00    +0.000 A 
ATOM     30  C   UNL     1      -1.476  17.277  18.973  0.00  0.00    +0.000 A 
ATOM     31  C   UNL     1      -0.276  16.730  18.525  0.00  0.00    +0.000 A 
ATOM     32  C   UNL     1       0.374  15.740  19.269  0.00  0.00    +0.000 A 
ATOM     33 CL   UNL     1       1.830  15.085  18.605  0.00  0.00    +0.000 Cl
ENDBRANCH  26  27
ENDBRANCH  23  26
ENDBRANCH   4  23
TORSDOF 5
ENDMDL
