MODEL 1
REMARK VINA RESULT:      -7.8      0.000      0.000
REMARK  Name = 
REMARK  3 active torsions:
REMARK  status: ('A' for Active; 'I' for Inactive)
REMARK    1  A    between atoms: C_1  and  C_2
REMARK    2  A    between atoms: C_2  and  N_3
REMARK    3  A    between atoms: C_4  and  C_5
REMARK                            x       y       z     vdW  Elec       q    Type
REMARK                         _______ _______ _______ _____ _____    ______ ____
ROOT
ATOM      1  N   UNL     1       4.598   3.827  17.060  0.00  0.00    +0.000 N 
ATOM      2  C   UNL     1       4.737   4.299  18.373  0.00  0.00    +0.000 A 
ATOM      3  C   UNL     1       5.844   5.137  18.351  0.00  0.00    +0.000 A 
ATOM      4  C   UNL     1       6.370   5.168  17.047  0.00  0.00    +0.000 A 
ATOM      5  N   UNL     1       7.431   5.870  16.592  0.00  0.00    +0.000 NA
ATOM      6  N   UNL     1       7.757   5.774  15.317  0.00  0.00    +0.000 NA
ATOM      7  C   UNL     1       7.074   4.990  14.467  0.00  0.00    +0.000 A 
ATOM      8  C   UNL     1       7.483   4.944  13.139  0.00  0.00    +0.000 A 
ATOM      9  C   UNL     1       6.841   4.151  12.185  0.00  0.00    +0.000 A 
ATOM     10  C   UNL     1       5.755   3.372  12.564  0.00  0.00    +0.000 A 
ATOM     11  C   UNL     1       5.316   3.398  13.887  0.00  0.00    +0.000 A 
ATOM     12  C   UNL     1       5.961   4.208  14.856  0.00  0.00    +0.000 A 
ATOM     13  C   UNL     1       5.602   4.336  16.236  0.00  0.00    +0.000 A 
ENDROOT
BRANCH   2  14
ATOM     14  C   UNL     1       3.846   4.025  19.529  0.00  0.00    +0.000 A 
ATOM     15  C   UNL     1       3.803   2.785  20.180  0.00  0.00    +0.000 A 
ATOM     16  C   UNL     1       2.915   2.522  21.225  0.00  0.00    +0.000 A 
ATOM     17  C   UNL     1       2.081   3.528  21.692  0.00  0.00    +0.000 A 
ATOM     18  C   UNL     1       2.144   4.790  21.110  0.00  0.00    +0.000 A 
ATOM     19  C   UNL     1       3.011   5.033  20.034  0.00  0.00    +0.000 A 
ENDBRANCH   2  14
BRANCH   1  21
ATOM     20  C   UNL     1       2.126   3.618  16.908  0.00  0.00    +0.000 C 
ATOM     21  C   UNL     1       3.488   3.012  16.585  0.00  0.00    +0.000 C 
ENDBRANCH   1  21
TORSDOF 2
ENDMDL
MODEL 2
REMARK VINA RESULT:      -7.7      0.058      1.046
REMARK  Name = 
REMARK  3 active torsions:
REMARK  status: ('A' for Active; 'I' for Inactive)
REMARK    1  A    between atoms: C_1  and  C_2
REMARK    2  A    between atoms: C_2  and  N_3
REMARK    3  A    between atoms: C_4  and  C_5
REMARK                            x       y       z     vdW  Elec       q    Type
REMARK                         _______ _______ _______ _____ _____    ______ ____
ROOT
ATOM      1  N   UNL     1       4.553   3.843  17.068  0.00  0.00    +0.000 N 
ATOM      2  C   UNL     1       4.683   4.312  18.383  0.00  0.00    +0.000 A 
ATOM      3  C   UNL     1       5.793   5.146  18.373  0.00  0.00    +0.000 A 
ATOM      4  C   UNL     1       6.331   5.176  17.072  0.00  0.00    +0.000 A 
ATOM      5  N   UNL     1       7.398   5.875  16.628  0.00  0.00    +0.000 NA
ATOM      6  N   UNL     1       7.734   5.780  15.355  0.00  0.00    +0.000 NA
ATOM      7  C   UNL     1       7.056   4.999  14.499  0.00  0.00    +0.000 A 
ATOM      8  C   UNL     1       7.476   4.954  13.174  0.00  0.00    +0.000 A 
ATOM      9  C   UNL     1       6.839   4.166  12.213  0.00  0.00    +0.000 A 
ATOM     10  C   UNL     1       5.747   3.390  12.582  0.00  0.00    +0.000 A 
ATOM     11  C   UNL     1       5.296   3.416  13.901  0.00  0.00    +0.000 A 
ATOM     12  C   UNL     1       5.937   4.222  14.877  0.00  0.00    +0.000 A 
ATOM     13  C   UNL     1       5.567   4.349  16.254  0.00  0.00    +0.000 A 
ENDROOT
BRANCH   2  14
ATOM     14  C   UNL     1       3.781   4.039  19.531  0.00  0.00    +0.000 A 
ATOM     15  C   UNL     1       2.905   4.998  20.057  0.00  0.00    +0.000 A 
ATOM     16  C   UNL     1       2.109   4.746  21.176  0.00  0.00    +0.000 A 
ATOM     17  C   UNL     1       2.125   3.491  21.767  0.00  0.00    +0.000 A 
ATOM     18  C   UNL     1       2.937   2.497  21.232  0.00  0.00    +0.000 A 
ATOM     19  C   UNL     1       3.763   2.770  20.131  0.00  0.00    +0.000 A 
ENDBRANCH   2  14
BRANCH   1  21
ATOM     20  C   UNL     1       2.082   3.608  16.957  0.00  0.00    +0.000 C 
ATOM     21  C   UNL     1       3.444   3.034  16.582  0.00  0.00    +0.000 C 
ENDBRANCH   1  21
TORSDOF 2
ENDMDL
MODEL 3
REMARK VINA RESULT:      -7.7      4.724      8.200
REMARK  Name = 
REMARK  3 active torsions:
REMARK  status: ('A' for Active; 'I' for Inactive)
REMARK    1  A    between atoms: C_1  and  C_2
REMARK    2  A    between atoms: C_2  and  N_3
REMARK    3  A    between atoms: C_4  and  C_5
REMARK                            x       y       z     vdW  Elec       q    Type
REMARK                         _______ _______ _______ _____ _____    ______ ____
ROOT
ATOM      1  N   UNL     1       2.061   7.538  19.632  0.00  0.00    +0.000 N 
ATOM      2  C   UNL     1       2.570   7.465  18.327  0.00  0.00    +0.000 A 
ATOM      3  C   UNL     1       2.196   8.653  17.714  0.00  0.00    +0.000 A 
ATOM      4  C   UNL     1       1.466   9.431  18.631  0.00  0.00    +0.000 A 
ATOM      5  N   UNL     1       0.935  10.659  18.445  0.00  0.00    +0.000 NA
ATOM      6  N   UNL     1       0.294  11.233  19.446  0.00  0.00    +0.000 NA
ATOM      7  C   UNL     1       0.144  10.625  20.633  0.00  0.00    +0.000 A 
ATOM      8  C   UNL     1      -0.546  11.298  21.636  0.00  0.00    +0.000 A 
ATOM      9  C   UNL     1      -0.759  10.742  22.900  0.00  0.00    +0.000 A 
ATOM     10  C   UNL     1      -0.273   9.471  23.177  0.00  0.00    +0.000 A 
ATOM     11  C   UNL     1       0.427   8.770  22.196  0.00  0.00    +0.000 A 
ATOM     12  C   UNL     1       0.652   9.335  20.915  0.00  0.00    +0.000 A 
ATOM     13  C   UNL     1       1.364   8.730  19.830  0.00  0.00    +0.000 A 
ENDROOT
BRANCH   2  14
ATOM     14  C   UNL     1       3.402   6.381  17.743  0.00  0.00    +0.000 A 
ATOM     15  C   UNL     1       2.973   5.049  17.667  0.00  0.00    +0.000 A 
ATOM     16  C   UNL     1       3.791   4.030  17.173  0.00  0.00    +0.000 A 
ATOM     17  C   UNL     1       5.051   4.334  16.679  0.00  0.00    +0.000 A 
ATOM     18  C   UNL     1       5.483   5.657  16.682  0.00  0.00    +0.000 A 
ATOM     19  C   UNL     1       4.671   6.668  17.216  0.00  0.00    +0.000 A 
ENDBRANCH   2  14
BRANCH   1  21
ATOM     20  C   UNL     1       1.352   5.384  20.648  0.00  0.00    +0.000 C 
ATOM     21  C   UNL     1       2.321   6.561  20.680  0.00  0.00    +0.000 C 
ENDBRANCH   1  21
TORSDOF 2
ENDMDL
MODEL 4
REMARK VINA RESULT:      -7.6      4.510      8.003
REMARK  Name = 
REMARK  3 active torsions:
REMARK  status: ('A' for Active; 'I' for Inactive)
REMARK    1  A    between atoms: C_1  and  C_2
REMARK    2  A    between atoms: C_2  and  N_3
REMARK    3  A    between atoms: C_4  and  C_5
REMARK                            x       y       z     vdW  Elec       q    Type
REMARK                         _______ _______ _______ _____ _____    ______ ____
ROOT
ATOM      1  N   UNL     1       2.178   7.287  19.584  0.00  0.00    +0.000 N 
ATOM      2  C   UNL     1       2.720   7.176  18.296  0.00  0.00    +0.000 A 
ATOM      3  C   UNL     1       2.411   8.370  17.658  0.00  0.00    +0.000 A 
ATOM      4  C   UNL     1       1.688   9.189  18.544  0.00  0.00    +0.000 A 
ATOM      5  N   UNL     1       1.213  10.435  18.328  0.00  0.00    +0.000 NA
ATOM      6  N   UNL     1       0.569  11.047  19.303  0.00  0.00    +0.000 NA
ATOM      7  C   UNL     1       0.362  10.462  20.494  0.00  0.00    +0.000 A 
ATOM      8  C   UNL     1      -0.328  11.176  21.468  0.00  0.00    +0.000 A 
ATOM      9  C   UNL     1      -0.598  10.647  22.732  0.00  0.00    +0.000 A 
ATOM     10  C   UNL     1      -0.172   9.360  23.039  0.00  0.00    +0.000 A 
ATOM     11  C   UNL     1       0.527   8.619  22.087  0.00  0.00    +0.000 A 
ATOM     12  C   UNL     1       0.809   9.157  20.805  0.00  0.00    +0.000 A 
ATOM     13  C   UNL     1       1.525   8.510  19.749  0.00  0.00    +0.000 A 
ENDROOT
BRANCH   2  14
ATOM     14  C   UNL     1       3.522   6.052  17.749  0.00  0.00    +0.000 A 
ATOM     15  C   UNL     1       4.869   6.182  17.388  0.00  0.00    +0.000 A 
ATOM     16  C   UNL     1       5.592   5.133  16.816  0.00  0.00    +0.000 A 
ATOM     17  C   UNL     1       4.995   3.893  16.648  0.00  0.00    +0.000 A 
ATOM     18  C   UNL     1       3.676   3.712  17.054  0.00  0.00    +0.000 A 
ATOM     19  C   UNL     1       2.945   4.782  17.591  0.00  0.00    +0.000 A 
ENDBRANCH   2  14
BRANCH   1  21
ATOM     20  C   UNL     1       1.329   5.201  20.633  0.00  0.00    +0.000 C 
ATOM     21  C   UNL     1       2.370   6.315  20.652  0.00  0.00    +0.000 C 
ENDBRANCH   1  21
TORSDOF 2
ENDMDL
MODEL 5
REMARK VINA RESULT:      -7.5      1.674      6.896
REMARK  Name = 
REMARK  3 active torsions:
REMARK  status: ('A' for Active; 'I' for Inactive)
REMARK    1  A    between atoms: C_1  and  C_2
REMARK    2  A    between atoms: C_2  and  N_3
REMARK    3  A    between atoms: C_4  and  C_5
REMARK                            x       y       z     vdW  Elec       q    Type
REMARK                         _______ _______ _______ _____ _____    ______ ____
ROOT
ATOM      1  N   UNL     1       4.593   5.210  16.580  0.00  0.00    +0.000 N 
ATOM      2  C   UNL     1       5.094   4.162  15.795  0.00  0.00    +0.000 A 
ATOM      3  C   UNL     1       4.577   3.000  16.353  0.00  0.00    +0.000 A 
ATOM      4  C   UNL     1       3.780   3.339  17.461  0.00  0.00    +0.000 A 
ATOM      5  N   UNL     1       3.083   2.512  18.271  0.00  0.00    +0.000 NA
ATOM      6  N   UNL     1       2.376   3.034  19.256  0.00  0.00    +0.000 NA
ATOM      7  C   UNL     1       2.344   4.357  19.482  0.00  0.00    +0.000 A 
ATOM      8  C   UNL     1       1.575   4.826  20.542  0.00  0.00    +0.000 A 
ATOM      9  C   UNL     1       1.487   6.183  20.859  0.00  0.00    +0.000 A 
ATOM     10  C   UNL     1       2.192   7.109  20.100  0.00  0.00    +0.000 A 
ATOM     11  C   UNL     1       2.968   6.673  19.027  0.00  0.00    +0.000 A 
ATOM     12  C   UNL     1       3.053   5.296  18.698  0.00  0.00    +0.000 A 
ATOM     13  C   UNL     1       3.798   4.723  17.619  0.00  0.00    +0.000 A 
ENDROOT
BRANCH   2  14
ATOM     14  C   UNL     1       5.937   4.270  14.578  0.00  0.00    +0.000 A 
ATOM     15  C   UNL     1       7.120   5.020  14.534  0.00  0.00    +0.000 A 
ATOM     16  C   UNL     1       7.869   5.164  13.364  0.00  0.00    +0.000 A 
ATOM     17  C   UNL     1       7.481   4.501  12.210  0.00  0.00    +0.000 A 
ATOM     18  C   UNL     1       6.346   3.697  12.235  0.00  0.00    +0.000 A 
ATOM     19  C   UNL     1       5.578   3.589  13.404  0.00  0.00    +0.000 A 
ENDBRANCH   2  14
BRANCH   1  21
ATOM     20  C   UNL     1       5.930   7.249  17.059  0.00  0.00    +0.000 C 
ATOM     21  C   UNL     1       4.773   6.625  16.286  0.00  0.00    +0.000 C 
ENDBRANCH   1  21
TORSDOF 2
ENDMDL
MODEL 6
REMARK VINA RESULT:      -7.3      1.670      6.866
REMARK  Name = 
REMARK  3 active torsions:
REMARK  status: ('A' for Active; 'I' for Inactive)
REMARK    1  A    between atoms: C_1  and  C_2
REMARK    2  A    between atoms: C_2  and  N_3
REMARK    3  A    between atoms: C_4  and  C_5
REMARK                            x       y       z     vdW  Elec       q    Type
REMARK                         _______ _______ _______ _____ _____    ______ ____
ROOT
ATOM      1  N   UNL     1       4.566   5.199  16.578  0.00  0.00    +0.000 N 
ATOM      2  C   UNL     1       5.077   4.152  15.796  0.00  0.00    +0.000 A 
ATOM      3  C   UNL     1       4.590   2.986  16.370  0.00  0.00    +0.000 A 
ATOM      4  C   UNL     1       3.802   3.320  17.487  0.00  0.00    +0.000 A 
ATOM      5  N   UNL     1       3.132   2.488  18.313  0.00  0.00    +0.000 NA
ATOM      6  N   UNL     1       2.429   3.005  19.303  0.00  0.00    +0.000 NA
ATOM      7  C   UNL     1       2.374   4.330  19.518  0.00  0.00    +0.000 A 
ATOM      8  C   UNL     1       1.611   4.794  20.584  0.00  0.00    +0.000 A 
ATOM      9  C   UNL     1       1.502   6.152  20.890  0.00  0.00    +0.000 A 
ATOM     10  C   UNL     1       2.178   7.084  20.113  0.00  0.00    +0.000 A 
ATOM     11  C   UNL     1       2.948   6.653  19.033  0.00  0.00    +0.000 A 
ATOM     12  C   UNL     1       3.054   5.275  18.715  0.00  0.00    +0.000 A 
ATOM     13  C   UNL     1       3.796   4.706  17.631  0.00  0.00    +0.000 A 
ENDROOT
BRANCH   2  14
ATOM     14  C   UNL     1       5.902   4.266  14.565  0.00  0.00    +0.000 A 
ATOM     15  C   UNL     1       5.567   3.631  13.362  0.00  0.00    +0.000 A 
ATOM     16  C   UNL     1       6.386   3.696  12.233  0.00  0.00    +0.000 A 
ATOM     17  C   UNL     1       7.543   4.460  12.261  0.00  0.00    +0.000 A 
ATOM     18  C   UNL     1       7.872   5.155  13.420  0.00  0.00    +0.000 A 
ATOM     19  C   UNL     1       7.064   5.053  14.563  0.00  0.00    +0.000 A 
ENDBRANCH   2  14
BRANCH   1  21
ATOM     20  C   UNL     1       5.858   7.271  17.036  0.00  0.00    +0.000 C 
ATOM     21  C   UNL     1       4.715   6.614  16.269  0.00  0.00    +0.000 C 
ENDBRANCH   1  21
TORSDOF 2
ENDMDL
MODEL 7
REMARK VINA RESULT:      -7.1      4.535      7.209
REMARK  Name = 
REMARK  3 active torsions:
REMARK  status: ('A' for Active; 'I' for Inactive)
REMARK    1  A    between atoms: C_1  and  C_2
REMARK    2  A    between atoms: C_2  and  N_3
REMARK    3  A    between atoms: C_4  and  C_5
REMARK                            x       y       z     vdW  Elec       q    Type
REMARK                         _______ _______ _______ _____ _____    ______ ____
ROOT
ATOM      1  N   UNL     1       1.628   7.895  19.639  0.00  0.00    +0.000 N 
ATOM      2  C   UNL     1       1.807   8.894  18.671  0.00  0.00    +0.000 A 
ATOM      3  C   UNL     1       2.639   8.336  17.710  0.00  0.00    +0.000 A 
ATOM      4  C   UNL     1       2.963   7.021  18.092  0.00  0.00    +0.000 A 
ATOM      5  N   UNL     1       3.730   6.126  17.432  0.00  0.00    +0.000 NA
ATOM      6  N   UNL     1       3.900   4.927  17.956  0.00  0.00    +0.000 NA
ATOM      7  C   UNL     1       3.346   4.580  19.128  0.00  0.00    +0.000 A 
ATOM      8  C   UNL     1       3.575   3.296  19.611  0.00  0.00    +0.000 A 
ATOM      9  C   UNL     1       3.048   2.847  20.824  0.00  0.00    +0.000 A 
ATOM     10  C   UNL     1       2.267   3.706  21.588  0.00  0.00    +0.000 A 
ATOM     11  C   UNL     1       2.013   4.999  21.130  0.00  0.00    +0.000 A 
ATOM     12  C   UNL     1       2.541   5.453  19.895  0.00  0.00    +0.000 A 
ATOM     13  C   UNL     1       2.345   6.744  19.309  0.00  0.00    +0.000 A 
ENDROOT
BRANCH   2  14
ATOM     14  C   UNL     1       1.180  10.240  18.638  0.00  0.00    +0.000 A 
ATOM     15  C   UNL     1       1.921  11.428  18.706  0.00  0.00    +0.000 A 
ATOM     16  C   UNL     1       1.312  12.684  18.738  0.00  0.00    +0.000 A 
ATOM     17  C   UNL     1      -0.067  12.787  18.636  0.00  0.00    +0.000 A 
ATOM     18  C   UNL     1      -0.828  11.630  18.503  0.00  0.00    +0.000 A 
ATOM     19  C   UNL     1      -0.212  10.370  18.512  0.00  0.00    +0.000 A 
ENDBRANCH   2  14
BRANCH   1  21
ATOM     20  C   UNL     1       1.298   8.815  21.923  0.00  0.00    +0.000 C 
ATOM     21  C   UNL     1       0.722   7.994  20.775  0.00  0.00    +0.000 C 
ENDBRANCH   1  21
TORSDOF 2
ENDMDL
MODEL 8
REMARK VINA RESULT:      -7.0      4.580      7.229
REMARK  Name = 
REMARK  3 active torsions:
REMARK  status: ('A' for Active; 'I' for Inactive)
REMARK    1  A    between atoms: C_1  and  C_2
REMARK    2  A    between atoms: C_2  and  N_3
REMARK    3  A    between atoms: C_4  and  C_5
REMARK                            x       y       z     vdW  Elec       q    Type
REMARK                         _______ _______ _______ _____ _____    ______ ____
ROOT
ATOM      1  N   UNL     1       1.610   7.944  19.648  0.00  0.00    +0.000 N 
ATOM      2  C   UNL     1       1.783   8.953  18.689  0.00  0.00    +0.000 A 
ATOM      3  C   UNL     1       2.614   8.407  17.720  0.00  0.00    +0.000 A 
ATOM      4  C   UNL     1       2.944   7.089  18.089  0.00  0.00    +0.000 A 
ATOM      5  N   UNL     1       3.712   6.203  17.419  0.00  0.00    +0.000 NA
ATOM      6  N   UNL     1       3.888   5.000  17.931  0.00  0.00    +0.000 NA
ATOM      7  C   UNL     1       3.337   4.639  19.101  0.00  0.00    +0.000 A 
ATOM      8  C   UNL     1       3.572   3.352  19.571  0.00  0.00    +0.000 A 
ATOM      9  C   UNL     1       3.049   2.890  20.781  0.00  0.00    +0.000 A 
ATOM     10  C   UNL     1       2.268   3.739  21.555  0.00  0.00    +0.000 A 
ATOM     11  C   UNL     1       2.008   5.035  21.111  0.00  0.00    +0.000 A 
ATOM     12  C   UNL     1       2.532   5.503  19.879  0.00  0.00    +0.000 A 
ATOM     13  C   UNL     1       2.329   6.799  19.305  0.00  0.00    +0.000 A 
ENDROOT
BRANCH   2  14
ATOM     14  C   UNL     1       1.152  10.297  18.670  0.00  0.00    +0.000 A 
ATOM     15  C   UNL     1      -0.235  10.487  18.617  0.00  0.00    +0.000 A 
ATOM     16  C   UNL     1      -0.811  11.757  18.537  0.00  0.00    +0.000 A 
ATOM     17  C   UNL     1      -0.005  12.884  18.571  0.00  0.00    +0.000 A 
ATOM     18  C   UNL     1       1.373  12.733  18.686  0.00  0.00    +0.000 A 
ATOM     19  C   UNL     1       1.946  11.453  18.727  0.00  0.00    +0.000 A 
ENDBRANCH   2  14
BRANCH   1  21
ATOM     20  C   UNL     1       1.285   8.838  21.943  0.00  0.00    +0.000 C 
ATOM     21  C   UNL     1       0.706   8.029  20.787  0.00  0.00    +0.000 C 
ENDBRANCH   1  21
TORSDOF 2
ENDMDL
MODEL 9
REMARK VINA RESULT:      -6.9      3.819      5.689
REMARK  Name = 
REMARK  3 active torsions:
REMARK  status: ('A' for Active; 'I' for Inactive)
REMARK    1  A    between atoms: C_1  and  C_2
REMARK    2  A    between atoms: C_2  and  N_3
REMARK    3  A    between atoms: C_4  and  C_5
REMARK                            x       y       z     vdW  Elec       q    Type
REMARK                         _______ _______ _______ _____ _____    ______ ____
ROOT
ATOM      1  N   UNL     1       2.253   7.707  19.303  0.00  0.00    +0.000 N 
ATOM      2  C   UNL     1       1.450   7.584  20.446  0.00  0.00    +0.000 A 
ATOM      3  C   UNL     1       1.582   6.264  20.854  0.00  0.00    +0.000 A 
ATOM      4  C   UNL     1       2.447   5.595  19.968  0.00  0.00    +0.000 A 
ATOM      5  N   UNL     1       2.856   4.309  20.014  0.00  0.00    +0.000 NA
ATOM      6  N   UNL     1       3.691   3.873  19.089  0.00  0.00    +0.000 NA
ATOM      7  C   UNL     1       4.131   4.668  18.101  0.00  0.00    +0.000 A 
ATOM      8  C   UNL     1       5.010   4.132  17.166  0.00  0.00    +0.000 A 
ATOM      9  C   UNL     1       5.514   4.879  16.099  0.00  0.00    +0.000 A 
ATOM     10  C   UNL     1       5.129   6.206  15.952  0.00  0.00    +0.000 A 
ATOM     11  C   UNL     1       4.254   6.776  16.876  0.00  0.00    +0.000 A 
ATOM     12  C   UNL     1       3.747   6.022  17.964  0.00  0.00    +0.000 A 
ATOM     13  C   UNL     1       2.858   6.491  18.984  0.00  0.00    +0.000 A 
ENDROOT
BRANCH   2  14
ATOM     14  C   UNL     1       0.679   8.657  21.126  0.00  0.00    +0.000 A 
ATOM     15  C   UNL     1      -0.132   9.566  20.436  0.00  0.00    +0.000 A 
ATOM     16  C   UNL     1      -0.801  10.608  21.082  0.00  0.00    +0.000 A 
ATOM     17  C   UNL     1      -0.722  10.729  22.462  0.00  0.00    +0.000 A 
ATOM     18  C   UNL     1       0.025   9.804  23.185  0.00  0.00    +0.000 A 
ATOM     19  C   UNL     1       0.725   8.784  22.523  0.00  0.00    +0.000 A 
ENDBRANCH   2  14
BRANCH   1  21
ATOM     20  C   UNL     1       1.495   9.261  17.518  0.00  0.00    +0.000 C 
ATOM     21  C   UNL     1       2.519   8.958  18.607  0.00  0.00    +0.000 C 
ENDBRANCH   1  21
TORSDOF 2
ENDMDL
