MODEL 1
REMARK VINA RESULT:      -8.5      0.000      0.000
REMARK  Name = 
REMARK  7 active torsions:
REMARK  status: ('A' for Active; 'I' for Inactive)
REMARK    1  A    between atoms: C_4  and  C_5
REMARK    2  A    between atoms: C_4  and  C_26
REMARK    3  A    between atoms: C_7  and  N_8
REMARK    4  A    between atoms: C_9  and  C_11
REMARK    5  A    between atoms: C_14  and  O_15
REMARK    6  A    between atoms: O_15  and  C_16
REMARK    7  A    between atoms: C_16  and  C_17
REMARK                            x       y       z     vdW  Elec       q    Type
REMARK                         _______ _______ _______ _____ _____    ______ ____
ROOT
ATOM      1  C   UNL     1       3.328   5.672  18.569  0.00  0.00    +0.000 A 
ATOM      2  C   UNL     1       2.520   6.497  19.369  0.00  0.00    +0.000 A 
ATOM      3  C   UNL     1       2.232   7.828  19.040  0.00  0.00    +0.000 A 
ATOM      4  C   UNL     1       2.721   8.338  17.834  0.00  0.00    +0.000 A 
ATOM      5  C   UNL     1       3.510   7.535  17.007  0.00  0.00    +0.000 A 
ATOM      6  C   UNL     1       3.809   6.224  17.375  0.00  0.00    +0.000 A 
ATOM      7  F   UNL     1       4.589   5.500  16.559  0.00  0.00    +0.000 F 
ENDROOT
BRANCH   1  11
ATOM      8  N   UNL     1       0.891   3.135  20.958  0.00  0.00    +0.000 N 
ATOM      9  C   UNL     1       1.782   3.364  19.967  0.00  0.00    +0.000 C 
ATOM     10  N   UNL     1       2.939   3.869  20.181  0.00  0.00    +0.000 NA
ATOM     11  C   UNL     1       3.767   4.255  19.013  0.00  0.00    +0.000 C 
ATOM     12  C   UNL     1       3.611   3.246  17.884  0.00  0.00    +0.000 C 
ATOM     13  C   UNL     1       3.393   1.760  18.071  0.00  0.00    +0.000 C 
ATOM     14  C   UNL     1       2.244   2.665  17.714  0.00  0.00    +0.000 C 
ATOM     15  O   UNL     1       1.308   2.938  18.769  0.00  0.00    +0.000 OA
ATOM     16  H   UNL     1       1.317   3.085  21.874  0.00  0.00    +0.000 HD
ATOM     17  H   UNL     1       0.218   2.408  20.753  0.00  0.00    +0.000 HD
BRANCH  11  18
ATOM     18  C   UNL     1       5.267   4.275  19.435  0.00  0.00    +0.000 C 
ATOM     19  F   UNL     1       6.068   3.922  18.389  0.00  0.00    +0.000 F 
ATOM     20  F   UNL     1       5.648   5.539  19.779  0.00  0.00    +0.000 F 
ENDBRANCH  11  18
ENDBRANCH   1  11
BRANCH   3  21
ATOM     21  N   UNL     1       1.489   8.672  19.892  0.00  0.00    +0.000 N 
ATOM     22  C   UNL     1       0.564   9.629  19.494  0.00  0.00    +0.000 C 
ATOM     23  O   UNL     1       0.231   9.901  18.345  0.00  0.00    +0.000 OA
ATOM     24  H   UNL     1       1.555   8.521  20.896  0.00  0.00    +0.000 HD
BRANCH  22  25
ATOM     25  C   UNL     1      -0.113  10.347  20.606  0.00  0.00    +0.000 A 
ATOM     26  C   UNL     1       0.193  10.011  21.923  0.00  0.00    +0.000 A 
ATOM     27  N   UNL     1      -0.335  10.666  22.991  0.00  0.00    +0.000 NA
ATOM     28  C   UNL     1      -1.190  11.663  22.679  0.00  0.00    +0.000 A 
ATOM     29  C   UNL     1      -1.523  11.972  21.363  0.00  0.00    +0.000 A 
ATOM     30  N   UNL     1      -0.987  11.341  20.285  0.00  0.00    +0.000 NA
BRANCH  28  31
ATOM     31  O   UNL     1      -1.805  12.387  23.671  0.00  0.00    +0.000 OA
BRANCH  31  32
ATOM     32  C   UNL     1      -3.231  12.296  23.639  0.00  0.00    +0.000 C 
BRANCH  32  33
ATOM     33  C   UNL     1      -3.764  13.468  24.414  0.00  0.00    +0.000 C 
ATOM     34  C   UNL     1      -3.389  14.881  24.048  0.00  0.00    +0.000 C 
ATOM     35  C   UNL     1      -4.792  14.393  23.811  0.00  0.00    +0.000 C 
ENDBRANCH  32  33
ENDBRANCH  31  32
ENDBRANCH  28  31
ENDBRANCH  22  25
ENDBRANCH   3  21
TORSDOF 7
ENDMDL
MODEL 2
REMARK VINA RESULT:      -8.3      2.405      3.428
REMARK  Name = 
REMARK  7 active torsions:
REMARK  status: ('A' for Active; 'I' for Inactive)
REMARK    1  A    between atoms: C_4  and  C_5
REMARK    2  A    between atoms: C_4  and  C_26
REMARK    3  A    between atoms: C_7  and  N_8
REMARK    4  A    between atoms: C_9  and  C_11
REMARK    5  A    between atoms: C_14  and  O_15
REMARK    6  A    between atoms: O_15  and  C_16
REMARK    7  A    between atoms: C_16  and  C_17
REMARK                            x       y       z     vdW  Elec       q    Type
REMARK                         _______ _______ _______ _____ _____    ______ ____
ROOT
ATOM      1  C   UNL     1       4.575   4.978  18.587  0.00  0.00    +0.000 A 
ATOM      2  C   UNL     1       3.919   5.972  19.333  0.00  0.00    +0.000 A 
ATOM      3  C   UNL     1       2.590   5.853  19.756  0.00  0.00    +0.000 A 
ATOM      4  C   UNL     1       1.905   4.667  19.475  0.00  0.00    +0.000 A 
ATOM      5  C   UNL     1       2.535   3.652  18.753  0.00  0.00    +0.000 A 
ATOM      6  C   UNL     1       3.850   3.811  18.315  0.00  0.00    +0.000 A 
ATOM      7  F   UNL     1       4.404   2.817  17.606  0.00  0.00    +0.000 F 
ENDROOT
BRANCH   1  11
ATOM      8  N   UNL     1       5.412   4.613  14.434  0.00  0.00    +0.000 N 
ATOM      9  C   UNL     1       5.581   5.178  15.651  0.00  0.00    +0.000 C 
ATOM     10  N   UNL     1       6.019   4.525  16.662  0.00  0.00    +0.000 NA
ATOM     11  C   UNL     1       5.990   5.181  17.992  0.00  0.00    +0.000 C 
ATOM     12  C   UNL     1       6.337   6.657  17.873  0.00  0.00    +0.000 C 
ATOM     13  C   UNL     1       7.312   7.244  16.875  0.00  0.00    +0.000 C 
ATOM     14  C   UNL     1       5.828   7.351  16.650  0.00  0.00    +0.000 C 
ATOM     15  O   UNL     1       5.285   6.502  15.626  0.00  0.00    +0.000 OA
ATOM     16  H   UNL     1       5.951   3.766  14.310  0.00  0.00    +0.000 HD
ATOM     17  H   UNL     1       5.450   5.267  13.663  0.00  0.00    +0.000 HD
BRANCH  11  18
ATOM     18  C   UNL     1       7.052   4.510  18.915  0.00  0.00    +0.000 C 
ATOM     19  F   UNL     1       8.209   4.279  18.230  0.00  0.00    +0.000 F 
ATOM     20  F   UNL     1       7.391   5.347  19.937  0.00  0.00    +0.000 F 
ENDBRANCH  11  18
ENDBRANCH   1  11
BRANCH   3  21
ATOM     21  N   UNL     1       1.917   6.892  20.431  0.00  0.00    +0.000 N 
ATOM     22  C   UNL     1       1.640   8.155  19.923  0.00  0.00    +0.000 C 
ATOM     23  O   UNL     1       1.925   8.581  18.808  0.00  0.00    +0.000 OA
ATOM     24  H   UNL     1       1.508   6.690  21.340  0.00  0.00    +0.000 HD
BRANCH  22  25
ATOM     25  C   UNL     1       0.871   9.043  20.834  0.00  0.00    +0.000 A 
ATOM     26  C   UNL     1       1.125   9.003  22.203  0.00  0.00    +0.000 A 
ATOM     27  N   UNL     1       0.510   9.830  23.090  0.00  0.00    +0.000 NA
ATOM     28  C   UNL     1      -0.378  10.687  22.546  0.00  0.00    +0.000 A 
ATOM     29  C   UNL     1      -0.657  10.701  21.182  0.00  0.00    +0.000 A 
ATOM     30  N   UNL     1      -0.035   9.896  20.280  0.00  0.00    +0.000 NA
BRANCH  28  31
ATOM     31  O   UNL     1      -1.079  11.561  23.340  0.00  0.00    +0.000 OA
BRANCH  31  32
ATOM     32  C   UNL     1      -2.236  12.106  22.701  0.00  0.00    +0.000 C 
BRANCH  32  33
ATOM     33  C   UNL     1      -3.277  12.298  23.767  0.00  0.00    +0.000 C 
ATOM     34  C   UNL     1      -3.560  13.660  24.346  0.00  0.00    +0.000 C 
ATOM     35  C   UNL     1      -4.579  12.997  23.462  0.00  0.00    +0.000 C 
ENDBRANCH  32  33
ENDBRANCH  31  32
ENDBRANCH  28  31
ENDBRANCH  22  25
ENDBRANCH   3  21
TORSDOF 7
ENDMDL
MODEL 3
REMARK VINA RESULT:      -8.1      1.012      1.354
REMARK  Name = 
REMARK  7 active torsions:
REMARK  status: ('A' for Active; 'I' for Inactive)
REMARK    1  A    between atoms: C_4  and  C_5
REMARK    2  A    between atoms: C_4  and  C_26
REMARK    3  A    between atoms: C_7  and  N_8
REMARK    4  A    between atoms: C_9  and  C_11
REMARK    5  A    between atoms: C_14  and  O_15
REMARK    6  A    between atoms: O_15  and  C_16
REMARK    7  A    between atoms: C_16  and  C_17
REMARK                            x       y       z     vdW  Elec       q    Type
REMARK                         _______ _______ _______ _____ _____    ______ ____
ROOT
ATOM      1  C   UNL     1       3.411   5.705  18.413  0.00  0.00    +0.000 A 
ATOM      2  C   UNL     1       2.536   6.539  19.129  0.00  0.00    +0.000 A 
ATOM      3  C   UNL     1       2.283   7.867  18.764  0.00  0.00    +0.000 A 
ATOM      4  C   UNL     1       2.881   8.365  17.603  0.00  0.00    +0.000 A 
ATOM      5  C   UNL     1       3.740   7.554  16.858  0.00  0.00    +0.000 A 
ATOM      6  C   UNL     1       4.001   6.246  17.263  0.00  0.00    +0.000 A 
ATOM      7  F   UNL     1       4.850   5.514  16.527  0.00  0.00    +0.000 F 
ENDROOT
BRANCH   1  11
ATOM      8  N   UNL     1       0.811   3.251  20.713  0.00  0.00    +0.000 N 
ATOM      9  C   UNL     1       1.758   3.447  19.769  0.00  0.00    +0.000 C 
ATOM     10  N   UNL     1       2.909   3.941  20.036  0.00  0.00    +0.000 NA
ATOM     11  C   UNL     1       3.805   4.292  18.907  0.00  0.00    +0.000 C 
ATOM     12  C   UNL     1       3.695   3.263  17.792  0.00  0.00    +0.000 C 
ATOM     13  C   UNL     1       3.445   1.784  17.994  0.00  0.00    +0.000 C 
ATOM     14  C   UNL     1       2.331   2.697  17.558  0.00  0.00    +0.000 C 
ATOM     15  O   UNL     1       1.344   3.003  18.555  0.00  0.00    +0.000 OA
ATOM     16  H   UNL     1       1.186   3.213  21.652  0.00  0.00    +0.000 HD
ATOM     17  H   UNL     1       0.140   2.529  20.486  0.00  0.00    +0.000 HD
BRANCH  11  18
ATOM     18  C   UNL     1       5.280   4.299  19.410  0.00  0.00    +0.000 C 
ATOM     19  F   UNL     1       6.128   3.883  18.427  0.00  0.00    +0.000 F 
ATOM     20  F   UNL     1       5.671   5.569  19.719  0.00  0.00    +0.000 F 
ENDBRANCH  11  18
ENDBRANCH   1  11
BRANCH   3  21
ATOM     21  N   UNL     1       1.468   8.720  19.537  0.00  0.00    +0.000 N 
ATOM     22  C   UNL     1       1.072   8.505  20.852  0.00  0.00    +0.000 C 
ATOM     23  O   UNL     1       1.363   7.549  21.564  0.00  0.00    +0.000 OA
ATOM     24  H   UNL     1       1.211   9.623  19.148  0.00  0.00    +0.000 HD
BRANCH  22  25
ATOM     25  C   UNL     1       0.252   9.593  21.446  0.00  0.00    +0.000 A 
ATOM     26  C   UNL     1      -0.111  10.683  20.658  0.00  0.00    +0.000 A 
ATOM     27  N   UNL     1      -0.913  11.683  21.110  0.00  0.00    +0.000 NA
ATOM     28  C   UNL     1      -1.324  11.548  22.388  0.00  0.00    +0.000 A 
ATOM     29  C   UNL     1      -0.931  10.476  23.185  0.00  0.00    +0.000 A 
ATOM     30  N   UNL     1      -0.147   9.457  22.741  0.00  0.00    +0.000 NA
BRANCH  28  31
ATOM     31  O   UNL     1      -2.124  12.503  22.967  0.00  0.00    +0.000 OA
BRANCH  31  32
ATOM     32  C   UNL     1      -3.270  12.835  22.180  0.00  0.00    +0.000 C 
BRANCH  32  33
ATOM     33  C   UNL     1      -4.449  12.863  23.111  0.00  0.00    +0.000 C 
ATOM     34  C   UNL     1      -4.295  12.541  24.575  0.00  0.00    +0.000 C 
ATOM     35  C   UNL     1      -4.594  13.951  24.146  0.00  0.00    +0.000 C 
ENDBRANCH  32  33
ENDBRANCH  31  32
ENDBRANCH  28  31
ENDBRANCH  22  25
ENDBRANCH   3  21
TORSDOF 7
ENDMDL
MODEL 4
REMARK VINA RESULT:      -8.0      2.238      2.862
REMARK  Name = 
REMARK  7 active torsions:
REMARK  status: ('A' for Active; 'I' for Inactive)
REMARK    1  A    between atoms: C_4  and  C_5
REMARK    2  A    between atoms: C_4  and  C_26
REMARK    3  A    between atoms: C_7  and  N_8
REMARK    4  A    between atoms: C_9  and  C_11
REMARK    5  A    between atoms: C_14  and  O_15
REMARK    6  A    between atoms: O_15  and  C_16
REMARK    7  A    between atoms: C_16  and  C_17
REMARK                            x       y       z     vdW  Elec       q    Type
REMARK                         _______ _______ _______ _____ _____    ______ ____
ROOT
ATOM      1  C   UNL     1       2.643   4.677  18.517  0.00  0.00    +0.000 A 
ATOM      2  C   UNL     1       2.181   5.903  19.024  0.00  0.00    +0.000 A 
ATOM      3  C   UNL     1       2.729   7.136  18.651  0.00  0.00    +0.000 A 
ATOM      4  C   UNL     1       3.741   7.151  17.687  0.00  0.00    +0.000 A 
ATOM      5  C   UNL     1       4.208   5.950  17.147  0.00  0.00    +0.000 A 
ATOM      6  C   UNL     1       3.666   4.734  17.562  0.00  0.00    +0.000 A 
ATOM      7  F   UNL     1       4.163   3.607  17.032  0.00  0.00    +0.000 F 
ENDROOT
BRANCH   1  11
ATOM      8  N   UNL     1       5.167   1.887  20.496  0.00  0.00    +0.000 N 
ATOM      9  C   UNL     1       3.989   2.523  20.311  0.00  0.00    +0.000 C 
ATOM     10  N   UNL     1       3.318   2.432  19.224  0.00  0.00    +0.000 NA
ATOM     11  C   UNL     1       2.138   3.313  19.047  0.00  0.00    +0.000 C 
ATOM     12  C   UNL     1       1.382   3.471  20.358  0.00  0.00    +0.000 C 
ATOM     13  C   UNL     1       1.246   2.400  21.418  0.00  0.00    +0.000 C 
ATOM     14  C   UNL     1       2.223   3.531  21.593  0.00  0.00    +0.000 C 
ATOM     15  O   UNL     1       3.610   3.196  21.426  0.00  0.00    +0.000 OA
ATOM     16  H   UNL     1       5.302   1.106  19.868  0.00  0.00    +0.000 HD
ATOM     17  H   UNL     1       5.395   1.707  21.465  0.00  0.00    +0.000 HD
BRANCH  11  18
ATOM     18  C   UNL     1       1.170   2.668  18.009  0.00  0.00    +0.000 C 
ATOM     19  F   UNL     1       1.783   1.643  17.350  0.00  0.00    +0.000 F 
ATOM     20  F   UNL     1       0.099   2.109  18.642  0.00  0.00    +0.000 F 
ENDBRANCH  11  18
ENDBRANCH   1  11
BRANCH   3  21
ATOM     21  N   UNL     1       2.314   8.353  19.230  0.00  0.00    +0.000 N 
ATOM     22  C   UNL     1       1.437   9.272  18.666  0.00  0.00    +0.000 C 
ATOM     23  O   UNL     1       0.871   9.182  17.581  0.00  0.00    +0.000 OA
ATOM     24  H   UNL     1       2.600   8.554  20.185  0.00  0.00    +0.000 HD
BRANCH  22  25
ATOM     25  C   UNL     1       1.132  10.452  19.517  0.00  0.00    +0.000 A 
ATOM     26  C   UNL     1       0.739  10.257  20.839  0.00  0.00    +0.000 A 
ATOM     27  N   UNL     1       0.508  11.286  21.697  0.00  0.00    +0.000 NA
ATOM     28  C   UNL     1       0.674  12.516  21.167  0.00  0.00    +0.000 A 
ATOM     29  C   UNL     1       1.031  12.708  19.835  0.00  0.00    +0.000 A 
ATOM     30  N   UNL     1       1.288  11.690  18.971  0.00  0.00    +0.000 NA
BRANCH  28  31
ATOM     31  O   UNL     1       0.452  13.638  21.927  0.00  0.00    +0.000 OA
BRANCH  31  32
ATOM     32  C   UNL     1      -0.934  13.959  22.071  0.00  0.00    +0.000 C 
BRANCH  32  33
ATOM     33  C   UNL     1      -1.268  13.821  23.530  0.00  0.00    +0.000 C 
ATOM     34  C   UNL     1      -1.594  15.026  24.373  0.00  0.00    +0.000 C 
ATOM     35  C   UNL     1      -2.675  14.040  24.027  0.00  0.00    +0.000 C 
ENDBRANCH  32  33
ENDBRANCH  31  32
ENDBRANCH  28  31
ENDBRANCH  22  25
ENDBRANCH   3  21
TORSDOF 7
ENDMDL
MODEL 5
REMARK VINA RESULT:      -7.9      3.932     10.295
REMARK  Name = 
REMARK  7 active torsions:
REMARK  status: ('A' for Active; 'I' for Inactive)
REMARK    1  A    between atoms: C_4  and  C_5
REMARK    2  A    between atoms: C_4  and  C_26
REMARK    3  A    between atoms: C_7  and  N_8
REMARK    4  A    between atoms: C_9  and  C_11
REMARK    5  A    between atoms: C_14  and  O_15
REMARK    6  A    between atoms: O_15  and  C_16
REMARK    7  A    between atoms: C_16  and  C_17
REMARK                            x       y       z     vdW  Elec       q    Type
REMARK                         _______ _______ _______ _____ _____    ______ ____
ROOT
ATOM      1  C   UNL     1       0.275  10.851  20.549  0.00  0.00    +0.000 A 
ATOM      2  C   UNL     1       0.947   9.944  19.713  0.00  0.00    +0.000 A 
ATOM      3  C   UNL     1       1.399   8.695  20.154  0.00  0.00    +0.000 A 
ATOM      4  C   UNL     1       1.118   8.309  21.467  0.00  0.00    +0.000 A 
ATOM      5  C   UNL     1       0.434   9.180  22.318  0.00  0.00    +0.000 A 
ATOM      6  C   UNL     1       0.023  10.432  21.862  0.00  0.00    +0.000 A 
ATOM      7  F   UNL     1      -0.610  11.242  22.723  0.00  0.00    +0.000 F 
ENDROOT
BRANCH   1  11
ATOM      8  N   UNL     1      -1.704  11.701  16.883  0.00  0.00    +0.000 N 
ATOM      9  C   UNL     1      -1.456  11.915  18.195  0.00  0.00    +0.000 C 
ATOM     10  N   UNL     1      -0.304  12.262  18.634  0.00  0.00    +0.000 NA
ATOM     11  C   UNL     1      -0.086  12.288  20.101  0.00  0.00    +0.000 C 
ATOM     12  C   UNL     1      -1.324  12.800  20.821  0.00  0.00    +0.000 C 
ATOM     13  C   UNL     1      -2.273  13.849  20.281  0.00  0.00    +0.000 C 
ATOM     14  C   UNL     1      -2.637  12.390  20.234  0.00  0.00    +0.000 C 
ATOM     15  O   UNL     1      -2.581  11.770  18.940  0.00  0.00    +0.000 OA
ATOM     16  H   UNL     1      -1.028  12.143  16.273  0.00  0.00    +0.000 HD
ATOM     17  H   UNL     1      -2.672  11.823  16.617  0.00  0.00    +0.000 HD
BRANCH  11  18
ATOM     18  C   UNL     1       1.093  13.255  20.424  0.00  0.00    +0.000 C 
ATOM     19  F   UNL     1       0.768  14.082  21.459  0.00  0.00    +0.000 F 
ATOM     20  F   UNL     1       2.183  12.552  20.844  0.00  0.00    +0.000 F 
ENDBRANCH  11  18
ENDBRANCH   1  11
BRANCH   3  21
ATOM     21  N   UNL     1       2.146   7.828  19.328  0.00  0.00    +0.000 N 
ATOM     22  C   UNL     1       2.359   6.472  19.544  0.00  0.00    +0.000 C 
ATOM     23  O   UNL     1       1.934   5.797  20.477  0.00  0.00    +0.000 OA
ATOM     24  H   UNL     1       2.493   8.187  18.443  0.00  0.00    +0.000 HD
BRANCH  22  25
ATOM     25  C   UNL     1       3.145   5.784  18.487  0.00  0.00    +0.000 A 
ATOM     26  C   UNL     1       4.132   6.490  17.802  0.00  0.00    +0.000 A 
ATOM     27  N   UNL     1       4.936   5.913  16.869  0.00  0.00    +0.000 NA
ATOM     28  C   UNL     1       4.698   4.603  16.646  0.00  0.00    +0.000 A 
ATOM     29  C   UNL     1       3.687   3.909  17.306  0.00  0.00    +0.000 A 
ATOM     30  N   UNL     1       2.890   4.467  18.256  0.00  0.00    +0.000 NA
BRANCH  28  31
ATOM     31  O   UNL     1       5.431   3.912  15.713  0.00  0.00    +0.000 OA
BRANCH  31  32
ATOM     32  C   UNL     1       5.612   4.629  14.489  0.00  0.00    +0.000 C 
BRANCH  32  33
ATOM     33  C   UNL     1       6.232   3.675  13.509  0.00  0.00    +0.000 C 
ATOM     34  C   UNL     1       5.530   3.304  12.228  0.00  0.00    +0.000 C 
ATOM     35  C   UNL     1       6.764   4.162  12.184  0.00  0.00    +0.000 C 
ENDBRANCH  32  33
ENDBRANCH  31  32
ENDBRANCH  28  31
ENDBRANCH  22  25
ENDBRANCH   3  21
TORSDOF 7
ENDMDL
MODEL 6
REMARK VINA RESULT:      -7.9      2.685      3.965
REMARK  Name = 
REMARK  7 active torsions:
REMARK  status: ('A' for Active; 'I' for Inactive)
REMARK    1  A    between atoms: C_4  and  C_5
REMARK    2  A    between atoms: C_4  and  C_26
REMARK    3  A    between atoms: C_7  and  N_8
REMARK    4  A    between atoms: C_9  and  C_11
REMARK    5  A    between atoms: C_14  and  O_15
REMARK    6  A    between atoms: O_15  and  C_16
REMARK    7  A    between atoms: C_16  and  C_17
REMARK                            x       y       z     vdW  Elec       q    Type
REMARK                         _______ _______ _______ _____ _____    ______ ____
ROOT
ATOM      1  C   UNL     1       4.253   5.576  18.374  0.00  0.00    +0.000 A 
ATOM      2  C   UNL     1       3.577   6.801  18.500  0.00  0.00    +0.000 A 
ATOM      3  C   UNL     1       2.506   6.991  19.381  0.00  0.00    +0.000 A 
ATOM      4  C   UNL     1       2.132   5.933  20.214  0.00  0.00    +0.000 A 
ATOM      5  C   UNL     1       2.798   4.708  20.127  0.00  0.00    +0.000 A 
ATOM      6  C   UNL     1       3.840   4.536  19.217  0.00  0.00    +0.000 A 
ATOM      7  F   UNL     1       4.433   3.336  19.155  0.00  0.00    +0.000 F 
ENDROOT
BRANCH   1  11
ATOM      8  N   UNL     1       7.193   8.466  17.333  0.00  0.00    +0.000 N 
ATOM      9  C   UNL     1       6.775   7.199  17.549  0.00  0.00    +0.000 C 
ATOM     10  N   UNL     1       5.849   6.648  16.857  0.00  0.00    +0.000 NA
ATOM     11  C   UNL     1       5.332   5.328  17.292  0.00  0.00    +0.000 C 
ATOM     12  C   UNL     1       6.461   4.456  17.822  0.00  0.00    +0.000 C 
ATOM     13  C   UNL     1       7.883   4.465  17.305  0.00  0.00    +0.000 C 
ATOM     14  C   UNL     1       7.529   5.167  18.589  0.00  0.00    +0.000 C 
ATOM     15  O   UNL     1       7.496   6.602  18.531  0.00  0.00    +0.000 OA
ATOM     16  H   UNL     1       6.962   8.809  16.410  0.00  0.00    +0.000 HD
ATOM     17  H   UNL     1       8.139   8.650  17.639  0.00  0.00    +0.000 HD
BRANCH  11  18
ATOM     18  C   UNL     1       4.697   4.600  16.068  0.00  0.00    +0.000 C 
ATOM     19  F   UNL     1       5.215   5.077  14.900  0.00  0.00    +0.000 F 
ATOM     20  F   UNL     1       5.007   3.272  16.092  0.00  0.00    +0.000 F 
ENDBRANCH  11  18
ENDBRANCH   1  11
BRANCH   3  21
ATOM     21  N   UNL     1       1.782   8.200  19.439  0.00  0.00    +0.000 N 
ATOM     22  C   UNL     1       1.618   9.108  18.400  0.00  0.00    +0.000 C 
ATOM     23  O   UNL     1       2.064   9.014  17.261  0.00  0.00    +0.000 OA
ATOM     24  H   UNL     1       1.248   8.401  20.281  0.00  0.00    +0.000 HD
BRANCH  22  25
ATOM     25  C   UNL     1       0.761  10.280  18.720  0.00  0.00    +0.000 A 
ATOM     26  C   UNL     1      -0.577  10.273  18.333  0.00  0.00    +0.000 A 
ATOM     27  N   UNL     1      -1.439  11.277  18.647  0.00  0.00    +0.000 NA
ATOM     28  C   UNL     1      -0.895  12.292  19.353  0.00  0.00    +0.000 A 
ATOM     29  C   UNL     1       0.452  12.313  19.706  0.00  0.00    +0.000 A 
ATOM     30  N   UNL     1       1.319  11.307  19.418  0.00  0.00    +0.000 NA
BRANCH  28  31
ATOM     31  O   UNL     1      -1.658  13.375  19.714  0.00  0.00    +0.000 OA
BRANCH  31  32
ATOM     32  C   UNL     1      -1.695  13.597  21.126  0.00  0.00    +0.000 C 
BRANCH  32  33
ATOM     33  C   UNL     1      -2.653  12.595  21.704  0.00  0.00    +0.000 C 
ATOM     34  C   UNL     1      -2.487  12.076  23.109  0.00  0.00    +0.000 C 
ATOM     35  C   UNL     1      -3.634  12.991  22.779  0.00  0.00    +0.000 C 
ENDBRANCH  32  33
ENDBRANCH  31  32
ENDBRANCH  28  31
ENDBRANCH  22  25
ENDBRANCH   3  21
TORSDOF 7
ENDMDL
MODEL 7
REMARK VINA RESULT:      -7.9      0.801      1.187
REMARK  Name = 
REMARK  7 active torsions:
REMARK  status: ('A' for Active; 'I' for Inactive)
REMARK    1  A    between atoms: C_4  and  C_5
REMARK    2  A    between atoms: C_4  and  C_26
REMARK    3  A    between atoms: C_7  and  N_8
REMARK    4  A    between atoms: C_9  and  C_11
REMARK    5  A    between atoms: C_14  and  O_15
REMARK    6  A    between atoms: O_15  and  C_16
REMARK    7  A    between atoms: C_16  and  C_17
REMARK                            x       y       z     vdW  Elec       q    Type
REMARK                         _______ _______ _______ _____ _____    ______ ____
ROOT
ATOM      1  C   UNL     1       3.218   5.712  18.619  0.00  0.00    +0.000 A 
ATOM      2  C   UNL     1       2.390   6.502  19.434  0.00  0.00    +0.000 A 
ATOM      3  C   UNL     1       2.141   7.856  19.180  0.00  0.00    +0.000 A 
ATOM      4  C   UNL     1       2.694   8.432  18.032  0.00  0.00    +0.000 A 
ATOM      5  C   UNL     1       3.505   7.667  17.190  0.00  0.00    +0.000 A 
ATOM      6  C   UNL     1       3.763   6.329  17.486  0.00  0.00    +0.000 A 
ATOM      7  F   UNL     1       4.567   5.643  16.660  0.00  0.00    +0.000 F 
ENDROOT
BRANCH   1  11
ATOM      8  N   UNL     1       0.625   3.077  20.719  0.00  0.00    +0.000 N 
ATOM      9  C   UNL     1       1.567   3.350  19.789  0.00  0.00    +0.000 C 
ATOM     10  N   UNL     1       2.721   3.818  20.090  0.00  0.00    +0.000 NA
ATOM     11  C   UNL     1       3.612   4.261  18.990  0.00  0.00    +0.000 C 
ATOM     12  C   UNL     1       3.493   3.331  17.792  0.00  0.00    +0.000 C 
ATOM     13  C   UNL     1       3.241   1.841  17.870  0.00  0.00    +0.000 C 
ATOM     14  C   UNL     1       2.127   2.789  17.519  0.00  0.00    +0.000 C 
ATOM     15  O   UNL     1       1.145   3.012  18.544  0.00  0.00    +0.000 OA
ATOM     16  H   UNL     1       1.006   2.959  21.649  0.00  0.00    +0.000 HD
ATOM     17  H   UNL     1      -0.048   2.378  20.435  0.00  0.00    +0.000 HD
BRANCH  11  18
ATOM     18  C   UNL     1       5.090   4.224  19.483  0.00  0.00    +0.000 C 
ATOM     19  F   UNL     1       5.318   3.111  20.238  0.00  0.00    +0.000 F 
ATOM     20  F   UNL     1       5.943   4.130  18.423  0.00  0.00    +0.000 F 
ENDBRANCH  11  18
ENDBRANCH   1  11
BRANCH   3  21
ATOM     21  N   UNL     1       1.376   8.660  20.050  0.00  0.00    +0.000 N 
ATOM     22  C   UNL     1       0.493   9.665  19.675  0.00  0.00    +0.000 C 
ATOM     23  O   UNL     1       0.224  10.022  18.532  0.00  0.00    +0.000 OA
ATOM     24  H   UNL     1       1.387   8.439  21.043  0.00  0.00    +0.000 HD
BRANCH  22  25
ATOM     25  C   UNL     1      -0.223  10.324  20.799  0.00  0.00    +0.000 A 
ATOM     26  C   UNL     1      -0.999  11.453  20.546  0.00  0.00    +0.000 A 
ATOM     27  N   UNL     1      -1.734  12.070  21.509  0.00  0.00    +0.000 NA
ATOM     28  C   UNL     1      -1.647  11.513  22.735  0.00  0.00    +0.000 A 
ATOM     29  C   UNL     1      -0.842  10.407  22.992  0.00  0.00    +0.000 A 
ATOM     30  N   UNL     1      -0.118   9.766  22.037  0.00  0.00    +0.000 NA
BRANCH  28  31
ATOM     31  O   UNL     1      -2.329  12.057  23.796  0.00  0.00    +0.000 OA
BRANCH  31  32
ATOM     32  C   UNL     1      -3.040  13.251  23.461  0.00  0.00    +0.000 C 
BRANCH  32  33
ATOM     33  C   UNL     1      -4.498  12.975  23.696  0.00  0.00    +0.000 C 
ATOM     34  C   UNL     1      -5.522  14.078  23.632  0.00  0.00    +0.000 C 
ATOM     35  C   UNL     1      -5.489  13.025  22.560  0.00  0.00    +0.000 C 
ENDBRANCH  32  33
ENDBRANCH  31  32
ENDBRANCH  28  31
ENDBRANCH  22  25
ENDBRANCH   3  21
TORSDOF 7
ENDMDL
MODEL 8
REMARK VINA RESULT:      -7.8      0.852      1.184
REMARK  Name = 
REMARK  7 active torsions:
REMARK  status: ('A' for Active; 'I' for Inactive)
REMARK    1  A    between atoms: C_4  and  C_5
REMARK    2  A    between atoms: C_4  and  C_26
REMARK    3  A    between atoms: C_7  and  N_8
REMARK    4  A    between atoms: C_9  and  C_11
REMARK    5  A    between atoms: C_14  and  O_15
REMARK    6  A    between atoms: O_15  and  C_16
REMARK    7  A    between atoms: C_16  and  C_17
REMARK                            x       y       z     vdW  Elec       q    Type
REMARK                         _______ _______ _______ _____ _____    ______ ____
ROOT
ATOM      1  C   UNL     1       3.204   5.745  18.545  0.00  0.00    +0.000 A 
ATOM      2  C   UNL     1       2.381   6.567  19.332  0.00  0.00    +0.000 A 
ATOM      3  C   UNL     1       2.189   7.929  19.067  0.00  0.00    +0.000 A 
ATOM      4  C   UNL     1       2.796   8.480  17.936  0.00  0.00    +0.000 A 
ATOM      5  C   UNL     1       3.605   7.684  17.120  0.00  0.00    +0.000 A 
ATOM      6  C   UNL     1       3.805   6.338  17.427  0.00  0.00    +0.000 A 
ATOM      7  F   UNL     1       4.607   5.621  16.627  0.00  0.00    +0.000 F 
ENDROOT
BRANCH   1  11
ATOM      8  N   UNL     1       0.367   3.129  20.330  0.00  0.00    +0.000 N 
ATOM      9  C   UNL     1       1.403   3.398  19.504  0.00  0.00    +0.000 C 
ATOM     10  N   UNL     1       2.528   3.840  19.927  0.00  0.00    +0.000 NA
ATOM     11  C   UNL     1       3.533   4.282  18.930  0.00  0.00    +0.000 C 
ATOM     12  C   UNL     1       3.520   3.371  17.711  0.00  0.00    +0.000 C 
ATOM     13  C   UNL     1       3.236   1.885  17.740  0.00  0.00    +0.000 C 
ATOM     14  C   UNL     1       2.179   2.859  17.294  0.00  0.00    +0.000 C 
ATOM     15  O   UNL     1       1.103   3.086  18.218  0.00  0.00    +0.000 OA
ATOM     16  H   UNL     1       0.650   2.992  21.292  0.00  0.00    +0.000 HD
ATOM     17  H   UNL     1      -0.286   2.447  19.970  0.00  0.00    +0.000 HD
BRANCH  11  18
ATOM     18  C   UNL     1       4.953   4.210  19.569  0.00  0.00    +0.000 C 
ATOM     19  F   UNL     1       5.122   3.033  20.236  0.00  0.00    +0.000 F 
ATOM     20  F   UNL     1       5.912   4.224  18.599  0.00  0.00    +0.000 F 
ENDBRANCH  11  18
ENDBRANCH   1  11
BRANCH   3  21
ATOM     21  N   UNL     1       1.428   8.762  19.913  0.00  0.00    +0.000 N 
ATOM     22  C   UNL     1       0.449   9.663  19.511  0.00  0.00    +0.000 C 
ATOM     23  O   UNL     1       0.077   9.885  18.363  0.00  0.00    +0.000 OA
ATOM     24  H   UNL     1       1.524   8.644  20.918  0.00  0.00    +0.000 HD
BRANCH  22  25
ATOM     25  C   UNL     1      -0.235  10.382  20.618  0.00  0.00    +0.000 A 
ATOM     26  C   UNL     1      -0.955  11.541  20.338  0.00  0.00    +0.000 A 
ATOM     27  N   UNL     1      -1.661  12.215  21.284  0.00  0.00    +0.000 NA
ATOM     28  C   UNL     1      -1.602  11.683  22.523  0.00  0.00    +0.000 A 
ATOM     29  C   UNL     1      -0.851  10.546  22.808  0.00  0.00    +0.000 A 
ATOM     30  N   UNL     1      -0.158   9.849  21.869  0.00  0.00    +0.000 NA
BRANCH  28  31
ATOM     31  O   UNL     1      -2.257  12.284  23.570  0.00  0.00    +0.000 OA
BRANCH  31  32
ATOM     32  C   UNL     1      -2.209  13.712  23.525  0.00  0.00    +0.000 C 
BRANCH  32  33
ATOM     33  C   UNL     1      -3.043  14.216  24.668  0.00  0.00    +0.000 C 
ATOM     34  C   UNL     1      -2.570  15.352  25.538  0.00  0.00    +0.000 C 
ATOM     35  C   UNL     1      -3.724  15.561  24.597  0.00  0.00    +0.000 C 
ENDBRANCH  32  33
ENDBRANCH  31  32
ENDBRANCH  28  31
ENDBRANCH  22  25
ENDBRANCH   3  21
TORSDOF 7
ENDMDL
MODEL 9
REMARK VINA RESULT:      -7.8      2.502      3.612
REMARK  Name = 
REMARK  7 active torsions:
REMARK  status: ('A' for Active; 'I' for Inactive)
REMARK    1  A    between atoms: C_4  and  C_5
REMARK    2  A    between atoms: C_4  and  C_26
REMARK    3  A    between atoms: C_7  and  N_8
REMARK    4  A    between atoms: C_9  and  C_11
REMARK    5  A    between atoms: C_14  and  O_15
REMARK    6  A    between atoms: O_15  and  C_16
REMARK    7  A    between atoms: C_16  and  C_17
REMARK                            x       y       z     vdW  Elec       q    Type
REMARK                         _______ _______ _______ _____ _____    ______ ____
ROOT
ATOM      1  C   UNL     1       4.629   4.950  18.487  0.00  0.00    +0.000 A 
ATOM      2  C   UNL     1       3.993   5.927  19.270  0.00  0.00    +0.000 A 
ATOM      3  C   UNL     1       2.664   5.814  19.697  0.00  0.00    +0.000 A 
ATOM      4  C   UNL     1       1.959   4.650  19.379  0.00  0.00    +0.000 A 
ATOM      5  C   UNL     1       2.570   3.649  18.619  0.00  0.00    +0.000 A 
ATOM      6  C   UNL     1       3.885   3.804  18.179  0.00  0.00    +0.000 A 
ATOM      7  F   UNL     1       4.420   2.826  17.434  0.00  0.00    +0.000 F 
ENDROOT
BRANCH   1  11
ATOM      8  N   UNL     1       5.457   4.609  14.330  0.00  0.00    +0.000 N 
ATOM      9  C   UNL     1       5.630   5.165  15.550  0.00  0.00    +0.000 C 
ATOM     10  N   UNL     1       6.068   4.504  16.556  0.00  0.00    +0.000 NA
ATOM     11  C   UNL     1       6.044   5.151  17.891  0.00  0.00    +0.000 C 
ATOM     12  C   UNL     1       6.396   6.627  17.781  0.00  0.00    +0.000 C 
ATOM     13  C   UNL     1       7.372   7.216  16.785  0.00  0.00    +0.000 C 
ATOM     14  C   UNL     1       5.888   7.330  16.564  0.00  0.00    +0.000 C 
ATOM     15  O   UNL     1       5.340   6.491  15.534  0.00  0.00    +0.000 OA
ATOM     16  H   UNL     1       5.993   3.761  14.200  0.00  0.00    +0.000 HD
ATOM     17  H   UNL     1       5.496   5.268  13.563  0.00  0.00    +0.000 HD
BRANCH  11  18
ATOM     18  C   UNL     1       7.105   4.470  18.807  0.00  0.00    +0.000 C 
ATOM     19  F   UNL     1       8.246   4.204  18.108  0.00  0.00    +0.000 F 
ATOM     20  F   UNL     1       7.478   5.314  19.811  0.00  0.00    +0.000 F 
ENDBRANCH  11  18
ENDBRANCH   1  11
BRANCH   3  21
ATOM     21  N   UNL     1       2.011   6.840  20.411  0.00  0.00    +0.000 N 
ATOM     22  C   UNL     1       1.688   8.100  19.923  0.00  0.00    +0.000 C 
ATOM     23  O   UNL     1       1.907   8.535  18.797  0.00  0.00    +0.000 OA
ATOM     24  H   UNL     1       1.654   6.628  21.339  0.00  0.00    +0.000 HD
BRANCH  22  25
ATOM     25  C   UNL     1       0.953   8.972  20.877  0.00  0.00    +0.000 A 
ATOM     26  C   UNL     1       0.156  10.004  20.384  0.00  0.00    +0.000 A 
ATOM     27  N   UNL     1      -0.597  10.800  21.189  0.00  0.00    +0.000 NA
ATOM     28  C   UNL     1      -0.505  10.524  22.507  0.00  0.00    +0.000 A 
ATOM     29  C   UNL     1       0.321   9.517  23.000  0.00  0.00    +0.000 A 
ATOM     30  N   UNL     1       1.062   8.699  22.206  0.00  0.00    +0.000 NA
BRANCH  28  31
ATOM     31  O   UNL     1      -1.202  11.271  23.424  0.00  0.00    +0.000 OA
BRANCH  31  32
ATOM     32  C   UNL     1      -1.983  12.312  22.832  0.00  0.00    +0.000 C 
BRANCH  32  33
ATOM     33  C   UNL     1      -1.511  13.609  23.427  0.00  0.00    +0.000 C 
ATOM     34  C   UNL     1      -1.956  14.934  22.864  0.00  0.00    +0.000 C 
ATOM     35  C   UNL     1      -2.452  14.489  24.212  0.00  0.00    +0.000 C 
ENDBRANCH  32  33
ENDBRANCH  31  32
ENDBRANCH  28  31
ENDBRANCH  22  25
ENDBRANCH   3  21
TORSDOF 7
ENDMDL
