MODEL 1
REMARK VINA RESULT:      -7.4      0.000      0.000
REMARK  Name = 
REMARK  9 active torsions:
REMARK  status: ('A' for Active; 'I' for Inactive)
REMARK    1  A    between atoms: C_1  and  C_2
REMARK    2  A    between atoms: C_2  and  C_4
REMARK    3  A    between atoms: C_5  and  C_6
REMARK    4  A    between atoms: C_8  and  C_9
REMARK    5  A    between atoms: C_9  and  C_11
REMARK    6  A    between atoms: C_11  and  O_12
REMARK    7  A    between atoms: O_12  and  C_13
REMARK    8  A    between atoms: C_13  and  C_15
REMARK    9  A    between atoms: C_18  and  C_19
REMARK                            x       y       z     vdW  Elec       q    Type
REMARK                         _______ _______ _______ _____ _____    ______ ____
ROOT
ATOM      1  C   UNL     1       3.161   3.885  18.662  0.00  0.00    +0.000 A 
ATOM      2  C   UNL     1       4.001   2.778  18.674  0.00  0.00    +0.000 A 
ATOM      3  C   UNL     1       3.769   1.318  18.501  0.00  0.00    +0.000 C 
ATOM      4  N   UNL     1       5.291   3.238  18.835  0.00  0.00    +0.000 N 
ATOM      5  C   UNL     1       5.339   4.615  18.901  0.00  0.00    +0.000 A 
ATOM      6  C   UNL     1       4.016   5.046  18.790  0.00  0.00    +0.000 A 
ATOM      7  C   UNL     1       3.513   6.457  18.795  0.00  0.00    +0.000 C 
ATOM      8  H   UNL     1       6.094   2.622  18.856  0.00  0.00    +0.000 HD
ENDROOT
BRANCH   1  10
ATOM      9  C   UNL     1       0.800   3.654  19.694  0.00  0.00    +0.000 C 
ATOM     10  C   UNL     1       1.691   3.925  18.511  0.00  0.00    +0.000 C 
ATOM     11  O   UNL     1       1.173   4.224  17.434  0.00  0.00    +0.000 OA
ENDBRANCH   1  10
BRANCH   5  12
ATOM     12  C   UNL     1       6.553   5.422  19.031  0.00  0.00    +0.000 C 
ATOM     13  O   UNL     1       7.259   5.415  20.047  0.00  0.00    +0.000 OA
BRANCH  12  14
ATOM     14  C   UNL     1       6.992   6.289  17.842  0.00  0.00    +0.000 C 
BRANCH  14  15
ATOM     15  O   UNL     1       7.378   5.503  16.708  0.00  0.00    +0.000 OA
BRANCH  15  16
ATOM     16  C   UNL     1       6.460   5.517  15.703  0.00  0.00    +0.000 C 
ATOM     17  O   UNL     1       5.685   6.434  15.467  0.00  0.00    +0.000 OA
BRANCH  16  18
ATOM     18  C   UNL     1       6.490   4.257  14.918  0.00  0.00    +0.000 C 
ATOM     19  C   UNL     1       5.465   3.982  13.842  0.00  0.00    +0.000 C 
ATOM     20  C   UNL     1       6.885   4.283  13.459  0.00  0.00    +0.000 C 
ENDBRANCH  16  18
ENDBRANCH  15  16
ENDBRANCH  14  15
ENDBRANCH  12  14
ENDBRANCH   5  12
TORSDOF 6
ENDMDL
MODEL 2
REMARK VINA RESULT:      -7.3      1.964      5.905
REMARK  Name = 
REMARK  9 active torsions:
REMARK  status: ('A' for Active; 'I' for Inactive)
REMARK    1  A    between atoms: C_1  and  C_2
REMARK    2  A    between atoms: C_2  and  C_4
REMARK    3  A    between atoms: C_5  and  C_6
REMARK    4  A    between atoms: C_8  and  C_9
REMARK    5  A    between atoms: C_9  and  C_11
REMARK    6  A    between atoms: C_11  and  O_12
REMARK    7  A    between atoms: O_12  and  C_13
REMARK    8  A    between atoms: C_13  and  C_15
REMARK    9  A    between atoms: C_18  and  C_19
REMARK                            x       y       z     vdW  Elec       q    Type
REMARK                         _______ _______ _______ _____ _____    ______ ____
ROOT
ATOM      1  C   UNL     1       6.007   5.638  17.016  0.00  0.00    +0.000 A 
ATOM      2  C   UNL     1       6.056   4.901  15.840  0.00  0.00    +0.000 A 
ATOM      3  C   UNL     1       7.028   4.837  14.714  0.00  0.00    +0.000 C 
ATOM      4  N   UNL     1       4.968   4.054  15.836  0.00  0.00    +0.000 N 
ATOM      5  C   UNL     1       4.214   4.183  16.983  0.00  0.00    +0.000 A 
ATOM      6  C   UNL     1       4.847   5.168  17.743  0.00  0.00    +0.000 A 
ATOM      7  C   UNL     1       4.438   5.685  19.089  0.00  0.00    +0.000 C 
ATOM      8  H   UNL     1       4.790   3.395  15.088  0.00  0.00    +0.000 HD
ENDROOT
BRANCH   1  10
ATOM      9  C   UNL     1       7.871   6.387  18.646  0.00  0.00    +0.000 C 
ATOM     10  C   UNL     1       6.946   6.675  17.494  0.00  0.00    +0.000 C 
ATOM     11  O   UNL     1       7.022   7.769  16.932  0.00  0.00    +0.000 OA
ENDBRANCH   1  10
BRANCH   5  12
ATOM     12  C   UNL     1       3.018   3.406  17.311  0.00  0.00    +0.000 C 
ATOM     13  O   UNL     1       1.870   3.844  17.164  0.00  0.00    +0.000 OA
BRANCH  12  14
ATOM     14  C   UNL     1       3.192   1.970  17.828  0.00  0.00    +0.000 C 
BRANCH  14  15
ATOM     15  O   UNL     1       2.663   1.800  19.148  0.00  0.00    +0.000 OA
BRANCH  15  16
ATOM     16  C   UNL     1       3.425   2.383  20.115  0.00  0.00    +0.000 C 
ATOM     17  O   UNL     1       4.630   2.225  20.255  0.00  0.00    +0.000 OA
BRANCH  16  18
ATOM     18  C   UNL     1       2.607   3.237  21.013  0.00  0.00    +0.000 C 
ATOM     19  C   UNL     1       1.178   3.591  20.666  0.00  0.00    +0.000 C 
ATOM     20  C   UNL     1       1.458   2.635  21.790  0.00  0.00    +0.000 C 
ENDBRANCH  16  18
ENDBRANCH  15  16
ENDBRANCH  14  15
ENDBRANCH  12  14
ENDBRANCH   5  12
TORSDOF 6
ENDMDL
MODEL 3
REMARK VINA RESULT:      -7.0      1.738      6.022
REMARK  Name = 
REMARK  9 active torsions:
REMARK  status: ('A' for Active; 'I' for Inactive)
REMARK    1  A    between atoms: C_1  and  C_2
REMARK    2  A    between atoms: C_2  and  C_4
REMARK    3  A    between atoms: C_5  and  C_6
REMARK    4  A    between atoms: C_8  and  C_9
REMARK    5  A    between atoms: C_9  and  C_11
REMARK    6  A    between atoms: C_11  and  O_12
REMARK    7  A    between atoms: O_12  and  C_13
REMARK    8  A    between atoms: C_13  and  C_15
REMARK    9  A    between atoms: C_18  and  C_19
REMARK                            x       y       z     vdW  Elec       q    Type
REMARK                         _______ _______ _______ _____ _____    ______ ____
ROOT
ATOM      1  C   UNL     1       6.087   5.473  17.122  0.00  0.00    +0.000 A 
ATOM      2  C   UNL     1       6.065   4.789  15.913  0.00  0.00    +0.000 A 
ATOM      3  C   UNL     1       7.034   4.667  14.790  0.00  0.00    +0.000 C 
ATOM      4  N   UNL     1       4.888   4.072  15.865  0.00  0.00    +0.000 N 
ATOM      5  C   UNL     1       4.142   4.233  17.013  0.00  0.00    +0.000 A 
ATOM      6  C   UNL     1       4.874   5.105  17.821  0.00  0.00    +0.000 A 
ATOM      7  C   UNL     1       4.512   5.603  19.187  0.00  0.00    +0.000 C 
ATOM      8  H   UNL     1       4.645   3.471  15.087  0.00  0.00    +0.000 HD
ENDROOT
BRANCH   1  10
ATOM      9  C   UNL     1       7.891   6.005  18.898  0.00  0.00    +0.000 C 
ATOM     10  C   UNL     1       7.132   6.375  17.652  0.00  0.00    +0.000 C 
ATOM     11  O   UNL     1       7.431   7.413  17.061  0.00  0.00    +0.000 OA
ENDBRANCH   1  10
BRANCH   5  12
ATOM     12  C   UNL     1       2.862   3.582  17.299  0.00  0.00    +0.000 C 
ATOM     13  O   UNL     1       1.770   4.123  17.085  0.00  0.00    +0.000 OA
BRANCH  12  14
ATOM     14  C   UNL     1       2.873   2.151  17.856  0.00  0.00    +0.000 C 
BRANCH  14  15
ATOM     15  O   UNL     1       2.539   2.107  19.249  0.00  0.00    +0.000 OA
BRANCH  15  16
ATOM     16  C   UNL     1       1.219   2.336  19.494  0.00  0.00    +0.000 C 
ATOM     17  O   UNL     1       0.292   1.908  18.821  0.00  0.00    +0.000 OA
BRANCH  16  18
ATOM     18  C   UNL     1       1.028   3.199  20.687  0.00  0.00    +0.000 C 
ATOM     19  C   UNL     1       2.210   3.790  21.422  0.00  0.00    +0.000 C 
ATOM     20  C   UNL     1       1.319   4.680  20.605  0.00  0.00    +0.000 C 
ENDBRANCH  16  18
ENDBRANCH  15  16
ENDBRANCH  14  15
ENDBRANCH  12  14
ENDBRANCH   5  12
TORSDOF 6
ENDMDL
MODEL 4
REMARK VINA RESULT:      -6.9      1.305      2.360
REMARK  Name = 
REMARK  9 active torsions:
REMARK  status: ('A' for Active; 'I' for Inactive)
REMARK    1  A    between atoms: C_1  and  C_2
REMARK    2  A    between atoms: C_2  and  C_4
REMARK    3  A    between atoms: C_5  and  C_6
REMARK    4  A    between atoms: C_8  and  C_9
REMARK    5  A    between atoms: C_9  and  C_11
REMARK    6  A    between atoms: C_11  and  O_12
REMARK    7  A    between atoms: O_12  and  C_13
REMARK    8  A    between atoms: C_13  and  C_15
REMARK    9  A    between atoms: C_18  and  C_19
REMARK                            x       y       z     vdW  Elec       q    Type
REMARK                         _______ _______ _______ _____ _____    ______ ____
ROOT
ATOM      1  C   UNL     1       2.972   5.110  18.557  0.00  0.00    +0.000 A 
ATOM      2  C   UNL     1       3.116   6.456  18.244  0.00  0.00    +0.000 A 
ATOM      3  C   UNL     1       2.151   7.530  17.880  0.00  0.00    +0.000 C 
ATOM      4  N   UNL     1       4.452   6.771  18.372  0.00  0.00    +0.000 N 
ATOM      5  C   UNL     1       5.196   5.687  18.790  0.00  0.00    +0.000 A 
ATOM      6  C   UNL     1       4.290   4.633  18.918  0.00  0.00    +0.000 A 
ATOM      7  C   UNL     1       4.579   3.228  19.352  0.00  0.00    +0.000 C 
ATOM      8  H   UNL     1       4.813   7.704  18.216  0.00  0.00    +0.000 HD
ENDROOT
BRANCH   1  10
ATOM      9  C   UNL     1       1.044   3.998  19.877  0.00  0.00    +0.000 C 
ATOM     10  C   UNL     1       1.738   4.296  18.574  0.00  0.00    +0.000 C 
ATOM     11  O   UNL     1       1.234   3.888  17.527  0.00  0.00    +0.000 OA
ENDBRANCH   1  10
BRANCH   5  12
ATOM     12  C   UNL     1       6.634   5.691  19.060  0.00  0.00    +0.000 C 
ATOM     13  O   UNL     1       7.147   5.045  19.982  0.00  0.00    +0.000 OA
BRANCH  12  14
ATOM     14  C   UNL     1       7.554   6.505  18.137  0.00  0.00    +0.000 C 
BRANCH  14  15
ATOM     15  O   UNL     1       7.043   6.594  16.802  0.00  0.00    +0.000 OA
BRANCH  15  16
ATOM     16  C   UNL     1       7.052   5.405  16.140  0.00  0.00    +0.000 C 
ATOM     17  O   UNL     1       7.902   4.534  16.264  0.00  0.00    +0.000 OA
BRANCH  16  18
ATOM     18  C   UNL     1       5.897   5.287  15.213  0.00  0.00    +0.000 C 
ATOM     19  C   UNL     1       5.838   4.190  14.175  0.00  0.00    +0.000 C 
ATOM     20  C   UNL     1       4.920   4.144  15.362  0.00  0.00    +0.000 C 
ENDBRANCH  16  18
ENDBRANCH  15  16
ENDBRANCH  14  15
ENDBRANCH  12  14
ENDBRANCH   5  12
TORSDOF 6
ENDMDL
MODEL 5
REMARK VINA RESULT:      -6.9      1.292      2.204
REMARK  Name = 
REMARK  9 active torsions:
REMARK  status: ('A' for Active; 'I' for Inactive)
REMARK    1  A    between atoms: C_1  and  C_2
REMARK    2  A    between atoms: C_2  and  C_4
REMARK    3  A    between atoms: C_5  and  C_6
REMARK    4  A    between atoms: C_8  and  C_9
REMARK    5  A    between atoms: C_9  and  C_11
REMARK    6  A    between atoms: C_11  and  O_12
REMARK    7  A    between atoms: O_12  and  C_13
REMARK    8  A    between atoms: C_13  and  C_15
REMARK    9  A    between atoms: C_18  and  C_19
REMARK                            x       y       z     vdW  Elec       q    Type
REMARK                         _______ _______ _______ _____ _____    ______ ____
ROOT
ATOM      1  C   UNL     1       2.868   4.658  18.772  0.00  0.00    +0.000 A 
ATOM      2  C   UNL     1       3.038   5.973  18.357  0.00  0.00    +0.000 A 
ATOM      3  C   UNL     1       2.089   7.067  18.015  0.00  0.00    +0.000 C 
ATOM      4  N   UNL     1       4.392   6.230  18.338  0.00  0.00    +0.000 N 
ATOM      5  C   UNL     1       5.127   5.139  18.755  0.00  0.00    +0.000 A 
ATOM      6  C   UNL     1       4.194   4.140  19.038  0.00  0.00    +0.000 A 
ATOM      7  C   UNL     1       4.464   2.754  19.535  0.00  0.00    +0.000 C 
ATOM      8  H   UNL     1       4.775   7.133  18.087  0.00  0.00    +0.000 HD
ENDROOT
BRANCH   1  10
ATOM      9  C   UNL     1       0.952   3.852  20.313  0.00  0.00    +0.000 C 
ATOM     10  C   UNL     1       1.609   3.906  18.959  0.00  0.00    +0.000 C 
ATOM     11  O   UNL     1       1.054   3.354  18.008  0.00  0.00    +0.000 OA
ENDBRANCH   1  10
BRANCH   5  12
ATOM     12  C   UNL     1       6.583   5.091  18.888  0.00  0.00    +0.000 C 
ATOM     13  O   UNL     1       7.176   5.422  19.922  0.00  0.00    +0.000 OA
BRANCH  12  14
ATOM     14  C   UNL     1       7.413   4.573  17.704  0.00  0.00    +0.000 C 
BRANCH  14  15
ATOM     15  O   UNL     1       7.678   5.596  16.737  0.00  0.00    +0.000 OA
BRANCH  15  16
ATOM     16  C   UNL     1       7.385   5.221  15.461  0.00  0.00    +0.000 C 
ATOM     17  O   UNL     1       7.961   5.620  14.458  0.00  0.00    +0.000 OA
BRANCH  16  18
ATOM     18  C   UNL     1       6.248   4.266  15.420  0.00  0.00    +0.000 C 
ATOM     19  C   UNL     1       4.857   4.724  15.047  0.00  0.00    +0.000 C 
ATOM     20  C   UNL     1       5.640   3.869  14.094  0.00  0.00    +0.000 C 
ENDBRANCH  16  18
ENDBRANCH  15  16
ENDBRANCH  14  15
ENDBRANCH  12  14
ENDBRANCH   5  12
TORSDOF 6
ENDMDL
MODEL 6
REMARK VINA RESULT:      -6.8      1.766      2.523
REMARK  Name = 
REMARK  9 active torsions:
REMARK  status: ('A' for Active; 'I' for Inactive)
REMARK    1  A    between atoms: C_1  and  C_2
REMARK    2  A    between atoms: C_2  and  C_4
REMARK    3  A    between atoms: C_5  and  C_6
REMARK    4  A    between atoms: C_8  and  C_9
REMARK    5  A    between atoms: C_9  and  C_11
REMARK    6  A    between atoms: C_11  and  O_12
REMARK    7  A    between atoms: O_12  and  C_13
REMARK    8  A    between atoms: C_13  and  C_15
REMARK    9  A    between atoms: C_18  and  C_19
REMARK                            x       y       z     vdW  Elec       q    Type
REMARK                         _______ _______ _______ _____ _____    ______ ____
ROOT
ATOM      1  C   UNL     1       2.473   4.134  19.979  0.00  0.00    +0.000 A 
ATOM      2  C   UNL     1       2.374   5.502  20.202  0.00  0.00    +0.000 A 
ATOM      3  C   UNL     1       1.282   6.379  20.706  0.00  0.00    +0.000 C 
ATOM      4  N   UNL     1       3.602   6.059  19.914  0.00  0.00    +0.000 N 
ATOM      5  C   UNL     1       4.522   5.103  19.537  0.00  0.00    +0.000 A 
ATOM      6  C   UNL     1       3.840   3.886  19.574  0.00  0.00    +0.000 A 
ATOM      7  C   UNL     1       4.384   2.526  19.259  0.00  0.00    +0.000 C 
ATOM      8  H   UNL     1       3.793   7.048  20.018  0.00  0.00    +0.000 HD
ENDROOT
BRANCH   1  10
ATOM      9  C   UNL     1       0.747   2.508  18.943  0.00  0.00    +0.000 C 
ATOM     10  C   UNL     1       1.434   3.096  20.147  0.00  0.00    +0.000 C 
ATOM     11  O   UNL     1       1.147   2.662  21.264  0.00  0.00    +0.000 OA
ENDBRANCH   1  10
BRANCH   5  12
ATOM     12  C   UNL     1       5.925   5.353  19.203  0.00  0.00    +0.000 C 
ATOM     13  O   UNL     1       6.863   4.972  19.913  0.00  0.00    +0.000 OA
BRANCH  12  14
ATOM     14  C   UNL     1       6.249   6.090  17.895  0.00  0.00    +0.000 C 
BRANCH  14  15
ATOM     15  O   UNL     1       5.072   6.415  17.147  0.00  0.00    +0.000 OA
BRANCH  15  16
ATOM     16  C   UNL     1       5.192   6.163  15.815  0.00  0.00    +0.000 C 
ATOM     17  O   UNL     1       5.142   7.005  14.929  0.00  0.00    +0.000 OA
BRANCH  16  18
ATOM     18  C   UNL     1       5.375   4.713  15.548  0.00  0.00    +0.000 C 
ATOM     19  C   UNL     1       5.590   4.199  14.143  0.00  0.00    +0.000 C 
ATOM     20  C   UNL     1       6.727   4.186  15.124  0.00  0.00    +0.000 C 
ENDBRANCH  16  18
ENDBRANCH  15  16
ENDBRANCH  14  15
ENDBRANCH  12  14
ENDBRANCH   5  12
TORSDOF 6
ENDMDL
MODEL 7
REMARK VINA RESULT:      -6.8      1.898      5.975
REMARK  Name = 
REMARK  9 active torsions:
REMARK  status: ('A' for Active; 'I' for Inactive)
REMARK    1  A    between atoms: C_1  and  C_2
REMARK    2  A    between atoms: C_2  and  C_4
REMARK    3  A    between atoms: C_5  and  C_6
REMARK    4  A    between atoms: C_8  and  C_9
REMARK    5  A    between atoms: C_9  and  C_11
REMARK    6  A    between atoms: C_11  and  O_12
REMARK    7  A    between atoms: O_12  and  C_13
REMARK    8  A    between atoms: C_13  and  C_15
REMARK    9  A    between atoms: C_18  and  C_19
REMARK                            x       y       z     vdW  Elec       q    Type
REMARK                         _______ _______ _______ _____ _____    ______ ____
ROOT
ATOM      1  C   UNL     1       6.129   5.412  17.312  0.00  0.00    +0.000 A 
ATOM      2  C   UNL     1       6.095   4.863  16.036  0.00  0.00    +0.000 A 
ATOM      3  C   UNL     1       7.074   4.821  14.915  0.00  0.00    +0.000 C 
ATOM      4  N   UNL     1       4.892   4.205  15.900  0.00  0.00    +0.000 N 
ATOM      5  C   UNL     1       4.137   4.273  17.052  0.00  0.00    +0.000 A 
ATOM      6  C   UNL     1       4.893   5.022  17.956  0.00  0.00    +0.000 A 
ATOM      7  C   UNL     1       4.533   5.386  19.364  0.00  0.00    +0.000 C 
ATOM      8  H   UNL     1       4.634   3.701  15.060  0.00  0.00    +0.000 HD
ENDROOT
BRANCH   1  10
ATOM      9  C   UNL     1       7.470   7.618  17.491  0.00  0.00    +0.000 C 
ATOM     10  C   UNL     1       7.203   6.207  17.944  0.00  0.00    +0.000 C 
ATOM     11  O   UNL     1       7.862   5.751  18.879  0.00  0.00    +0.000 OA
ENDBRANCH   1  10
BRANCH   5  12
ATOM     12  C   UNL     1       2.829   3.649  17.255  0.00  0.00    +0.000 C 
ATOM     13  O   UNL     1       1.769   4.288  17.238  0.00  0.00    +0.000 OA
BRANCH  12  14
ATOM     14  C   UNL     1       2.763   2.129  17.463  0.00  0.00    +0.000 C 
BRANCH  14  15
ATOM     15  O   UNL     1       2.037   1.773  18.645  0.00  0.00    +0.000 OA
BRANCH  15  16
ATOM     16  C   UNL     1       2.649   2.168  19.795  0.00  0.00    +0.000 C 
ATOM     17  O   UNL     1       3.845   2.065  20.030  0.00  0.00    +0.000 OA
BRANCH  16  18
ATOM     18  C   UNL     1       1.677   2.735  20.764  0.00  0.00    +0.000 C 
ATOM     19  C   UNL     1       2.114   3.724  21.821  0.00  0.00    +0.000 C 
ATOM     20  C   UNL     1       1.272   4.189  20.668  0.00  0.00    +0.000 C 
ENDBRANCH  16  18
ENDBRANCH  15  16
ENDBRANCH  14  15
ENDBRANCH  12  14
ENDBRANCH   5  12
TORSDOF 6
ENDMDL
MODEL 8
REMARK VINA RESULT:      -6.7      1.499      1.797
REMARK  Name = 
REMARK  9 active torsions:
REMARK  status: ('A' for Active; 'I' for Inactive)
REMARK    1  A    between atoms: C_1  and  C_2
REMARK    2  A    between atoms: C_2  and  C_4
REMARK    3  A    between atoms: C_5  and  C_6
REMARK    4  A    between atoms: C_8  and  C_9
REMARK    5  A    between atoms: C_9  and  C_11
REMARK    6  A    between atoms: C_11  and  O_12
REMARK    7  A    between atoms: O_12  and  C_13
REMARK    8  A    between atoms: C_13  and  C_15
REMARK    9  A    between atoms: C_18  and  C_19
REMARK                            x       y       z     vdW  Elec       q    Type
REMARK                         _______ _______ _______ _____ _____    ______ ____
ROOT
ATOM      1  C   UNL     1       3.619   4.391  19.061  0.00  0.00    +0.000 A 
ATOM      2  C   UNL     1       4.460   3.353  19.441  0.00  0.00    +0.000 A 
ATOM      3  C   UNL     1       4.261   2.123  20.256  0.00  0.00    +0.000 C 
ATOM      4  N   UNL     1       5.686   3.576  18.852  0.00  0.00    +0.000 N 
ATOM      5  C   UNL     1       5.680   4.712  18.069  0.00  0.00    +0.000 A 
ATOM      6  C   UNL     1       4.393   5.240  18.180  0.00  0.00    +0.000 A 
ATOM      7  C   UNL     1       3.852   6.471  17.518  0.00  0.00    +0.000 C 
ATOM      8  H   UNL     1       6.470   2.943  18.961  0.00  0.00    +0.000 HD
ENDROOT
BRANCH   1  10
ATOM      9  C   UNL     1       1.846   5.419  20.640  0.00  0.00    +0.000 C 
ATOM     10  C   UNL     1       2.202   4.609  19.422  0.00  0.00    +0.000 C 
ATOM     11  O   UNL     1       1.294   4.175  18.713  0.00  0.00    +0.000 OA
ENDBRANCH   1  10
BRANCH   5  12
ATOM     12  C   UNL     1       6.806   5.210  17.278  0.00  0.00    +0.000 C 
ATOM     13  O   UNL     1       7.535   6.136  17.655  0.00  0.00    +0.000 OA
BRANCH  12  14
ATOM     14  C   UNL     1       7.119   4.533  15.936  0.00  0.00    +0.000 C 
BRANCH  14  15
ATOM     15  O   UNL     1       7.590   5.463  14.954  0.00  0.00    +0.000 OA
BRANCH  15  16
ATOM     16  C   UNL     1       7.376   5.050  13.674  0.00  0.00    +0.000 C 
ATOM     17  O   UNL     1       7.882   5.549  12.678  0.00  0.00    +0.000 OA
BRANCH  16  18
ATOM     18  C   UNL     1       6.422   3.913  13.619  0.00  0.00    +0.000 C 
ATOM     19  C   UNL     1       5.161   3.991  12.789  0.00  0.00    +0.000 C 
ATOM     20  C   UNL     1       6.287   3.100  12.352  0.00  0.00    +0.000 C 
ENDBRANCH  16  18
ENDBRANCH  15  16
ENDBRANCH  14  15
ENDBRANCH  12  14
ENDBRANCH   5  12
TORSDOF 6
ENDMDL
MODEL 9
REMARK VINA RESULT:      -6.7      1.736      2.056
REMARK  Name = 
REMARK  9 active torsions:
REMARK  status: ('A' for Active; 'I' for Inactive)
REMARK    1  A    between atoms: C_1  and  C_2
REMARK    2  A    between atoms: C_2  and  C_4
REMARK    3  A    between atoms: C_5  and  C_6
REMARK    4  A    between atoms: C_8  and  C_9
REMARK    5  A    between atoms: C_9  and  C_11
REMARK    6  A    between atoms: C_11  and  O_12
REMARK    7  A    between atoms: O_12  and  C_13
REMARK    8  A    between atoms: C_13  and  C_15
REMARK    9  A    between atoms: C_18  and  C_19
REMARK                            x       y       z     vdW  Elec       q    Type
REMARK                         _______ _______ _______ _____ _____    ______ ____
ROOT
ATOM      1  C   UNL     1       3.258   4.064  19.986  0.00  0.00    +0.000 A 
ATOM      2  C   UNL     1       4.264   3.221  19.530  0.00  0.00    +0.000 A 
ATOM      3  C   UNL     1       4.545   1.771  19.717  0.00  0.00    +0.000 C 
ATOM      4  N   UNL     1       5.084   3.962  18.706  0.00  0.00    +0.000 N 
ATOM      5  C   UNL     1       4.641   5.261  18.577  0.00  0.00    +0.000 A 
ATOM      6  C   UNL     1       3.494   5.350  19.367  0.00  0.00    +0.000 A 
ATOM      7  C   UNL     1       2.618   6.549  19.571  0.00  0.00    +0.000 C 
ATOM      8  H   UNL     1       5.885   3.565  18.230  0.00  0.00    +0.000 HD
ENDROOT
BRANCH   1  10
ATOM      9  C   UNL     1       0.761   3.480  20.327  0.00  0.00    +0.000 C 
ATOM     10  C   UNL     1       2.132   3.749  20.889  0.00  0.00    +0.000 C 
ATOM     11  O   UNL     1       2.302   3.655  22.106  0.00  0.00    +0.000 OA
ENDBRANCH   1  10
BRANCH   5  12
ATOM     12  C   UNL     1       5.260   6.296  17.747  0.00  0.00    +0.000 C 
ATOM     13  O   UNL     1       4.608   7.048  17.012  0.00  0.00    +0.000 OA
BRANCH  12  14
ATOM     14  C   UNL     1       6.783   6.481  17.817  0.00  0.00    +0.000 C 
BRANCH  14  15
ATOM     15  O   UNL     1       7.405   6.360  16.532  0.00  0.00    +0.000 OA
BRANCH  15  16
ATOM     16  C   UNL     1       7.330   5.103  16.013  0.00  0.00    +0.000 C 
ATOM     17  O   UNL     1       7.828   4.103  16.510  0.00  0.00    +0.000 OA
BRANCH  16  18
ATOM     18  C   UNL     1       6.575   5.085  14.734  0.00  0.00    +0.000 C 
ATOM     19  C   UNL     1       6.423   3.811  13.935  0.00  0.00    +0.000 C 
ATOM     20  C   UNL     1       5.237   4.386  14.655  0.00  0.00    +0.000 C 
ENDBRANCH  16  18
ENDBRANCH  15  16
ENDBRANCH  14  15
ENDBRANCH  12  14
ENDBRANCH   5  12
TORSDOF 6
ENDMDL
