MODEL 1
REMARK VINA RESULT:      -7.1      0.000      0.000
REMARK  Name = 
REMARK  6 active torsions:
REMARK  status: ('A' for Active; 'I' for Inactive)
REMARK    1  A    between atoms: C_1  and  O_2
REMARK    2  A    between atoms: O_2  and  C_3
REMARK    3  A    between atoms: C_3  and  C_4
REMARK    4  A    between atoms: C_4  and  N_5
REMARK    5  A    between atoms: N_5  and  C_18
REMARK    6  A    between atoms: C_6  and  C_8
REMARK                            x       y       z     vdW  Elec       q    Type
REMARK                         _______ _______ _______ _____ _____    ______ ____
ROOT
ATOM      1  N   UNL     1       3.165   5.077  20.100  0.00  0.00    +0.000 N 
ATOM      2  C   UNL     1       4.204   4.191  19.683  0.00  0.00    +0.000 C 
ATOM      3  O   UNL     1       4.125   2.982  19.910  0.00  0.00    +0.000 OA
ENDROOT
BRANCH   2   4
ATOM      4  C   UNL     1       5.433   4.736  18.976  0.00  0.00    +0.000 A 
ATOM      5  N   UNL     1       6.375   5.316  19.782  0.00  0.00    +0.000 NA
ATOM      6  C   UNL     1       7.552   5.669  19.254  0.00  0.00    +0.000 A 
ATOM      7  C   UNL     1       7.837   5.511  17.923  0.00  0.00    +0.000 A 
ATOM      8  C   UNL     1       6.856   4.964  17.091  0.00  0.00    +0.000 A 
ATOM      9  C   UNL     1       7.138   4.776  15.734  0.00  0.00    +0.000 A 
ATOM     10  C   UNL     1       6.185   4.212  14.899  0.00  0.00    +0.000 A 
ATOM     11  C   UNL     1       4.969   3.870  15.451  0.00  0.00    +0.000 A 
ATOM     12  N   UNL     1       4.672   4.020  16.758  0.00  0.00    +0.000 NA
ATOM     13  C   UNL     1       5.593   4.562  17.593  0.00  0.00    +0.000 A 
ENDBRANCH   2   4
BRANCH   1  14
ATOM     14  C   UNL     1       3.035   6.443  19.568  0.00  0.00    +0.000 C 
ATOM     15  C   UNL     1       2.525   6.485  18.134  0.00  0.00    +0.000 C 
ATOM     16  C   UNL     1       2.177   7.942  17.971  0.00  0.00    +0.000 C 
ATOM     17  O   UNL     1       1.714   8.402  19.246  0.00  0.00    +0.000 OA
ATOM     18  C   UNL     1       2.088   7.433  20.246  0.00  0.00    +0.000 C 
ENDBRANCH   1  14
BRANCH   1  19
ATOM     19  C   UNL     1       2.074   4.517  20.929  0.00  0.00    +0.000 C 
BRANCH  19  20
ATOM     20  C   UNL     1       0.850   4.072  20.133  0.00  0.00    +0.000 C 
BRANCH  20  22
ATOM     21  C   UNL     1       0.994   2.276  18.619  0.00  0.00    +0.000 C 
ATOM     22  O   UNL     1       0.814   2.650  19.982  0.00  0.00    +0.000 OA
ENDBRANCH  20  22
ENDBRANCH  19  20
ENDBRANCH   1  19
TORSDOF 5
ENDMDL
MODEL 2
REMARK VINA RESULT:      -6.6      2.510      5.750
REMARK  Name = 
REMARK  6 active torsions:
REMARK  status: ('A' for Active; 'I' for Inactive)
REMARK    1  A    between atoms: C_1  and  O_2
REMARK    2  A    between atoms: O_2  and  C_3
REMARK    3  A    between atoms: C_3  and  C_4
REMARK    4  A    between atoms: C_4  and  N_5
REMARK    5  A    between atoms: N_5  and  C_18
REMARK    6  A    between atoms: C_6  and  C_8
REMARK                            x       y       z     vdW  Elec       q    Type
REMARK                         _______ _______ _______ _____ _____    ______ ____
ROOT
ATOM      1  N   UNL     1       5.962   4.988  16.974  0.00  0.00    +0.000 N 
ATOM      2  C   UNL     1       4.728   4.348  17.295  0.00  0.00    +0.000 C 
ATOM      3  O   UNL     1       4.392   3.310  16.720  0.00  0.00    +0.000 OA
ENDROOT
BRANCH   2   4
ATOM      4  C   UNL     1       3.800   4.955  18.333  0.00  0.00    +0.000 A 
ATOM      5  N   UNL     1       3.348   6.217  18.061  0.00  0.00    +0.000 NA
ATOM      6  C   UNL     1       2.402   6.750  18.843  0.00  0.00    +0.000 A 
ATOM      7  C   UNL     1       1.898   6.096  19.936  0.00  0.00    +0.000 A 
ATOM      8  C   UNL     1       2.396   4.826  20.241  0.00  0.00    +0.000 A 
ATOM      9  C   UNL     1       1.876   4.134  21.341  0.00  0.00    +0.000 A 
ATOM     10  C   UNL     1       2.341   2.863  21.644  0.00  0.00    +0.000 A 
ATOM     11  C   UNL     1       3.329   2.333  20.842  0.00  0.00    +0.000 A 
ATOM     12  N   UNL     1       3.837   2.964  19.765  0.00  0.00    +0.000 NA
ATOM     13  C   UNL     1       3.391   4.204  19.445  0.00  0.00    +0.000 A 
ENDBRANCH   2   4
BRANCH   1  14
ATOM     14  C   UNL     1       6.569   6.008  17.845  0.00  0.00    +0.000 C 
ATOM     15  C   UNL     1       7.765   5.493  18.634  0.00  0.00    +0.000 C 
ATOM     16  C   UNL     1       8.369   6.773  19.151  0.00  0.00    +0.000 C 
ATOM     17  O   UNL     1       8.145   7.771  18.149  0.00  0.00    +0.000 OA
ATOM     18  C   UNL     1       7.148   7.282  17.230  0.00  0.00    +0.000 C 
ENDBRANCH   1  14
BRANCH   1  19
ATOM     19  C   UNL     1       6.746   4.447  15.841  0.00  0.00    +0.000 C 
BRANCH  19  20
ATOM     20  C   UNL     1       6.323   4.982  14.476  0.00  0.00    +0.000 C 
BRANCH  20  22
ATOM     21  C   UNL     1       6.373   3.588  12.580  0.00  0.00    +0.000 C 
ATOM     22  O   UNL     1       5.619   3.991  13.721  0.00  0.00    +0.000 OA
ENDBRANCH  20  22
ENDBRANCH  19  20
ENDBRANCH   1  19
TORSDOF 5
ENDMDL
MODEL 3
REMARK VINA RESULT:      -6.3      1.191      1.383
REMARK  Name = 
REMARK  6 active torsions:
REMARK  status: ('A' for Active; 'I' for Inactive)
REMARK    1  A    between atoms: C_1  and  O_2
REMARK    2  A    between atoms: O_2  and  C_3
REMARK    3  A    between atoms: C_3  and  C_4
REMARK    4  A    between atoms: C_4  and  N_5
REMARK    5  A    between atoms: N_5  and  C_18
REMARK    6  A    between atoms: C_6  and  C_8
REMARK                            x       y       z     vdW  Elec       q    Type
REMARK                         _______ _______ _______ _____ _____    ______ ____
ROOT
ATOM      1  N   UNL     1       2.543   4.667  18.913  0.00  0.00    +0.000 N 
ATOM      2  C   UNL     1       3.533   3.853  18.284  0.00  0.00    +0.000 C 
ATOM      3  O   UNL     1       3.256   2.717  17.896  0.00  0.00    +0.000 OA
ENDROOT
BRANCH   2   4
ATOM      4  C   UNL     1       4.951   4.373  18.111  0.00  0.00    +0.000 A 
ATOM      5  N   UNL     1       5.641   4.612  19.267  0.00  0.00    +0.000 NA
ATOM      6  C   UNL     1       6.943   4.913  19.194  0.00  0.00    +0.000 A 
ATOM      7  C   UNL     1       7.604   5.032  18.000  0.00  0.00    +0.000 A 
ATOM      8  C   UNL     1       6.885   4.835  16.818  0.00  0.00    +0.000 A 
ATOM      9  C   UNL     1       7.550   4.931  15.590  0.00  0.00    +0.000 A 
ATOM     10  C   UNL     1       6.858   4.714  14.408  0.00  0.00    +0.000 A 
ATOM     11  C   UNL     1       5.512   4.425  14.495  0.00  0.00    +0.000 A 
ATOM     12  N   UNL     1       4.847   4.305  15.662  0.00  0.00    +0.000 NA
ATOM     13  C   UNL     1       5.507   4.505  16.830  0.00  0.00    +0.000 A 
ENDBRANCH   2   4
BRANCH   1  14
ATOM     14  C   UNL     1       2.710   6.120  19.080  0.00  0.00    +0.000 C 
ATOM     15  C   UNL     1       2.305   6.918  17.848  0.00  0.00    +0.000 C 
ATOM     16  C   UNL     1       2.253   8.322  18.392  0.00  0.00    +0.000 C 
ATOM     17  O   UNL     1       1.808   8.224  19.750  0.00  0.00    +0.000 OA
ATOM     18  C   UNL     1       1.929   6.850  20.173  0.00  0.00    +0.000 C 
ENDBRANCH   1  14
BRANCH   1  19
ATOM     19  C   UNL     1       1.229   4.051  19.205  0.00  0.00    +0.000 C 
BRANCH  19  20
ATOM     20  C   UNL     1       1.195   3.233  20.492  0.00  0.00    +0.000 C 
BRANCH  20  22
ATOM     21  C   UNL     1       3.095   2.322  21.541  0.00  0.00    +0.000 C 
ATOM     22  O   UNL     1       2.334   3.505  21.315  0.00  0.00    +0.000 OA
ENDBRANCH  20  22
ENDBRANCH  19  20
ENDBRANCH   1  19
TORSDOF 5
ENDMDL
MODEL 4
REMARK VINA RESULT:      -6.2      2.499      5.736
REMARK  Name = 
REMARK  6 active torsions:
REMARK  status: ('A' for Active; 'I' for Inactive)
REMARK    1  A    between atoms: C_1  and  O_2
REMARK    2  A    between atoms: O_2  and  C_3
REMARK    3  A    between atoms: C_3  and  C_4
REMARK    4  A    between atoms: C_4  and  N_5
REMARK    5  A    between atoms: N_5  and  C_18
REMARK    6  A    between atoms: C_6  and  C_8
REMARK                            x       y       z     vdW  Elec       q    Type
REMARK                         _______ _______ _______ _____ _____    ______ ____
ROOT
ATOM      1  N   UNL     1       5.164   5.381  16.713  0.00  0.00    +0.000 N 
ATOM      2  C   UNL     1       3.988   4.615  16.972  0.00  0.00    +0.000 C 
ATOM      3  O   UNL     1       3.492   3.911  16.090  0.00  0.00    +0.000 OA
ENDROOT
BRANCH   2   4
ATOM      4  C   UNL     1       3.319   4.680  18.335  0.00  0.00    +0.000 A 
ATOM      5  N   UNL     1       3.399   3.542  19.091  0.00  0.00    +0.000 NA
ATOM      6  C   UNL     1       2.978   3.577  20.360  0.00  0.00    +0.000 A 
ATOM      7  C   UNL     1       2.429   4.699  20.922  0.00  0.00    +0.000 A 
ATOM      8  C   UNL     1       2.303   5.846  20.134  0.00  0.00    +0.000 A 
ATOM      9  C   UNL     1       1.765   7.007  20.698  0.00  0.00    +0.000 A 
ATOM     10  C   UNL     1       1.654   8.162  19.937  0.00  0.00    +0.000 A 
ATOM     11  C   UNL     1       2.074   8.108  18.624  0.00  0.00    +0.000 A 
ATOM     12  N   UNL     1       2.615   7.012  18.056  0.00  0.00    +0.000 NA
ATOM     13  C   UNL     1       2.739   5.875  18.785  0.00  0.00    +0.000 A 
ENDBRANCH   2   4
BRANCH   1  14
ATOM     14  C   UNL     1       5.984   5.954  17.794  0.00  0.00    +0.000 C 
ATOM     15  C   UNL     1       6.871   4.927  18.486  0.00  0.00    +0.000 C 
ATOM     16  C   UNL     1       7.805   5.807  19.275  0.00  0.00    +0.000 C 
ATOM     17  O   UNL     1       8.010   6.994  18.501  0.00  0.00    +0.000 OA
ATOM     18  C   UNL     1       6.998   7.052  17.475  0.00  0.00    +0.000 C 
ENDBRANCH   1  14
BRANCH   1  19
ATOM     19  C   UNL     1       5.677   5.410  15.325  0.00  0.00    +0.000 C 
BRANCH  19  20
ATOM     20  C   UNL     1       6.655   4.286  14.997  0.00  0.00    +0.000 C 
BRANCH  20  22
ATOM     21  C   UNL     1       5.803   3.612  12.909  0.00  0.00    +0.000 C 
ATOM     22  O   UNL     1       6.905   4.205  13.590  0.00  0.00    +0.000 OA
ENDBRANCH  20  22
ENDBRANCH  19  20
ENDBRANCH   1  19
TORSDOF 5
ENDMDL
MODEL 5
REMARK VINA RESULT:      -6.0      2.473      6.036
REMARK  Name = 
REMARK  6 active torsions:
REMARK  status: ('A' for Active; 'I' for Inactive)
REMARK    1  A    between atoms: C_1  and  O_2
REMARK    2  A    between atoms: O_2  and  C_3
REMARK    3  A    between atoms: C_3  and  C_4
REMARK    4  A    between atoms: C_4  and  N_5
REMARK    5  A    between atoms: N_5  and  C_18
REMARK    6  A    between atoms: C_6  and  C_8
REMARK                            x       y       z     vdW  Elec       q    Type
REMARK                         _______ _______ _______ _____ _____    ______ ____
ROOT
ATOM      1  N   UNL     1       6.366   4.584  17.689  0.00  0.00    +0.000 N 
ATOM      2  C   UNL     1       5.642   4.366  18.900  0.00  0.00    +0.000 C 
ATOM      3  O   UNL     1       6.081   4.780  19.975  0.00  0.00    +0.000 OA
ENDROOT
BRANCH   2   4
ATOM      4  C   UNL     1       4.333   3.595  18.880  0.00  0.00    +0.000 A 
ATOM      5  N   UNL     1       4.401   2.322  18.383  0.00  0.00    +0.000 NA
ATOM      6  C   UNL     1       3.328   1.528  18.485  0.00  0.00    +0.000 A 
ATOM      7  C   UNL     1       2.146   1.957  19.030  0.00  0.00    +0.000 A 
ATOM      8  C   UNL     1       2.064   3.273  19.491  0.00  0.00    +0.000 A 
ATOM      9  C   UNL     1       0.872   3.720  20.071  0.00  0.00    +0.000 A 
ATOM     10  C   UNL     1       0.779   5.016  20.557  0.00  0.00    +0.000 A 
ATOM     11  C   UNL     1       1.885   5.830  20.429  0.00  0.00    +0.000 A 
ATOM     12  N   UNL     1       3.054   5.425  19.894  0.00  0.00    +0.000 NA
ATOM     13  C   UNL     1       3.168   4.159  19.420  0.00  0.00    +0.000 A 
ENDBRANCH   2   4
BRANCH   1  14
ATOM     14  C   UNL     1       5.746   4.425  16.363  0.00  0.00    +0.000 C 
ATOM     15  C   UNL     1       5.478   5.750  15.661  0.00  0.00    +0.000 C 
ATOM     16  C   UNL     1       5.176   5.299  14.255  0.00  0.00    +0.000 C 
ATOM     17  O   UNL     1       5.986   4.144  14.008  0.00  0.00    +0.000 OA
ATOM     18  C   UNL     1       6.486   3.656  15.269  0.00  0.00    +0.000 C 
ENDBRANCH   1  14
BRANCH   1  19
ATOM     19  C   UNL     1       7.711   5.192  17.790  0.00  0.00    +0.000 C 
BRANCH  19  20
ATOM     20  C   UNL     1       7.711   6.623  18.320  0.00  0.00    +0.000 C 
BRANCH  20  22
ATOM     21  C   UNL     1       8.029   8.884  17.746  0.00  0.00    +0.000 C 
ATOM     22  O   UNL     1       7.752   7.576  17.253  0.00  0.00    +0.000 OA
ENDBRANCH  20  22
ENDBRANCH  19  20
ENDBRANCH   1  19
TORSDOF 5
ENDMDL
MODEL 6
REMARK VINA RESULT:      -6.0      2.392      5.822
REMARK  Name = 
REMARK  6 active torsions:
REMARK  status: ('A' for Active; 'I' for Inactive)
REMARK    1  A    between atoms: C_1  and  O_2
REMARK    2  A    between atoms: O_2  and  C_3
REMARK    3  A    between atoms: C_3  and  C_4
REMARK    4  A    between atoms: C_4  and  N_5
REMARK    5  A    between atoms: N_5  and  C_18
REMARK    6  A    between atoms: C_6  and  C_8
REMARK                            x       y       z     vdW  Elec       q    Type
REMARK                         _______ _______ _______ _____ _____    ______ ____
ROOT
ATOM      1  N   UNL     1       5.820   4.297  16.611  0.00  0.00    +0.000 N 
ATOM      2  C   UNL     1       4.407   4.292  16.814  0.00  0.00    +0.000 C 
ATOM      3  O   UNL     1       3.667   3.661  16.056  0.00  0.00    +0.000 OA
ENDROOT
BRANCH   2   4
ATOM      4  C   UNL     1       3.796   5.087  17.956  0.00  0.00    +0.000 A 
ATOM      5  N   UNL     1       3.682   6.434  17.747  0.00  0.00    +0.000 NA
ATOM      6  C   UNL     1       3.007   7.173  18.635  0.00  0.00    +0.000 A 
ATOM      7  C   UNL     1       2.460   6.637  19.772  0.00  0.00    +0.000 A 
ATOM      8  C   UNL     1       2.620   5.270  20.008  0.00  0.00    +0.000 A 
ATOM      9  C   UNL     1       2.049   4.702  21.152  0.00  0.00    +0.000 A 
ATOM     10  C   UNL     1       2.177   3.342  21.391  0.00  0.00    +0.000 A 
ATOM     11  C   UNL     1       2.892   2.595  20.477  0.00  0.00    +0.000 A 
ATOM     12  N   UNL     1       3.436   3.106  19.356  0.00  0.00    +0.000 NA
ATOM     13  C   UNL     1       3.316   4.432  19.100  0.00  0.00    +0.000 A 
ENDBRANCH   2   4
BRANCH   1  14
ATOM     14  C   UNL     1       6.762   4.732  17.655  0.00  0.00    +0.000 C 
ATOM     15  C   UNL     1       7.144   6.202  17.549  0.00  0.00    +0.000 C 
ATOM     16  C   UNL     1       7.811   6.445  18.878  0.00  0.00    +0.000 C 
ATOM     17  O   UNL     1       7.140   5.620  19.836  0.00  0.00    +0.000 OA
ATOM     18  C   UNL     1       6.357   4.638  19.127  0.00  0.00    +0.000 C 
ENDBRANCH   1  14
BRANCH   1  19
ATOM     19  C   UNL     1       6.343   3.645  15.391  0.00  0.00    +0.000 C 
BRANCH  19  20
ATOM     20  C   UNL     1       6.433   4.567  14.178  0.00  0.00    +0.000 C 
BRANCH  20  22
ATOM     21  C   UNL     1       8.184   5.490  12.904  0.00  0.00    +0.000 C 
ATOM     22  O   UNL     1       7.627   5.355  14.209  0.00  0.00    +0.000 OA
ENDBRANCH  20  22
ENDBRANCH  19  20
ENDBRANCH   1  19
TORSDOF 5
ENDMDL
MODEL 7
REMARK VINA RESULT:      -5.8      0.893      2.405
REMARK  Name = 
REMARK  6 active torsions:
REMARK  status: ('A' for Active; 'I' for Inactive)
REMARK    1  A    between atoms: C_1  and  O_2
REMARK    2  A    between atoms: O_2  and  C_3
REMARK    3  A    between atoms: C_3  and  C_4
REMARK    4  A    between atoms: C_4  and  N_5
REMARK    5  A    between atoms: N_5  and  C_18
REMARK    6  A    between atoms: C_6  and  C_8
REMARK                            x       y       z     vdW  Elec       q    Type
REMARK                         _______ _______ _______ _____ _____    ______ ____
ROOT
ATOM      1  N   UNL     1       3.322   4.304  19.688  0.00  0.00    +0.000 N 
ATOM      2  C   UNL     1       4.009   3.505  18.725  0.00  0.00    +0.000 C 
ATOM      3  O   UNL     1       3.892   2.278  18.731  0.00  0.00    +0.000 OA
ENDROOT
BRANCH   2   4
ATOM      4  C   UNL     1       4.914   4.160  17.696  0.00  0.00    +0.000 A 
ATOM      5  N   UNL     1       4.536   4.010  16.390  0.00  0.00    +0.000 NA
ATOM      6  C   UNL     1       5.189   4.693  15.443  0.00  0.00    +0.000 A 
ATOM      7  C   UNL     1       6.254   5.507  15.726  0.00  0.00    +0.000 A 
ATOM      8  C   UNL     1       6.670   5.621  17.055  0.00  0.00    +0.000 A 
ATOM      9  C   UNL     1       7.741   6.466  17.366  0.00  0.00    +0.000 A 
ATOM     10  C   UNL     1       8.153   6.610  18.683  0.00  0.00    +0.000 A 
ATOM     11  C   UNL     1       7.484   5.886  19.647  0.00  0.00    +0.000 A 
ATOM     12  N   UNL     1       6.436   5.080  19.384  0.00  0.00    +0.000 NA
ATOM     13  C   UNL     1       6.013   4.931  18.105  0.00  0.00    +0.000 A 
ENDBRANCH   2   4
BRANCH   1  14
ATOM     14  C   UNL     1       3.146   5.757  19.524  0.00  0.00    +0.000 C 
ATOM     15  C   UNL     1       2.489   6.138  18.204  0.00  0.00    +0.000 C 
ATOM     16  C   UNL     1       2.136   7.583  18.441  0.00  0.00    +0.000 C 
ATOM     17  O   UNL     1       1.811   7.708  19.830  0.00  0.00    +0.000 OA
ATOM     18  C   UNL     1       2.281   6.532  20.518  0.00  0.00    +0.000 C 
ENDBRANCH   1  14
BRANCH   1  19
ATOM     19  C   UNL     1       2.588   3.605  20.767  0.00  0.00    +0.000 C 
BRANCH  19  20
ATOM     20  C   UNL     1       1.074   3.582  20.580  0.00  0.00    +0.000 C 
BRANCH  20  22
ATOM     21  C   UNL     1       0.594   2.062  18.848  0.00  0.00    +0.000 C 
ATOM     22  O   UNL     1       0.720   3.437  19.201  0.00  0.00    +0.000 OA
ENDBRANCH  20  22
ENDBRANCH  19  20
ENDBRANCH   1  19
TORSDOF 5
ENDMDL
MODEL 8
REMARK VINA RESULT:      -5.8      1.324      1.800
REMARK  Name = 
REMARK  6 active torsions:
REMARK  status: ('A' for Active; 'I' for Inactive)
REMARK    1  A    between atoms: C_1  and  O_2
REMARK    2  A    between atoms: O_2  and  C_3
REMARK    3  A    between atoms: C_3  and  C_4
REMARK    4  A    between atoms: C_4  and  N_5
REMARK    5  A    between atoms: N_5  and  C_18
REMARK    6  A    between atoms: C_6  and  C_8
REMARK                            x       y       z     vdW  Elec       q    Type
REMARK                         _______ _______ _______ _____ _____    ______ ____
ROOT
ATOM      1  N   UNL     1       2.395   3.892  18.408  0.00  0.00    +0.000 N 
ATOM      2  C   UNL     1       3.635   3.267  18.077  0.00  0.00    +0.000 C 
ATOM      3  O   UNL     1       3.686   2.056  17.856  0.00  0.00    +0.000 OA
ENDROOT
BRANCH   2   4
ATOM      4  C   UNL     1       4.912   4.087  18.021  0.00  0.00    +0.000 A 
ATOM      5  N   UNL     1       5.422   4.478  19.229  0.00  0.00    +0.000 NA
ATOM      6  C   UNL     1       6.626   5.059  19.268  0.00  0.00    +0.000 A 
ATOM      7  C   UNL     1       7.353   5.319  18.136  0.00  0.00    +0.000 A 
ATOM      8  C   UNL     1       6.810   4.964  16.898  0.00  0.00    +0.000 A 
ATOM      9  C   UNL     1       7.548   5.202  15.734  0.00  0.00    +0.000 A 
ATOM     10  C   UNL     1       7.034   4.834  14.499  0.00  0.00    +0.000 A 
ATOM     11  C   UNL     1       5.784   4.253  14.471  0.00  0.00    +0.000 A 
ATOM     12  N   UNL     1       5.056   3.992  15.575  0.00  0.00    +0.000 NA
ATOM     13  C   UNL     1       5.543   4.337  16.793  0.00  0.00    +0.000 A 
ENDBRANCH   2   4
BRANCH   1  14
ATOM     14  C   UNL     1       2.208   5.351  18.343  0.00  0.00    +0.000 C 
ATOM     15  C   UNL     1       2.312   6.032  19.701  0.00  0.00    +0.000 C 
ATOM     16  C   UNL     1       2.420   7.484  19.311  0.00  0.00    +0.000 C 
ATOM     17  O   UNL     1       3.142   7.528  18.075  0.00  0.00    +0.000 OA
ATOM     18  C   UNL     1       3.169   6.201  17.512  0.00  0.00    +0.000 C 
ENDBRANCH   1  14
BRANCH   1  19
ATOM     19  C   UNL     1       1.216   3.020  18.611  0.00  0.00    +0.000 C 
BRANCH  19  20
ATOM     20  C   UNL     1       0.738   2.944  20.058  0.00  0.00    +0.000 C 
BRANCH  20  22
ATOM     21  C   UNL     1       2.215   3.104  21.883  0.00  0.00    +0.000 C 
ATOM     22  O   UNL     1       1.675   2.245  20.883  0.00  0.00    +0.000 OA
ENDBRANCH  20  22
ENDBRANCH  19  20
ENDBRANCH   1  19
TORSDOF 5
ENDMDL
MODEL 9
REMARK VINA RESULT:      -5.8      1.572      3.280
REMARK  Name = 
REMARK  6 active torsions:
REMARK  status: ('A' for Active; 'I' for Inactive)
REMARK    1  A    between atoms: C_1  and  O_2
REMARK    2  A    between atoms: O_2  and  C_3
REMARK    3  A    between atoms: C_3  and  C_4
REMARK    4  A    between atoms: C_4  and  N_5
REMARK    5  A    between atoms: N_5  and  C_18
REMARK    6  A    between atoms: C_6  and  C_8
REMARK                            x       y       z     vdW  Elec       q    Type
REMARK                         _______ _______ _______ _____ _____    ______ ____
ROOT
ATOM      1  N   UNL     1       3.021   4.278  18.631  0.00  0.00    +0.000 N 
ATOM      2  C   UNL     1       3.727   5.514  18.735  0.00  0.00    +0.000 C 
ATOM      3  O   UNL     1       3.139   6.546  19.065  0.00  0.00    +0.000 OA
ENDROOT
BRANCH   2   4
ATOM      4  C   UNL     1       5.211   5.576  18.414  0.00  0.00    +0.000 A 
ATOM      5  N   UNL     1       6.044   5.760  19.485  0.00  0.00    +0.000 NA
ATOM      6  C   UNL     1       7.365   5.661  19.302  0.00  0.00    +0.000 A 
ATOM      7  C   UNL     1       7.922   5.424  18.073  0.00  0.00    +0.000 A 
ATOM      8  C   UNL     1       7.072   5.285  16.973  0.00  0.00    +0.000 A 
ATOM      9  C   UNL     1       7.623   5.020  15.714  0.00  0.00    +0.000 A 
ATOM     10  C   UNL     1       6.793   4.855  14.614  0.00  0.00    +0.000 A 
ATOM     11  C   UNL     1       5.434   4.978  14.811  0.00  0.00    +0.000 A 
ATOM     12  N   UNL     1       4.871   5.213  16.013  0.00  0.00    +0.000 NA
ATOM     13  C   UNL     1       5.663   5.370  17.103  0.00  0.00    +0.000 A 
ENDBRANCH   2   4
BRANCH   1  14
ATOM     14  C   UNL     1       3.713   2.979  18.582  0.00  0.00    +0.000 C 
ATOM     15  C   UNL     1       4.336   2.579  19.913  0.00  0.00    +0.000 C 
ATOM     16  C   UNL     1       4.661   1.127  19.678  0.00  0.00    +0.000 C 
ATOM     17  O   UNL     1       3.640   0.607  18.818  0.00  0.00    +0.000 OA
ATOM     18  C   UNL     1       2.926   1.715  18.234  0.00  0.00    +0.000 C 
ENDBRANCH   1  14
BRANCH   1  19
ATOM     19  C   UNL     1       1.550   4.309  18.792  0.00  0.00    +0.000 C 
BRANCH  19  20
ATOM     20  C   UNL     1       1.080   4.249  20.242  0.00  0.00    +0.000 C 
BRANCH  20  22
ATOM     21  C   UNL     1       1.524   2.579  21.840  0.00  0.00    +0.000 C 
ATOM     22  O   UNL     1       0.811   2.904  20.650  0.00  0.00    +0.000 OA
ENDBRANCH  20  22
ENDBRANCH  19  20
ENDBRANCH   1  19
TORSDOF 5
ENDMDL
