MODEL 1
REMARK VINA RESULT:      -7.6      0.000      0.000
REMARK  Name = 
REMARK  1 active torsions:
REMARK  status: ('A' for Active; 'I' for Inactive)
REMARK    1  A    between atoms: C_1  and  C_2
REMARK                            x       y       z     vdW  Elec       q    Type
REMARK                         _______ _______ _______ _____ _____    ______ ____
ROOT
ATOM      1  C   UNL     1       7.544   5.234  12.855  0.00  0.00    +0.000 C 
ATOM      2  C   UNL     1       6.678   4.609  13.917  0.00  0.00    +0.000 C 
ATOM      3  O   UNL     1       6.412   3.413  13.870  0.00  0.00    +0.000 OA
ATOM      4  N   UNL     1       6.259   5.519  14.857  0.00  0.00    +0.000 N 
ATOM      5  C   UNL     1       5.474   5.208  15.959  0.00  0.00    +0.000 A 
ATOM      6  N   UNL     1       5.300   3.942  16.326  0.00  0.00    +0.000 NA
ATOM      7  C   UNL     1       4.458   3.696  17.332  0.00  0.00    +0.000 A 
ATOM      8  N   UNL     1       4.337   2.339  17.633  0.00  0.00    +0.000 N 
ATOM      9  C   UNL     1       3.759   4.707  18.002  0.00  0.00    +0.000 A 
ATOM     10  C   UNL     1       4.060   6.009  17.572  0.00  0.00    +0.000 A 
ATOM     11  C   UNL     1       3.423   7.081  18.180  0.00  0.00    +0.000 A 
ATOM     12  C   UNL     1       2.468   6.929  19.193  0.00  0.00    +0.000 A 
ATOM     13  C   UNL     1       2.166   5.628  19.595  0.00  0.00    +0.000 A 
ATOM     14  N   UNL     1       1.264   5.186  20.538  0.00  0.00    +0.000 N 
ATOM     15  C   UNL     1       1.294   3.822  20.614  0.00  0.00    +0.000 A 
ATOM     16  C   UNL     1       2.240   3.375  19.720  0.00  0.00    +0.000 A 
ATOM     17  C   UNL     1       2.791   4.507  19.045  0.00  0.00    +0.000 A 
ATOM     18  N   UNL     1       4.921   6.261  16.575  0.00  0.00    +0.000 NA
ATOM     19  H   UNL     1       6.385   6.508  14.715  0.00  0.00    +0.000 HD
ATOM     20  H   UNL     1       4.938   1.856  16.965  0.00  0.00    +0.000 HD
ATOM     21  H   UNL     1       3.376   2.038  17.528  0.00  0.00    +0.000 HD
ATOM     22  H   UNL     1       0.665   5.787  21.087  0.00  0.00    +0.000 HD
ENDROOT
TORSDOF 0
ENDMDL
MODEL 2
REMARK VINA RESULT:      -7.2      2.593      3.814
REMARK  Name = 
REMARK  1 active torsions:
REMARK  status: ('A' for Active; 'I' for Inactive)
REMARK    1  A    between atoms: C_1  and  C_2
REMARK                            x       y       z     vdW  Elec       q    Type
REMARK                         _______ _______ _______ _____ _____    ______ ____
ROOT
ATOM      1  C   UNL     1       5.726   3.774  15.551  0.00  0.00    +0.000 C 
ATOM      2  C   UNL     1       4.859   4.195  16.708  0.00  0.00    +0.000 C 
ATOM      3  O   UNL     1       4.458   3.362  17.513  0.00  0.00    +0.000 OA
ATOM      4  N   UNL     1       4.598   5.544  16.706  0.00  0.00    +0.000 N 
ATOM      5  C   UNL     1       3.849   6.203  17.672  0.00  0.00    +0.000 A 
ATOM      6  N   UNL     1       3.556   5.603  18.822  0.00  0.00    +0.000 NA
ATOM      7  C   UNL     1       2.750   6.245  19.671  0.00  0.00    +0.000 A 
ATOM      8  N   UNL     1       2.496   5.528  20.841  0.00  0.00    +0.000 N 
ATOM      9  C   UNL     1       2.208   7.506  19.397  0.00  0.00    +0.000 A 
ATOM     10  C   UNL     1       2.627   8.071  18.182  0.00  0.00    +0.000 A 
ATOM     11  C   UNL     1       2.150   9.323  17.825  0.00  0.00    +0.000 A 
ATOM     12  C   UNL     1       1.243  10.048  18.608  0.00  0.00    +0.000 A 
ATOM     13  C   UNL     1       0.822   9.465  19.802  0.00  0.00    +0.000 A 
ATOM     14  N   UNL     1      -0.068   9.933  20.743  0.00  0.00    +0.000 N 
ATOM     15  C   UNL     1      -0.187   9.034  21.766  0.00  0.00    +0.000 A 
ATOM     16  C   UNL     1       0.651   7.977  21.492  0.00  0.00    +0.000 A 
ATOM     17  C   UNL     1       1.285   8.221  20.235  0.00  0.00    +0.000 A 
ATOM     18  N   UNL     1       3.452   7.437  17.336  0.00  0.00    +0.000 NA
ATOM     19  H   UNL     1       4.826   6.116  15.909  0.00  0.00    +0.000 HD
ATOM     20  H   UNL     1       3.000   4.648  20.738  0.00  0.00    +0.000 HD
ATOM     21  H   UNL     1       1.503   5.359  20.943  0.00  0.00    +0.000 HD
ATOM     22  H   UNL     1      -0.564  10.811  20.680  0.00  0.00    +0.000 HD
ENDROOT
TORSDOF 0
ENDMDL
MODEL 3
REMARK VINA RESULT:      -7.1      1.909      2.265
REMARK  Name = 
REMARK  1 active torsions:
REMARK  status: ('A' for Active; 'I' for Inactive)
REMARK    1  A    between atoms: C_1  and  C_2
REMARK                            x       y       z     vdW  Elec       q    Type
REMARK                         _______ _______ _______ _____ _____    ______ ____
ROOT
ATOM      1  C   UNL     1       7.444   5.065  13.858  0.00  0.00    +0.000 C 
ATOM      2  C   UNL     1       6.985   4.708  15.247  0.00  0.00    +0.000 C 
ATOM      3  O   UNL     1       7.800   4.374  16.100  0.00  0.00    +0.000 OA
ATOM      4  N   UNL     1       5.621   4.794  15.389  0.00  0.00    +0.000 N 
ATOM      5  C   UNL     1       4.934   4.546  16.570  0.00  0.00    +0.000 A 
ATOM      6  N   UNL     1       5.588   4.470  17.725  0.00  0.00    +0.000 NA
ATOM      7  C   UNL     1       4.892   4.133  18.813  0.00  0.00    +0.000 A 
ATOM      8  N   UNL     1       5.669   4.071  19.971  0.00  0.00    +0.000 N 
ATOM      9  C   UNL     1       3.520   3.856  18.781  0.00  0.00    +0.000 A 
ATOM     10  C   UNL     1       2.920   4.021  17.523  0.00  0.00    +0.000 A 
ATOM     11  C   UNL     1       1.560   3.777  17.391  0.00  0.00    +0.000 A 
ATOM     12  C   UNL     1       0.754   3.347  18.451  0.00  0.00    +0.000 A 
ATOM     13  C   UNL     1       1.369   3.169  19.690  0.00  0.00    +0.000 A 
ATOM     14  N   UNL     1       0.834   2.739  20.884  0.00  0.00    +0.000 N 
ATOM     15  C   UNL     1       1.800   2.714  21.851  0.00  0.00    +0.000 A 
ATOM     16  C   UNL     1       2.973   3.151  21.279  0.00  0.00    +0.000 A 
ATOM     17  C   UNL     1       2.726   3.424  19.899  0.00  0.00    +0.000 A 
ATOM     18  N   UNL     1       3.613   4.379  16.432  0.00  0.00    +0.000 NA
ATOM     19  H   UNL     1       5.022   4.906  14.587  0.00  0.00    +0.000 HD
ATOM     20  H   UNL     1       6.619   4.293  19.674  0.00  0.00    +0.000 HD
ATOM     21  H   UNL     1       5.630   3.142  20.373  0.00  0.00    +0.000 HD
ATOM     22  H   UNL     1      -0.132   2.475  21.019  0.00  0.00    +0.000 HD
ENDROOT
TORSDOF 0
ENDMDL
MODEL 4
REMARK VINA RESULT:      -7.1      3.432      6.005
REMARK  Name = 
REMARK  1 active torsions:
REMARK  status: ('A' for Active; 'I' for Inactive)
REMARK    1  A    between atoms: C_1  and  C_2
REMARK                            x       y       z     vdW  Elec       q    Type
REMARK                         _______ _______ _______ _____ _____    ______ ____
ROOT
ATOM      1  C   UNL     1       0.420  10.795  20.949  0.00  0.00    +0.000 C 
ATOM      2  C   UNL     1       1.043   9.706  20.117  0.00  0.00    +0.000 C 
ATOM      3  O   UNL     1       1.412   9.939  18.971  0.00  0.00    +0.000 OA
ATOM      4  N   UNL     1       1.111   8.507  20.785  0.00  0.00    +0.000 N 
ATOM      5  C   UNL     1       1.663   7.345  20.263  0.00  0.00    +0.000 A 
ATOM      6  N   UNL     1       2.415   7.390  19.168  0.00  0.00    +0.000 NA
ATOM      7  C   UNL     1       2.838   6.232  18.656  0.00  0.00    +0.000 A 
ATOM      8  N   UNL     1       3.609   6.385  17.503  0.00  0.00    +0.000 N 
ATOM      9  C   UNL     1       2.521   4.991  19.220  0.00  0.00    +0.000 A 
ATOM     10  C   UNL     1       1.770   5.062  20.405  0.00  0.00    +0.000 A 
ATOM     11  C   UNL     1       1.412   3.884  21.044  0.00  0.00    +0.000 A 
ATOM     12  C   UNL     1       1.740   2.616  20.551  0.00  0.00    +0.000 A 
ATOM     13  C   UNL     1       2.468   2.562  19.363  0.00  0.00    +0.000 A 
ATOM     14  N   UNL     1       2.903   1.468  18.647  0.00  0.00    +0.000 N 
ATOM     15  C   UNL     1       3.588   1.875  17.537  0.00  0.00    +0.000 A 
ATOM     16  C   UNL     1       3.613   3.250  17.543  0.00  0.00    +0.000 A 
ATOM     17  C   UNL     1       2.886   3.708  18.684  0.00  0.00    +0.000 A 
ATOM     18  N   UNL     1       1.361   6.225  20.933  0.00  0.00    +0.000 NA
ATOM     19  H   UNL     1       0.625   8.370  21.656  0.00  0.00    +0.000 HD
ATOM     20  H   UNL     1       3.641   7.389  17.326  0.00  0.00    +0.000 HD
ATOM     21  H   UNL     1       3.180   5.901  16.724  0.00  0.00    +0.000 HD
ATOM     22  H   UNL     1       2.732   0.506  18.906  0.00  0.00    +0.000 HD
ENDROOT
TORSDOF 0
ENDMDL
MODEL 5
REMARK VINA RESULT:      -7.0      2.643      5.989
REMARK  Name = 
REMARK  1 active torsions:
REMARK  status: ('A' for Active; 'I' for Inactive)
REMARK    1  A    between atoms: C_1  and  C_2
REMARK                            x       y       z     vdW  Elec       q    Type
REMARK                         _______ _______ _______ _____ _____    ______ ____
ROOT
ATOM      1  C   UNL     1       1.302   2.569  22.178  0.00  0.00    +0.000 C 
ATOM      2  C   UNL     1       1.844   2.660  20.776  0.00  0.00    +0.000 C 
ATOM      3  O   UNL     1       1.414   1.920  19.899  0.00  0.00    +0.000 OA
ATOM      4  N   UNL     1       2.824   3.615  20.652  0.00  0.00    +0.000 N 
ATOM      5  C   UNL     1       3.475   3.927  19.466  0.00  0.00    +0.000 A 
ATOM      6  N   UNL     1       2.993   3.502  18.302  0.00  0.00    +0.000 NA
ATOM      7  C   UNL     1       3.711   3.747  17.205  0.00  0.00    +0.000 A 
ATOM      8  N   UNL     1       3.126   3.253  16.038  0.00  0.00    +0.000 N 
ATOM      9  C   UNL     1       4.937   4.423  17.234  0.00  0.00    +0.000 A 
ATOM     10  C   UNL     1       5.324   4.877  18.505  0.00  0.00    +0.000 A 
ATOM     11  C   UNL     1       6.521   5.565  18.637  0.00  0.00    +0.000 A 
ATOM     12  C   UNL     1       7.384   5.810  17.562  0.00  0.00    +0.000 A 
ATOM     13  C   UNL     1       6.995   5.335  16.310  0.00  0.00    +0.000 A 
ATOM     14  N   UNL     1       7.648   5.411  15.099  0.00  0.00    +0.000 N 
ATOM     15  C   UNL     1       6.900   4.814  14.123  0.00  0.00    +0.000 A 
ATOM     16  C   UNL     1       5.739   4.360  14.707  0.00  0.00    +0.000 A 
ATOM     17  C   UNL     1       5.790   4.662  16.102  0.00  0.00    +0.000 A 
ATOM     18  N   UNL     1       4.594   4.649  19.607  0.00  0.00    +0.000 NA
ATOM     19  H   UNL     1       3.231   4.051  21.464  0.00  0.00    +0.000 HD
ATOM     20  H   UNL     1       2.267   2.792  16.337  0.00  0.00    +0.000 HD
ATOM     21  H   UNL     1       3.745   2.590  15.586  0.00  0.00    +0.000 HD
ATOM     22  H   UNL     1       8.551   5.842  14.959  0.00  0.00    +0.000 HD
ENDROOT
TORSDOF 0
ENDMDL
MODEL 6
REMARK VINA RESULT:      -6.9      3.172      5.320
REMARK  Name = 
REMARK  1 active torsions:
REMARK  status: ('A' for Active; 'I' for Inactive)
REMARK    1  A    between atoms: C_1  and  C_2
REMARK                            x       y       z     vdW  Elec       q    Type
REMARK                         _______ _______ _______ _____ _____    ______ ____
ROOT
ATOM      1  C   UNL     1       1.102  11.172  19.049  0.00  0.00    +0.000 C 
ATOM      2  C   UNL     1       1.687   9.879  18.545  0.00  0.00    +0.000 C 
ATOM      3  O   UNL     1       2.174   9.819  17.421  0.00  0.00    +0.000 OA
ATOM      4  N   UNL     1       1.584   8.862  19.462  0.00  0.00    +0.000 N 
ATOM      5  C   UNL     1       2.065   7.574  19.268  0.00  0.00    +0.000 A 
ATOM      6  N   UNL     1       2.909   7.313  18.274  0.00  0.00    +0.000 NA
ATOM      7  C   UNL     1       3.261   6.042  18.075  0.00  0.00    +0.000 A 
ATOM      8  N   UNL     1       4.140   5.872  17.003  0.00  0.00    +0.000 N 
ATOM      9  C   UNL     1       2.780   4.988  18.860  0.00  0.00    +0.000 A 
ATOM     10  C   UNL     1       1.942   5.381  19.916  0.00  0.00    +0.000 A 
ATOM     11  C   UNL     1       1.420   4.409  20.756  0.00  0.00    +0.000 A 
ATOM     12  C   UNL     1       1.666   3.041  20.589  0.00  0.00    +0.000 A 
ATOM     13  C   UNL     1       2.485   2.665  19.525  0.00  0.00    +0.000 A 
ATOM     14  N   UNL     1       2.873   1.408  19.115  0.00  0.00    +0.000 N 
ATOM     15  C   UNL     1       3.686   1.501  18.020  0.00  0.00    +0.000 A 
ATOM     16  C   UNL     1       3.841   2.837  17.728  0.00  0.00    +0.000 A 
ATOM     17  C   UNL     1       3.066   3.593  18.659  0.00  0.00    +0.000 A 
ATOM     18  N   UNL     1       1.602   6.660  20.131  0.00  0.00    +0.000 NA
ATOM     19  H   UNL     1       1.015   8.962  20.287  0.00  0.00    +0.000 HD
ATOM     20  H   UNL     1       4.281   6.805  16.616  0.00  0.00    +0.000 HD
ATOM     21  H   UNL     1       3.734   5.257  16.309  0.00  0.00    +0.000 HD
ATOM     22  H   UNL     1       2.589   0.546  19.559  0.00  0.00    +0.000 HD
ENDROOT
TORSDOF 0
ENDMDL
MODEL 7
REMARK VINA RESULT:      -6.8      3.731      5.858
REMARK  Name = 
REMARK  1 active torsions:
REMARK  status: ('A' for Active; 'I' for Inactive)
REMARK    1  A    between atoms: C_1  and  C_2
REMARK                            x       y       z     vdW  Elec       q    Type
REMARK                         _______ _______ _______ _____ _____    ______ ____
ROOT
ATOM      1  C   UNL     1       0.850  12.506  18.531  0.00  0.00    +0.000 C 
ATOM      2  C   UNL     1       1.196  11.135  19.049  0.00  0.00    +0.000 C 
ATOM      3  O   UNL     1       0.970  10.841  20.218  0.00  0.00    +0.000 OA
ATOM      4  N   UNL     1       1.770  10.339  18.087  0.00  0.00    +0.000 N 
ATOM      5  C   UNL     1       2.161   9.022  18.285  0.00  0.00    +0.000 A 
ATOM      6  N   UNL     1       1.751   8.352  19.358  0.00  0.00    +0.000 NA
ATOM      7  C   UNL     1       2.237   7.123  19.547  0.00  0.00    +0.000 A 
ATOM      8  N   UNL     1       1.754   6.509  20.704  0.00  0.00    +0.000 N 
ATOM      9  C   UNL     1       3.150   6.524  18.672  0.00  0.00    +0.000 A 
ATOM     10  C   UNL     1       3.470   7.296  17.543  0.00  0.00    +0.000 A 
ATOM     11  C   UNL     1       4.362   6.785  16.612  0.00  0.00    +0.000 A 
ATOM     12  C   UNL     1       4.985   5.539  16.753  0.00  0.00    +0.000 A 
ATOM     13  C   UNL     1       4.671   4.793  17.889  0.00  0.00    +0.000 A 
ATOM     14  N   UNL     1       5.144   3.563  18.291  0.00  0.00    +0.000 N 
ATOM     15  C   UNL     1       4.563   3.201  19.474  0.00  0.00    +0.000 A 
ATOM     16  C   UNL     1       3.689   4.201  19.834  0.00  0.00    +0.000 A 
ATOM     17  C   UNL     1       3.760   5.235  18.850  0.00  0.00    +0.000 A 
ATOM     18  N   UNL     1       2.969   8.523  17.340  0.00  0.00    +0.000 NA
ATOM     19  H   UNL     1       2.073  10.724  17.207  0.00  0.00    +0.000 HD
ATOM     20  H   UNL     1       1.139   7.195  21.141  0.00  0.00    +0.000 HD
ATOM     21  H   UNL     1       2.520   6.274  21.324  0.00  0.00    +0.000 HD
ATOM     22  H   UNL     1       5.825   3.015  17.785  0.00  0.00    +0.000 HD
ENDROOT
TORSDOF 0
ENDMDL
MODEL 8
REMARK VINA RESULT:      -6.8      8.416     10.232
REMARK  Name = 
REMARK  1 active torsions:
REMARK  status: ('A' for Active; 'I' for Inactive)
REMARK    1  A    between atoms: C_1  and  C_2
REMARK                            x       y       z     vdW  Elec       q    Type
REMARK                         _______ _______ _______ _____ _____    ______ ____
ROOT
ATOM      1  C   UNL     1       7.766   6.536  18.389  0.00  0.00    +0.000 C 
ATOM      2  C   UNL     1       7.908   7.985  18.003  0.00  0.00    +0.000 C 
ATOM      3  O   UNL     1       7.323   8.421  17.017  0.00  0.00    +0.000 OA
ATOM      4  N   UNL     1       8.737   8.677  18.851  0.00  0.00    +0.000 N 
ATOM      5  C   UNL     1       9.022  10.031  18.744  0.00  0.00    +0.000 A 
ATOM      6  N   UNL     1       8.286  10.814  17.961  0.00  0.00    +0.000 NA
ATOM      7  C   UNL     1       8.665  12.086  17.820  0.00  0.00    +0.000 A 
ATOM      8  N   UNL     1       7.834  12.820  16.972  0.00  0.00    +0.000 N 
ATOM      9  C   UNL     1       9.793  12.617  18.454  0.00  0.00    +0.000 A 
ATOM     10  C   UNL     1      10.465  11.720  19.301  0.00  0.00    +0.000 A 
ATOM     11  C   UNL     1      11.593  12.155  19.981  0.00  0.00    +0.000 A 
ATOM     12  C   UNL     1      12.117  13.447  19.845  0.00  0.00    +0.000 A 
ATOM     13  C   UNL     1      11.450  14.319  18.986  0.00  0.00    +0.000 A 
ATOM     14  N   UNL     1      11.750  15.621  18.648  0.00  0.00    +0.000 N 
ATOM     15  C   UNL     1      10.823  16.103  17.768  0.00  0.00    +0.000 A 
ATOM     16  C   UNL     1       9.900  15.107  17.546  0.00  0.00    +0.000 A 
ATOM     17  C   UNL     1      10.294  13.955  18.294  0.00  0.00    +0.000 A 
ATOM     18  N   UNL     1      10.075  10.447  19.460  0.00  0.00    +0.000 NA
ATOM     19  H   UNL     1       9.307   8.195  19.528  0.00  0.00    +0.000 HD
ATOM     20  H   UNL     1       7.126  12.162  16.646  0.00  0.00    +0.000 HD
ATOM     21  H   UNL     1       8.364  13.187  16.190  0.00  0.00    +0.000 HD
ATOM     22  H   UNL     1      12.545  16.137  18.998  0.00  0.00    +0.000 HD
ENDROOT
TORSDOF 0
ENDMDL
MODEL 9
REMARK VINA RESULT:      -6.7      3.172      6.486
REMARK  Name = 
REMARK  1 active torsions:
REMARK  status: ('A' for Active; 'I' for Inactive)
REMARK    1  A    between atoms: C_1  and  C_2
REMARK                            x       y       z     vdW  Elec       q    Type
REMARK                         _______ _______ _______ _____ _____    ______ ____
ROOT
ATOM      1  C   UNL     1      -0.511   9.001  22.392  0.00  0.00    +0.000 C 
ATOM      2  C   UNL     1       0.331   8.650  21.194  0.00  0.00    +0.000 C 
ATOM      3  O   UNL     1       0.326   9.372  20.203  0.00  0.00    +0.000 OA
ATOM      4  N   UNL     1       1.035   7.483  21.369  0.00  0.00    +0.000 N 
ATOM      5  C   UNL     1       1.908   6.942  20.435  0.00  0.00    +0.000 A 
ATOM      6  N   UNL     1       2.330   7.671  19.407  0.00  0.00    +0.000 NA
ATOM      7  C   UNL     1       3.089   7.070  18.488  0.00  0.00    +0.000 A 
ATOM      8  N   UNL     1       3.471   7.917  17.446  0.00  0.00    +0.000 N 
ATOM      9  C   UNL     1       3.449   5.720  18.564  0.00  0.00    +0.000 A 
ATOM     10  C   UNL     1       2.997   5.059  19.719  0.00  0.00    +0.000 A 
ATOM     11  C   UNL     1       3.309   3.719  19.890  0.00  0.00    +0.000 A 
ATOM     12  C   UNL     1       4.036   2.976  18.951  0.00  0.00    +0.000 A 
ATOM     13  C   UNL     1       4.460   3.641  17.801  0.00  0.00    +0.000 A 
ATOM     14  N   UNL     1       5.161   3.163  16.716  0.00  0.00    +0.000 N 
ATOM     15  C   UNL     1       5.368   4.165  15.811  0.00  0.00    +0.000 A 
ATOM     16  C   UNL     1       4.809   5.313  16.324  0.00  0.00    +0.000 A 
ATOM     17  C   UNL     1       4.206   4.996  17.579  0.00  0.00    +0.000 A 
ATOM     18  N   UNL     1       2.251   5.665  20.653  0.00  0.00    +0.000 NA
ATOM     19  H   UNL     1       0.841   6.871  22.145  0.00  0.00    +0.000 HD
ATOM     20  H   UNL     1       3.038   8.817  17.652  0.00  0.00    +0.000 HD
ATOM     21  H   UNL     1       3.138   7.557  16.559  0.00  0.00    +0.000 HD
ATOM     22  H   UNL     1       5.470   2.207  16.608  0.00  0.00    +0.000 HD
ENDROOT
TORSDOF 0
ENDMDL
