MODEL 1
REMARK VINA RESULT:      -8.2      0.000      0.000
REMARK  Name = 
REMARK  11 active torsions:
REMARK  status: ('A' for Active; 'I' for Inactive)
REMARK    1  A    between atoms: N_1  and  C_2
REMARK    2  A    between atoms: C_2  and  C_3
REMARK    3  A    between atoms: C_6  and  O_7
REMARK    4  A    between atoms: O_7  and  C_8
REMARK    5  A    between atoms: C_10  and  O_11
REMARK    6  A    between atoms: O_11  and  C_12
REMARK    7  A    between atoms: C_15  and  C_16
REMARK    8  A    between atoms: C_16  and  N_17
REMARK    9  A    between atoms: C_21  and  C_22
REMARK   10  A    between atoms: N_24  and  C_25
REMARK   11  A    between atoms: C_28  and  N_29
REMARK                            x       y       z     vdW  Elec       q    Type
REMARK                         _______ _______ _______ _____ _____    ______ ____
ROOT
ATOM      1  C   UNL     1       1.507   8.856  19.557  0.00  0.00    +0.000 A 
ATOM      2  C   UNL     1       0.804   9.255  18.421  0.00  0.00    +0.000 A 
ATOM      3  C   UNL     1      -0.302  10.094  18.560  0.00  0.00    +0.000 A 
ATOM      4  C   UNL     1      -0.726  10.483  19.835  0.00  0.00    +0.000 A 
ATOM      5  C   UNL     1       0.038  10.177  20.971  0.00  0.00    +0.000 A 
ATOM      6  C   UNL     1       1.167   9.369  20.819  0.00  0.00    +0.000 A 
ENDROOT
BRANCH   5   7
ATOM      7  C   UNL     1      -0.390  10.769  22.275  0.00  0.00    +0.000 C 
ATOM      8  O   UNL     1      -0.058  10.222  23.322  0.00  0.00    +0.000 OA
ATOM      9  N   UNL     1      -1.177  11.910  22.256  0.00  0.00    +0.000 N 
ATOM     10  H   UNL     1      -1.531  12.278  21.388  0.00  0.00    +0.000 HD
BRANCH   9  11
ATOM     11  C   UNL     1      -1.728  12.460  23.493  0.00  0.00    +0.000 C 
ATOM     12  C   UNL     1      -1.505  13.974  23.577  0.00  0.00    +0.000 C 
ATOM     13  C   UNL     1      -2.476  14.786  22.717  0.00  0.00    +0.000 C 
ATOM     14  C   UNL     1      -3.944  14.411  22.951  0.00  0.00    +0.000 C 
ATOM     15  C   UNL     1      -4.139  12.902  22.769  0.00  0.00    +0.000 C 
ATOM     16  C   UNL     1      -3.205  12.071  23.652  0.00  0.00    +0.000 C 
BRANCH  14  17
ATOM     17  N   UNL     1      -4.390  14.857  24.271  0.00  0.00    +0.000 NA
ATOM     18  H   UNL     1      -3.831  15.644  24.601  0.00  0.00    +0.000 HD
ATOM     19  H   UNL     1      -4.247  14.112  24.953  0.00  0.00    +0.000 HD
ENDBRANCH  14  17
ENDBRANCH   9  11
ENDBRANCH   5   7
BRANCH   1  20
ATOM     20  O   UNL     1       2.556   7.975  19.368  0.00  0.00    +0.000 OA
BRANCH  20  24
ATOM     21  C   UNL     1       1.416   3.947  19.198  0.00  0.00    +0.000 A 
ATOM     22  C   UNL     1       1.890   4.588  18.045  0.00  0.00    +0.000 A 
ATOM     23  C   UNL     1       2.344   5.905  18.096  0.00  0.00    +0.000 A 
ATOM     24  C   UNL     1       2.251   6.630  19.285  0.00  0.00    +0.000 A 
ATOM     25  C   UNL     1       1.826   5.997  20.452  0.00  0.00    +0.000 A 
ATOM     26  C   UNL     1       1.409   4.662  20.407  0.00  0.00    +0.000 A 
BRANCH  21  27
ATOM     27  C   UNL     1       0.834   2.553  19.141  0.00  0.00    +0.000 C 
BRANCH  27  28
ATOM     28  N   UNL     1       1.700   1.596  18.460  0.00  0.00    +0.000 NA
ATOM     29  H   UNL     1       1.654   0.700  18.940  0.00  0.00    +0.000 HD
ATOM     30  H   UNL     1       2.665   1.916  18.537  0.00  0.00    +0.000 HD
ENDBRANCH  27  28
ENDBRANCH  21  27
ENDBRANCH  20  24
ENDBRANCH   1  20
BRANCH   3  31
ATOM     31  O   UNL     1      -0.948  10.478  17.401  0.00  0.00    +0.000 OA
BRANCH  31  32
ATOM     32  C   UNL     1      -2.262  10.897  17.481  0.00  0.00    +0.000 A 
ATOM     33  C   UNL     1      -2.794  11.598  18.569  0.00  0.00    +0.000 A 
ATOM     34  C   UNL     1      -4.149  11.921  18.608  0.00  0.00    +0.000 A 
ATOM     35  C   UNL     1      -4.983  11.615  17.528  0.00  0.00    +0.000 A 
ATOM     36  C   UNL     1      -4.429  10.983  16.404  0.00  0.00    +0.000 A 
ATOM     37  C   UNL     1      -3.076  10.623  16.382  0.00  0.00    +0.000 A 
BRANCH  35  38
ATOM     38  C   UNL     1      -6.447  11.968  17.585  0.00  0.00    +0.000 C 
BRANCH  38  39
ATOM     39  N   UNL     1      -7.181  11.065  18.462  0.00  0.00    +0.000 NA
ATOM     40  H   UNL     1      -6.897  11.246  19.425  0.00  0.00    +0.000 HD
ATOM     41  H   UNL     1      -6.905  10.108  18.256  0.00  0.00    +0.000 HD
ENDBRANCH  38  39
ENDBRANCH  35  38
ENDBRANCH  31  32
ENDBRANCH   3  31
TORSDOF 11
ENDMDL
MODEL 2
REMARK VINA RESULT:      -8.2      1.547      8.321
REMARK  Name = 
REMARK  11 active torsions:
REMARK  status: ('A' for Active; 'I' for Inactive)
REMARK    1  A    between atoms: N_1  and  C_2
REMARK    2  A    between atoms: C_2  and  C_3
REMARK    3  A    between atoms: C_6  and  O_7
REMARK    4  A    between atoms: O_7  and  C_8
REMARK    5  A    between atoms: C_10  and  O_11
REMARK    6  A    between atoms: O_11  and  C_12
REMARK    7  A    between atoms: C_15  and  C_16
REMARK    8  A    between atoms: C_16  and  N_17
REMARK    9  A    between atoms: C_21  and  C_22
REMARK   10  A    between atoms: N_24  and  C_25
REMARK   11  A    between atoms: C_28  and  N_29
REMARK                            x       y       z     vdW  Elec       q    Type
REMARK                         _______ _______ _______ _____ _____    ______ ____
ROOT
ATOM      1  C   UNL     1      -0.474  10.456  18.536  0.00  0.00    +0.000 A 
ATOM      2  C   UNL     1      -0.380  11.076  19.781  0.00  0.00    +0.000 A 
ATOM      3  C   UNL     1       0.533  10.594  20.719  0.00  0.00    +0.000 A 
ATOM      4  C   UNL     1       1.305   9.465  20.423  0.00  0.00    +0.000 A 
ATOM      5  C   UNL     1       1.296   8.903  19.138  0.00  0.00    +0.000 A 
ATOM      6  C   UNL     1       0.407   9.417  18.192  0.00  0.00    +0.000 A 
ENDROOT
BRANCH   5   7
ATOM      7  C   UNL     1       2.270   7.806  18.853  0.00  0.00    +0.000 C 
ATOM      8  O   UNL     1       3.148   7.984  18.015  0.00  0.00    +0.000 OA
ATOM      9  N   UNL     1       2.130   6.605  19.532  0.00  0.00    +0.000 N 
ATOM     10  H   UNL     1       1.338   6.441  20.131  0.00  0.00    +0.000 HD
BRANCH   9  11
ATOM     11  C   UNL     1       2.974   5.458  19.204  0.00  0.00    +0.000 C 
ATOM     12  C   UNL     1       2.864   4.364  20.272  0.00  0.00    +0.000 C 
ATOM     13  C   UNL     1       1.588   3.527  20.164  0.00  0.00    +0.000 C 
ATOM     14  C   UNL     1       1.347   2.976  18.755  0.00  0.00    +0.000 C 
ATOM     15  C   UNL     1       1.376   4.115  17.729  0.00  0.00    +0.000 C 
ATOM     16  C   UNL     1       2.665   4.939  17.793  0.00  0.00    +0.000 C 
BRANCH  14  17
ATOM     17  N   UNL     1       2.323   1.935  18.431  0.00  0.00    +0.000 NA
ATOM     18  H   UNL     1       1.886   1.014  18.415  0.00  0.00    +0.000 HD
ATOM     19  H   UNL     1       3.035   1.890  19.159  0.00  0.00    +0.000 HD
ENDBRANCH  14  17
ENDBRANCH   9  11
ENDBRANCH   5   7
BRANCH   1  20
ATOM     20  O   UNL     1      -1.438  10.934  17.668  0.00  0.00    +0.000 OA
BRANCH  20  24
ATOM     21  C   UNL     1      -5.139  11.911  19.372  0.00  0.00    +0.000 A 
ATOM     22  C   UNL     1      -3.972  12.538  19.830  0.00  0.00    +0.000 A 
ATOM     23  C   UNL     1      -2.741  12.283  19.227  0.00  0.00    +0.000 A 
ATOM     24  C   UNL     1      -2.645  11.331  18.211  0.00  0.00    +0.000 A 
ATOM     25  C   UNL     1      -3.799  10.731  17.711  0.00  0.00    +0.000 A 
ATOM     26  C   UNL     1      -5.040  11.019  18.291  0.00  0.00    +0.000 A 
BRANCH  21  27
ATOM     27  C   UNL     1      -6.464  12.105  20.073  0.00  0.00    +0.000 C 
BRANCH  27  28
ATOM     28  N   UNL     1      -6.360  12.034  21.527  0.00  0.00    +0.000 NA
ATOM     29  H   UNL     1      -7.219  12.386  21.943  0.00  0.00    +0.000 HD
ATOM     30  H   UNL     1      -5.614  12.659  21.833  0.00  0.00    +0.000 HD
ENDBRANCH  27  28
ENDBRANCH  21  27
ENDBRANCH  20  24
ENDBRANCH   1  20
BRANCH   3  31
ATOM     31  O   UNL     1       0.603  11.259  21.927  0.00  0.00    +0.000 OA
BRANCH  31  32
ATOM     32  C   UNL     1      -0.527  11.896  22.401  0.00  0.00    +0.000 A 
ATOM     33  C   UNL     1      -1.604  11.233  22.999  0.00  0.00    +0.000 A 
ATOM     34  C   UNL     1      -2.743  11.938  23.385  0.00  0.00    +0.000 A 
ATOM     35  C   UNL     1      -2.797  13.329  23.249  0.00  0.00    +0.000 A 
ATOM     36  C   UNL     1      -1.683  14.000  22.721  0.00  0.00    +0.000 A 
ATOM     37  C   UNL     1      -0.555  13.287  22.296  0.00  0.00    +0.000 A 
BRANCH  35  38
ATOM     38  C   UNL     1      -4.035  14.078  23.667  0.00  0.00    +0.000 C 
BRANCH  38  39
ATOM     39  N   UNL     1      -4.999  13.198  24.317  0.00  0.00    +0.000 NA
ATOM     40  H   UNL     1      -5.206  13.573  25.243  0.00  0.00    +0.000 HD
ATOM     41  H   UNL     1      -4.568  12.289  24.465  0.00  0.00    +0.000 HD
ENDBRANCH  38  39
ENDBRANCH  35  38
ENDBRANCH  31  32
ENDBRANCH   3  31
TORSDOF 11
ENDMDL
MODEL 3
REMARK VINA RESULT:      -8.1      1.275      7.935
REMARK  Name = 
REMARK  11 active torsions:
REMARK  status: ('A' for Active; 'I' for Inactive)
REMARK    1  A    between atoms: N_1  and  C_2
REMARK    2  A    between atoms: C_2  and  C_3
REMARK    3  A    between atoms: C_6  and  O_7
REMARK    4  A    between atoms: O_7  and  C_8
REMARK    5  A    between atoms: C_10  and  O_11
REMARK    6  A    between atoms: O_11  and  C_12
REMARK    7  A    between atoms: C_15  and  C_16
REMARK    8  A    between atoms: C_16  and  N_17
REMARK    9  A    between atoms: C_21  and  C_22
REMARK   10  A    between atoms: N_24  and  C_25
REMARK   11  A    between atoms: C_28  and  N_29
REMARK                            x       y       z     vdW  Elec       q    Type
REMARK                         _______ _______ _______ _____ _____    ______ ____
ROOT
ATOM      1  C   UNL     1       0.389  10.167  21.385  0.00  0.00    +0.000 A 
ATOM      2  C   UNL     1      -0.311  10.735  20.321  0.00  0.00    +0.000 A 
ATOM      3  C   UNL     1      -0.115  10.240  19.031  0.00  0.00    +0.000 A 
ATOM      4  C   UNL     1       0.816   9.219  18.810  0.00  0.00    +0.000 A 
ATOM      5  C   UNL     1       1.441   8.570  19.886  0.00  0.00    +0.000 A 
ATOM      6  C   UNL     1       1.210   9.046  21.177  0.00  0.00    +0.000 A 
ENDROOT
BRANCH   5   7
ATOM      7  C   UNL     1       2.293   7.381  19.578  0.00  0.00    +0.000 C 
ATOM      8  O   UNL     1       3.080   7.433  18.638  0.00  0.00    +0.000 OA
ATOM      9  N   UNL     1       2.144   6.242  20.354  0.00  0.00    +0.000 N 
ATOM     10  H   UNL     1       1.415   6.182  21.047  0.00  0.00    +0.000 HD
BRANCH   9  11
ATOM     11  C   UNL     1       2.858   5.012  20.022  0.00  0.00    +0.000 C 
ATOM     12  C   UNL     1       2.431   3.857  20.936  0.00  0.00    +0.000 C 
ATOM     13  C   UNL     1       1.081   3.243  20.558  0.00  0.00    +0.000 C 
ATOM     14  C   UNL     1       0.986   2.863  19.076  0.00  0.00    +0.000 C 
ATOM     15  C   UNL     1       1.333   4.071  18.198  0.00  0.00    +0.000 C 
ATOM     16  C   UNL     1       2.700   4.675  18.532  0.00  0.00    +0.000 C 
BRANCH  14  17
ATOM     17  N   UNL     1       1.844   1.717  18.778  0.00  0.00    +0.000 NA
ATOM     18  H   UNL     1       2.018   1.160  19.615  0.00  0.00    +0.000 HD
ATOM     19  H   UNL     1       2.759   2.041  18.467  0.00  0.00    +0.000 HD
ENDBRANCH  14  17
ENDBRANCH   9  11
ENDBRANCH   5   7
BRANCH   1  20
ATOM     20  O   UNL     1       0.206  10.736  22.631  0.00  0.00    +0.000 OA
BRANCH  20  24
ATOM     21  C   UNL     1      -2.876  13.569  22.815  0.00  0.00    +0.000 A 
ATOM     22  C   UNL     1      -3.105  12.259  23.256  0.00  0.00    +0.000 A 
ATOM     23  C   UNL     1      -2.073  11.321  23.273  0.00  0.00    +0.000 A 
ATOM     24  C   UNL     1      -0.816  11.656  22.768  0.00  0.00    +0.000 A 
ATOM     25  C   UNL     1      -0.556  12.965  22.368  0.00  0.00    +0.000 A 
ATOM     26  C   UNL     1      -1.582  13.916  22.390  0.00  0.00    +0.000 A 
BRANCH  21  27
ATOM     27  C   UNL     1      -4.003  14.570  22.701  0.00  0.00    +0.000 C 
BRANCH  27  28
ATOM     28  N   UNL     1      -4.240  15.310  23.937  0.00  0.00    +0.000 NA
ATOM     29  H   UNL     1      -5.102  14.980  24.366  0.00  0.00    +0.000 HD
ATOM     30  H   UNL     1      -4.389  16.292  23.707  0.00  0.00    +0.000 HD
ENDBRANCH  27  28
ENDBRANCH  21  27
ENDBRANCH  20  24
ENDBRANCH   1  20
BRANCH   3  31
ATOM     31  O   UNL     1      -0.851  10.821  18.018  0.00  0.00    +0.000 OA
BRANCH  31  32
ATOM     32  C   UNL     1      -2.194  11.068  18.229  0.00  0.00    +0.000 A 
ATOM     33  C   UNL     1      -2.680  12.078  19.066  0.00  0.00    +0.000 A 
ATOM     34  C   UNL     1      -4.050  12.217  19.285  0.00  0.00    +0.000 A 
ATOM     35  C   UNL     1      -4.963  11.396  18.616  0.00  0.00    +0.000 A 
ATOM     36  C   UNL     1      -4.475  10.436  17.717  0.00  0.00    +0.000 A 
ATOM     37  C   UNL     1      -3.097  10.270  17.527  0.00  0.00    +0.000 A 
BRANCH  35  38
ATOM     38  C   UNL     1      -6.440  11.556  18.866  0.00  0.00    +0.000 C 
BRANCH  38  39
ATOM     39  N   UNL     1      -7.143  10.285  18.744  0.00  0.00    +0.000 NA
ATOM     40  H   UNL     1      -7.169  10.022  17.760  0.00  0.00    +0.000 HD
ATOM     41  H   UNL     1      -8.110  10.414  19.032  0.00  0.00    +0.000 HD
ENDBRANCH  38  39
ENDBRANCH  35  38
ENDBRANCH  31  32
ENDBRANCH   3  31
TORSDOF 11
ENDMDL
MODEL 4
REMARK VINA RESULT:      -8.0      0.717      6.735
REMARK  Name = 
REMARK  11 active torsions:
REMARK  status: ('A' for Active; 'I' for Inactive)
REMARK    1  A    between atoms: N_1  and  C_2
REMARK    2  A    between atoms: C_2  and  C_3
REMARK    3  A    between atoms: C_6  and  O_7
REMARK    4  A    between atoms: O_7  and  C_8
REMARK    5  A    between atoms: C_10  and  O_11
REMARK    6  A    between atoms: O_11  and  C_12
REMARK    7  A    between atoms: C_15  and  C_16
REMARK    8  A    between atoms: C_16  and  N_17
REMARK    9  A    between atoms: C_21  and  C_22
REMARK   10  A    between atoms: N_24  and  C_25
REMARK   11  A    between atoms: C_28  and  N_29
REMARK                            x       y       z     vdW  Elec       q    Type
REMARK                         _______ _______ _______ _____ _____    ______ ____
ROOT
ATOM      1  C   UNL     1      -0.617  10.062  18.263  0.00  0.00    +0.000 A 
ATOM      2  C   UNL     1       0.487   9.220  18.143  0.00  0.00    +0.000 A 
ATOM      3  C   UNL     1       1.312   9.011  19.248  0.00  0.00    +0.000 A 
ATOM      4  C   UNL     1       1.055   9.685  20.447  0.00  0.00    +0.000 A 
ATOM      5  C   UNL     1      -0.113  10.445  20.609  0.00  0.00    +0.000 A 
ATOM      6  C   UNL     1      -0.954  10.618  19.509  0.00  0.00    +0.000 A 
ENDROOT
BRANCH   5   7
ATOM      7  C   UNL     1      -0.399  10.995  21.969  0.00  0.00    +0.000 C 
ATOM      8  O   UNL     1       0.115  10.469  22.951  0.00  0.00    +0.000 OA
ATOM      9  N   UNL     1      -1.264  12.074  22.077  0.00  0.00    +0.000 N 
ATOM     10  H   UNL     1      -1.761  12.418  21.272  0.00  0.00    +0.000 HD
BRANCH   9  11
ATOM     11  C   UNL     1      -1.677  12.572  23.387  0.00  0.00    +0.000 C 
ATOM     12  C   UNL     1      -1.436  14.081  23.509  0.00  0.00    +0.000 C 
ATOM     13  C   UNL     1      -2.488  14.930  22.791  0.00  0.00    +0.000 C 
ATOM     14  C   UNL     1      -3.925  14.550  23.164  0.00  0.00    +0.000 C 
ATOM     15  C   UNL     1      -4.149  13.050  22.942  0.00  0.00    +0.000 C 
ATOM     16  C   UNL     1      -3.131  12.180  23.686  0.00  0.00    +0.000 C 
BRANCH  14  17
ATOM     17  N   UNL     1      -4.226  14.940  24.541  0.00  0.00    +0.000 NA
ATOM     18  H   UNL     1      -3.927  15.899  24.724  0.00  0.00    +0.000 HD
ATOM     19  H   UNL     1      -3.696  14.358  25.189  0.00  0.00    +0.000 HD
ENDBRANCH  14  17
ENDBRANCH   9  11
ENDBRANCH   5   7
BRANCH   1  20
ATOM     20  O   UNL     1      -1.365  10.285  17.121  0.00  0.00    +0.000 OA
BRANCH  20  24
ATOM     21  C   UNL     1      -5.450  10.888  17.829  0.00  0.00    +0.000 A 
ATOM     22  C   UNL     1      -4.699  11.881  17.187  0.00  0.00    +0.000 A 
ATOM     23  C   UNL     1      -3.356  11.671  16.875  0.00  0.00    +0.000 A 
ATOM     24  C   UNL     1      -2.721  10.496  17.278  0.00  0.00    +0.000 A 
ATOM     25  C   UNL     1      -3.461   9.477  17.876  0.00  0.00    +0.000 A 
ATOM     26  C   UNL     1      -4.819   9.674  18.152  0.00  0.00    +0.000 A 
BRANCH  21  27
ATOM     27  C   UNL     1      -6.879  11.134  18.257  0.00  0.00    +0.000 C 
BRANCH  27  28
ATOM     28  N   UNL     1      -7.308  10.267  19.350  0.00  0.00    +0.000 NA
ATOM     29  H   UNL     1      -7.570  10.838  20.149  0.00  0.00    +0.000 HD
ATOM     30  H   UNL     1      -6.515   9.698  19.648  0.00  0.00    +0.000 HD
ENDBRANCH  27  28
ENDBRANCH  21  27
ENDBRANCH  20  24
ENDBRANCH   1  20
BRANCH   3  31
ATOM     31  O   UNL     1       2.378   8.149  19.082  0.00  0.00    +0.000 OA
BRANCH  31  32
ATOM     32  C   UNL     1       2.164   6.791  19.229  0.00  0.00    +0.000 A 
ATOM     33  C   UNL     1       1.812   6.183  20.438  0.00  0.00    +0.000 A 
ATOM     34  C   UNL     1       1.686   4.798  20.523  0.00  0.00    +0.000 A 
ATOM     35  C   UNL     1       1.839   4.000  19.385  0.00  0.00    +0.000 A 
ATOM     36  C   UNL     1       2.115   4.621  18.157  0.00  0.00    +0.000 A 
ATOM     37  C   UNL     1       2.280   6.010  18.080  0.00  0.00    +0.000 A 
BRANCH  35  38
ATOM     38  C   UNL     1       1.703   2.504  19.492  0.00  0.00    +0.000 C 
BRANCH  38  39
ATOM     39  N   UNL     1       2.095   1.841  18.254  0.00  0.00    +0.000 NA
ATOM     40  H   UNL     1       3.011   1.414  18.391  0.00  0.00    +0.000 HD
ATOM     41  H   UNL     1       2.211   2.542  17.527  0.00  0.00    +0.000 HD
ENDBRANCH  38  39
ENDBRANCH  35  38
ENDBRANCH  31  32
ENDBRANCH   3  31
TORSDOF 11
ENDMDL
MODEL 5
REMARK VINA RESULT:      -8.0      0.418      6.750
REMARK  Name = 
REMARK  11 active torsions:
REMARK  status: ('A' for Active; 'I' for Inactive)
REMARK    1  A    between atoms: N_1  and  C_2
REMARK    2  A    between atoms: C_2  and  C_3
REMARK    3  A    between atoms: C_6  and  O_7
REMARK    4  A    between atoms: O_7  and  C_8
REMARK    5  A    between atoms: C_10  and  O_11
REMARK    6  A    between atoms: O_11  and  C_12
REMARK    7  A    between atoms: C_15  and  C_16
REMARK    8  A    between atoms: C_16  and  N_17
REMARK    9  A    between atoms: C_21  and  C_22
REMARK   10  A    between atoms: N_24  and  C_25
REMARK   11  A    between atoms: C_28  and  N_29
REMARK                            x       y       z     vdW  Elec       q    Type
REMARK                         _______ _______ _______ _____ _____    ______ ____
ROOT
ATOM      1  C   UNL     1      -0.059   9.953  18.711  0.00  0.00    +0.000 A 
ATOM      2  C   UNL     1       0.948   8.990  18.782  0.00  0.00    +0.000 A 
ATOM      3  C   UNL     1       1.518   8.686  20.019  0.00  0.00    +0.000 A 
ATOM      4  C   UNL     1       1.114   9.384  21.162  0.00  0.00    +0.000 A 
ATOM      5  C   UNL     1       0.030  10.273  21.117  0.00  0.00    +0.000 A 
ATOM      6  C   UNL     1      -0.562  10.542  19.882  0.00  0.00    +0.000 A 
ENDROOT
BRANCH   5   7
ATOM      7  C   UNL     1      -0.447  10.851  22.411  0.00  0.00    +0.000 C 
ATOM      8  O   UNL     1      -0.174  10.279  23.462  0.00  0.00    +0.000 OA
ATOM      9  N   UNL     1      -1.211  12.007  22.376  0.00  0.00    +0.000 N 
ATOM     10  H   UNL     1      -1.518  12.396  21.500  0.00  0.00    +0.000 HD
BRANCH   9  11
ATOM     11  C   UNL     1      -1.808  12.546  23.597  0.00  0.00    +0.000 C 
ATOM     12  C   UNL     1      -1.613  14.064  23.688  0.00  0.00    +0.000 C 
ATOM     13  C   UNL     1      -2.572  14.860  22.800  0.00  0.00    +0.000 C 
ATOM     14  C   UNL     1      -4.039  14.461  22.990  0.00  0.00    +0.000 C 
ATOM     15  C   UNL     1      -4.204  12.948  22.801  0.00  0.00    +0.000 C 
ATOM     16  C   UNL     1      -3.282  12.132  23.712  0.00  0.00    +0.000 C 
BRANCH  14  17
ATOM     17  N   UNL     1      -4.532  14.897  24.296  0.00  0.00    +0.000 NA
ATOM     18  H   UNL     1      -4.279  14.230  25.025  0.00  0.00    +0.000 HD
ATOM     19  H   UNL     1      -5.551  14.924  24.290  0.00  0.00    +0.000 HD
ENDBRANCH  14  17
ENDBRANCH   9  11
ENDBRANCH   5   7
BRANCH   1  20
ATOM     20  O   UNL     1      -0.545  10.260  17.453  0.00  0.00    +0.000 OA
BRANCH  20  24
ATOM     21  C   UNL     1      -4.517  11.572  17.204  0.00  0.00    +0.000 A 
ATOM     22  C   UNL     1      -3.932  10.904  16.119  0.00  0.00    +0.000 A 
ATOM     23  C   UNL     1      -2.638  10.394  16.208  0.00  0.00    +0.000 A 
ATOM     24  C   UNL     1      -1.876  10.619  17.355  0.00  0.00    +0.000 A 
ATOM     25  C   UNL     1      -2.454  11.240  18.461  0.00  0.00    +0.000 A 
ATOM     26  C   UNL     1      -3.767  11.715  18.384  0.00  0.00    +0.000 A 
BRANCH  21  27
ATOM     27  C   UNL     1      -5.881  12.212  17.092  0.00  0.00    +0.000 C 
BRANCH  27  28
ATOM     28  N   UNL     1      -6.921  11.475  17.805  0.00  0.00    +0.000 NA
ATOM     29  H   UNL     1      -6.638  11.348  18.774  0.00  0.00    +0.000 HD
ATOM     30  H   UNL     1      -6.996  10.542  17.401  0.00  0.00    +0.000 HD
ENDBRANCH  27  28
ENDBRANCH  21  27
ENDBRANCH  20  24
ENDBRANCH   1  20
BRANCH   3  31
ATOM     31  O   UNL     1       2.493   7.709  20.037  0.00  0.00    +0.000 OA
BRANCH  31  32
ATOM     32  C   UNL     1       2.155   6.426  19.651  0.00  0.00    +0.000 A 
ATOM     33  C   UNL     1       2.339   5.926  18.358  0.00  0.00    +0.000 A 
ATOM     34  C   UNL     1       1.904   4.643  18.027  0.00  0.00    +0.000 A 
ATOM     35  C   UNL     1       1.343   3.811  19.000  0.00  0.00    +0.000 A 
ATOM     36  C   UNL     1       1.233   4.288  20.315  0.00  0.00    +0.000 A 
ATOM     37  C   UNL     1       1.633   5.590  20.638  0.00  0.00    +0.000 A 
BRANCH  35  38
ATOM     38  C   UNL     1       0.875   2.428  18.627  0.00  0.00    +0.000 C 
BRANCH  38  39
ATOM     39  N   UNL     1       1.897   1.425  18.898  0.00  0.00    +0.000 NA
ATOM     40  H   UNL     1       2.415   1.250  18.037  0.00  0.00    +0.000 HD
ATOM     41  H   UNL     1       1.443   0.549  19.143  0.00  0.00    +0.000 HD
ENDBRANCH  38  39
ENDBRANCH  35  38
ENDBRANCH  31  32
ENDBRANCH   3  31
TORSDOF 11
ENDMDL
MODEL 6
REMARK VINA RESULT:      -7.9      2.501      8.648
REMARK  Name = 
REMARK  11 active torsions:
REMARK  status: ('A' for Active; 'I' for Inactive)
REMARK    1  A    between atoms: N_1  and  C_2
REMARK    2  A    between atoms: C_2  and  C_3
REMARK    3  A    between atoms: C_6  and  O_7
REMARK    4  A    between atoms: O_7  and  C_8
REMARK    5  A    between atoms: C_10  and  O_11
REMARK    6  A    between atoms: O_11  and  C_12
REMARK    7  A    between atoms: C_15  and  C_16
REMARK    8  A    between atoms: C_16  and  N_17
REMARK    9  A    between atoms: C_21  and  C_22
REMARK   10  A    between atoms: N_24  and  C_25
REMARK   11  A    between atoms: C_28  and  N_29
REMARK                            x       y       z     vdW  Elec       q    Type
REMARK                         _______ _______ _______ _____ _____    ______ ____
ROOT
ATOM      1  C   UNL     1       0.848   9.427  18.693  0.00  0.00    +0.000 A 
ATOM      2  C   UNL     1       0.636   9.950  19.968  0.00  0.00    +0.000 A 
ATOM      3  C   UNL     1       1.086   9.242  21.082  0.00  0.00    +0.000 A 
ATOM      4  C   UNL     1       1.696   7.994  20.914  0.00  0.00    +0.000 A 
ATOM      5  C   UNL     1       2.011   7.514  19.635  0.00  0.00    +0.000 A 
ATOM      6  C   UNL     1       1.592   8.248  18.524  0.00  0.00    +0.000 A 
ENDROOT
BRANCH   5   7
ATOM      7  C   UNL     1       2.811   6.254  19.544  0.00  0.00    +0.000 C 
ATOM      8  O   UNL     1       2.380   5.229  20.064  0.00  0.00    +0.000 OA
ATOM      9  N   UNL     1       4.036   6.294  18.895  0.00  0.00    +0.000 N 
ATOM     10  H   UNL     1       4.421   7.167  18.574  0.00  0.00    +0.000 HD
BRANCH   9  11
ATOM     11  C   UNL     1       4.915   5.127  18.885  0.00  0.00    +0.000 C 
ATOM     12  C   UNL     1       4.843   4.388  17.543  0.00  0.00    +0.000 C 
ATOM     13  C   UNL     1       5.637   5.067  16.425  0.00  0.00    +0.000 C 
ATOM     14  C   UNL     1       7.082   5.388  16.823  0.00  0.00    +0.000 C 
ATOM     15  C   UNL     1       7.104   6.204  18.121  0.00  0.00    +0.000 C 
ATOM     16  C   UNL     1       6.349   5.522  19.265  0.00  0.00    +0.000 C 
BRANCH  14  17
ATOM     17  N   UNL     1       7.872   4.163  16.945  0.00  0.00    +0.000 NA
ATOM     18  H   UNL     1       8.465   4.190  17.775  0.00  0.00    +0.000 HD
ATOM     19  H   UNL     1       8.510   4.083  16.154  0.00  0.00    +0.000 HD
ENDBRANCH  14  17
ENDBRANCH   9  11
ENDBRANCH   5   7
BRANCH   1  20
ATOM     20  O   UNL     1       0.326  10.139  17.628  0.00  0.00    +0.000 OA
BRANCH  20  24
ATOM     21  C   UNL     1      -3.710  11.200  18.001  0.00  0.00    +0.000 A 
ATOM     22  C   UNL     1      -2.726  11.955  18.655  0.00  0.00    +0.000 A 
ATOM     23  C   UNL     1      -1.373  11.665  18.484  0.00  0.00    +0.000 A 
ATOM     24  C   UNL     1      -0.987  10.559  17.725  0.00  0.00    +0.000 A 
ATOM     25  C   UNL     1      -1.946   9.825  17.030  0.00  0.00    +0.000 A 
ATOM     26  C   UNL     1      -3.301  10.143  17.170  0.00  0.00    +0.000 A 
BRANCH  21  27
ATOM     27  C   UNL     1      -5.182  11.442  18.248  0.00  0.00    +0.000 C 
BRANCH  27  28
ATOM     28  N   UNL     1      -5.948  11.622  17.019  0.00  0.00    +0.000 NA
ATOM     29  H   UNL     1      -5.391  12.148  16.350  0.00  0.00    +0.000 HD
ATOM     30  H   UNL     1      -6.768  12.192  17.226  0.00  0.00    +0.000 HD
ENDBRANCH  27  28
ENDBRANCH  21  27
ENDBRANCH  20  24
ENDBRANCH   1  20
BRANCH   3  31
ATOM     31  O   UNL     1       0.872   9.816  22.320  0.00  0.00    +0.000 OA
BRANCH  31  32
ATOM     32  C   UNL     1      -0.051  10.838  22.427  0.00  0.00    +0.000 A 
ATOM     33  C   UNL     1       0.103  12.095  21.833  0.00  0.00    +0.000 A 
ATOM     34  C   UNL     1      -0.839  13.100  22.049  0.00  0.00    +0.000 A 
ATOM     35  C   UNL     1      -1.988  12.845  22.803  0.00  0.00    +0.000 A 
ATOM     36  C   UNL     1      -2.178  11.559  23.332  0.00  0.00    +0.000 A 
ATOM     37  C   UNL     1      -1.213  10.562  23.148  0.00  0.00    +0.000 A 
BRANCH  35  38
ATOM     38  C   UNL     1      -2.996  13.942  23.031  0.00  0.00    +0.000 C 
BRANCH  38  39
ATOM     39  N   UNL     1      -4.191  13.440  23.697  0.00  0.00    +0.000 NA
ATOM     40  H   UNL     1      -4.246  13.861  24.625  0.00  0.00    +0.000 HD
ATOM     41  H   UNL     1      -4.093  12.439  23.842  0.00  0.00    +0.000 HD
ENDBRANCH  38  39
ENDBRANCH  35  38
ENDBRANCH  31  32
ENDBRANCH   3  31
TORSDOF 11
ENDMDL
MODEL 7
REMARK VINA RESULT:      -7.9      1.298      8.169
REMARK  Name = 
REMARK  11 active torsions:
REMARK  status: ('A' for Active; 'I' for Inactive)
REMARK    1  A    between atoms: N_1  and  C_2
REMARK    2  A    between atoms: C_2  and  C_3
REMARK    3  A    between atoms: C_6  and  O_7
REMARK    4  A    between atoms: O_7  and  C_8
REMARK    5  A    between atoms: C_10  and  O_11
REMARK    6  A    between atoms: O_11  and  C_12
REMARK    7  A    between atoms: C_15  and  C_16
REMARK    8  A    between atoms: C_16  and  N_17
REMARK    9  A    between atoms: C_21  and  C_22
REMARK   10  A    between atoms: N_24  and  C_25
REMARK   11  A    between atoms: C_28  and  N_29
REMARK                            x       y       z     vdW  Elec       q    Type
REMARK                         _______ _______ _______ _____ _____    ______ ____
ROOT
ATOM      1  C   UNL     1      -0.218  10.686  18.708  0.00  0.00    +0.000 A 
ATOM      2  C   UNL     1      -0.287  11.106  20.036  0.00  0.00    +0.000 A 
ATOM      3  C   UNL     1       0.428  10.411  21.011  0.00  0.00    +0.000 A 
ATOM      4  C   UNL     1       1.163   9.273  20.658  0.00  0.00    +0.000 A 
ATOM      5  C   UNL     1       1.325   8.910  19.313  0.00  0.00    +0.000 A 
ATOM      6  C   UNL     1       0.637   9.635  18.338  0.00  0.00    +0.000 A 
ENDROOT
BRANCH   5   7
ATOM      7  C   UNL     1       2.259   7.784  19.007  0.00  0.00    +0.000 C 
ATOM      8  O   UNL     1       3.084   7.915  18.108  0.00  0.00    +0.000 OA
ATOM      9  N   UNL     1       2.142   6.611  19.737  0.00  0.00    +0.000 N 
ATOM     10  H   UNL     1       1.387   6.484  20.392  0.00  0.00    +0.000 HD
BRANCH   9  11
ATOM     11  C   UNL     1       2.942   5.436  19.398  0.00  0.00    +0.000 C 
ATOM     12  C   UNL     1       2.703   4.295  20.393  0.00  0.00    +0.000 C 
ATOM     13  C   UNL     1       1.393   3.540  20.158  0.00  0.00    +0.000 C 
ATOM     14  C   UNL     1       1.216   3.079  18.707  0.00  0.00    +0.000 C 
ATOM     15  C   UNL     1       1.373   4.268  17.752  0.00  0.00    +0.000 C 
ATOM     16  C   UNL     1       2.698   5.012  17.943  0.00  0.00    +0.000 C 
BRANCH  14  17
ATOM     17  N   UNL     1       2.153   2.003  18.386  0.00  0.00    +0.000 NA
ATOM     18  H   UNL     1       2.135   1.275  19.101  0.00  0.00    +0.000 HD
ATOM     19  H   UNL     1       3.106   2.364  18.386  0.00  0.00    +0.000 HD
ENDBRANCH  14  17
ENDBRANCH   9  11
ENDBRANCH   5   7
BRANCH   1  20
ATOM     20  O   UNL     1      -0.996  11.371  17.792  0.00  0.00    +0.000 OA
BRANCH  20  24
ATOM     21  C   UNL     1      -5.172  11.226  18.095  0.00  0.00    +0.000 A 
ATOM     22  C   UNL     1      -4.516  10.464  17.119  0.00  0.00    +0.000 A 
ATOM     23  C   UNL     1      -3.124  10.440  17.048  0.00  0.00    +0.000 A 
ATOM     24  C   UNL     1      -2.368  11.246  17.900  0.00  0.00    +0.000 A 
ATOM     25  C   UNL     1      -2.998  11.974  18.907  0.00  0.00    +0.000 A 
ATOM     26  C   UNL     1      -4.394  11.965  19.002  0.00  0.00    +0.000 A 
BRANCH  21  27
ATOM     27  C   UNL     1      -6.679  11.336  18.126  0.00  0.00    +0.000 C 
BRANCH  27  28
ATOM     28  N   UNL     1      -7.310  10.344  18.991  0.00  0.00    +0.000 NA
ATOM     29  H   UNL     1      -8.320  10.466  18.962  0.00  0.00    +0.000 HD
ATOM     30  H   UNL     1      -7.026  10.521  19.954  0.00  0.00    +0.000 HD
ENDBRANCH  27  28
ENDBRANCH  21  27
ENDBRANCH  20  24
ENDBRANCH   1  20
BRANCH   3  31
ATOM     31  O   UNL     1       0.345  10.883  22.306  0.00  0.00    +0.000 OA
BRANCH  31  32
ATOM     32  C   UNL     1      -0.706  11.714  22.644  0.00  0.00    +0.000 A 
ATOM     33  C   UNL     1      -1.906  11.265  23.207  0.00  0.00    +0.000 A 
ATOM     34  C   UNL     1      -2.949  12.156  23.452  0.00  0.00    +0.000 A 
ATOM     35  C   UNL     1      -2.787  13.523  23.208  0.00  0.00    +0.000 A 
ATOM     36  C   UNL     1      -1.554  13.980  22.717  0.00  0.00    +0.000 A 
ATOM     37  C   UNL     1      -0.520  13.080  22.434  0.00  0.00    +0.000 A 
BRANCH  35  38
ATOM     38  C   UNL     1      -3.924  14.474  23.475  0.00  0.00    +0.000 C 
BRANCH  38  39
ATOM     39  N   UNL     1      -3.569  15.845  23.127  0.00  0.00    +0.000 NA
ATOM     40  H   UNL     1      -4.418  16.341  22.859  0.00  0.00    +0.000 HD
ATOM     41  H   UNL     1      -2.972  15.832  22.303  0.00  0.00    +0.000 HD
ENDBRANCH  38  39
ENDBRANCH  35  38
ENDBRANCH  31  32
ENDBRANCH   3  31
TORSDOF 11
ENDMDL
MODEL 8
REMARK VINA RESULT:      -7.9      1.454      7.744
REMARK  Name = 
REMARK  11 active torsions:
REMARK  status: ('A' for Active; 'I' for Inactive)
REMARK    1  A    between atoms: N_1  and  C_2
REMARK    2  A    between atoms: C_2  and  C_3
REMARK    3  A    between atoms: C_6  and  O_7
REMARK    4  A    between atoms: O_7  and  C_8
REMARK    5  A    between atoms: C_10  and  O_11
REMARK    6  A    between atoms: O_11  and  C_12
REMARK    7  A    between atoms: C_15  and  C_16
REMARK    8  A    between atoms: C_16  and  N_17
REMARK    9  A    between atoms: C_21  and  C_22
REMARK   10  A    between atoms: N_24  and  C_25
REMARK   11  A    between atoms: C_28  and  N_29
REMARK                            x       y       z     vdW  Elec       q    Type
REMARK                         _______ _______ _______ _____ _____    ______ ____
ROOT
ATOM      1  C   UNL     1       0.598  10.716  20.479  0.00  0.00    +0.000 A 
ATOM      2  C   UNL     1      -0.374  11.013  19.524  0.00  0.00    +0.000 A 
ATOM      3  C   UNL     1      -0.424  10.269  18.345  0.00  0.00    +0.000 A 
ATOM      4  C   UNL     1       0.530   9.273  18.108  0.00  0.00    +0.000 A 
ATOM      5  C   UNL     1       1.439   8.896  19.107  0.00  0.00    +0.000 A 
ATOM      6  C   UNL     1       1.457   9.619  20.301  0.00  0.00    +0.000 A 
ENDROOT
BRANCH   5   7
ATOM      7  C   UNL     1       2.313   7.713  18.838  0.00  0.00    +0.000 C 
ATOM      8  O   UNL     1       3.129   7.764  17.922  0.00  0.00    +0.000 OA
ATOM      9  N   UNL     1       2.153   6.581  19.622  0.00  0.00    +0.000 N 
ATOM     10  H   UNL     1       1.404   6.521  20.293  0.00  0.00    +0.000 HD
BRANCH   9  11
ATOM     11  C   UNL     1       2.890   5.355  19.326  0.00  0.00    +0.000 C 
ATOM     12  C   UNL     1       2.676   4.299  20.416  0.00  0.00    +0.000 C 
ATOM     13  C   UNL     1       1.328   3.580  20.318  0.00  0.00    +0.000 C 
ATOM     14  C   UNL     1       1.046   3.022  18.919  0.00  0.00    +0.000 C 
ATOM     15  C   UNL     1       1.183   4.130  17.869  0.00  0.00    +0.000 C 
ATOM     16  C   UNL     1       2.542   4.835  17.923  0.00  0.00    +0.000 C 
BRANCH  14  17
ATOM     17  N   UNL     1       1.924   1.890  18.624  0.00  0.00    +0.000 NA
ATOM     18  H   UNL     1       2.306   1.957  17.680  0.00  0.00    +0.000 HD
ATOM     19  H   UNL     1       1.388   1.023  18.643  0.00  0.00    +0.000 HD
ENDBRANCH  14  17
ENDBRANCH   9  11
ENDBRANCH   5   7
BRANCH   1  20
ATOM     20  O   UNL     1       0.643  11.524  21.600  0.00  0.00    +0.000 OA
BRANCH  20  24
ATOM     21  C   UNL     1      -2.925  12.905  23.307  0.00  0.00    +0.000 A 
ATOM     22  C   UNL     1      -2.147  13.767  22.523  0.00  0.00    +0.000 A 
ATOM     23  C   UNL     1      -0.996  13.308  21.885  0.00  0.00    +0.000 A 
ATOM     24  C   UNL     1      -0.558  11.999  22.092  0.00  0.00    +0.000 A 
ATOM     25  C   UNL     1      -1.342  11.113  22.830  0.00  0.00    +0.000 A 
ATOM     26  C   UNL     1      -2.519  11.567  23.436  0.00  0.00    +0.000 A 
BRANCH  21  27
ATOM     27  C   UNL     1      -4.123  13.409  24.080  0.00  0.00    +0.000 C 
BRANCH  27  28
ATOM     28  N   UNL     1      -4.466  12.566  25.221  0.00  0.00    +0.000 NA
ATOM     29  H   UNL     1      -4.791  13.152  25.986  0.00  0.00    +0.000 HD
ATOM     30  H   UNL     1      -3.621  12.101  25.551  0.00  0.00    +0.000 HD
ENDBRANCH  27  28
ENDBRANCH  21  27
ENDBRANCH  20  24
ENDBRANCH   1  20
BRANCH   3  31
ATOM     31  O   UNL     1      -1.421  10.588  17.443  0.00  0.00    +0.000 OA
BRANCH  31  32
ATOM     32  C   UNL     1      -2.656  10.973  17.928  0.00  0.00    +0.000 A 
ATOM     33  C   UNL     1      -2.835  11.872  18.985  0.00  0.00    +0.000 A 
ATOM     34  C   UNL     1      -4.113  12.154  19.465  0.00  0.00    +0.000 A 
ATOM     35  C   UNL     1      -5.240  11.599  18.852  0.00  0.00    +0.000 A 
ATOM     36  C   UNL     1      -5.061  10.759  17.742  0.00  0.00    +0.000 A 
ATOM     37  C   UNL     1      -3.775  10.445  17.284  0.00  0.00    +0.000 A 
BRANCH  35  38
ATOM     38  C   UNL     1      -6.615  11.910  19.384  0.00  0.00    +0.000 C 
BRANCH  38  39
ATOM     39  N   UNL     1      -7.346  10.695  19.719  0.00  0.00    +0.000 NA
ATOM     40  H   UNL     1      -7.081   9.964  19.059  0.00  0.00    +0.000 HD
ATOM     41  H   UNL     1      -8.340  10.859  19.580  0.00  0.00    +0.000 HD
ENDBRANCH  38  39
ENDBRANCH  35  38
ENDBRANCH  31  32
ENDBRANCH   3  31
TORSDOF 11
ENDMDL
MODEL 9
REMARK VINA RESULT:      -7.9      1.691      8.207
REMARK  Name = 
REMARK  11 active torsions:
REMARK  status: ('A' for Active; 'I' for Inactive)
REMARK    1  A    between atoms: N_1  and  C_2
REMARK    2  A    between atoms: C_2  and  C_3
REMARK    3  A    between atoms: C_6  and  O_7
REMARK    4  A    between atoms: O_7  and  C_8
REMARK    5  A    between atoms: C_10  and  O_11
REMARK    6  A    between atoms: O_11  and  C_12
REMARK    7  A    between atoms: C_15  and  C_16
REMARK    8  A    between atoms: C_16  and  N_17
REMARK    9  A    between atoms: C_21  and  C_22
REMARK   10  A    between atoms: N_24  and  C_25
REMARK   11  A    between atoms: C_28  and  N_29
REMARK                            x       y       z     vdW  Elec       q    Type
REMARK                         _______ _______ _______ _____ _____    ______ ____
ROOT
ATOM      1  C   UNL     1       0.943   9.212  20.486  0.00  0.00    +0.000 A 
ATOM      2  C   UNL     1       0.217   9.936  19.540  0.00  0.00    +0.000 A 
ATOM      3  C   UNL     1       0.449   9.715  18.183  0.00  0.00    +0.000 A 
ATOM      4  C   UNL     1       1.441   8.812  17.784  0.00  0.00    +0.000 A 
ATOM      5  C   UNL     1       2.097   8.002  18.723  0.00  0.00    +0.000 A 
ATOM      6  C   UNL     1       1.830   8.202  20.078  0.00  0.00    +0.000 A 
ENDROOT
BRANCH   5   7
ATOM      7  C   UNL     1       3.020   6.947  18.204  0.00  0.00    +0.000 C 
ATOM      8  O   UNL     1       4.057   7.281  17.638  0.00  0.00    +0.000 OA
ATOM      9  N   UNL     1       2.658   5.618  18.358  0.00  0.00    +0.000 N 
ATOM     10  H   UNL     1       1.753   5.369  18.723  0.00  0.00    +0.000 HD
BRANCH   9  11
ATOM     11  C   UNL     1       3.458   4.551  17.761  0.00  0.00    +0.000 C 
ATOM     12  C   UNL     1       4.470   3.986  18.765  0.00  0.00    +0.000 C 
ATOM     13  C   UNL     1       3.851   3.029  19.786  0.00  0.00    +0.000 C 
ATOM     14  C   UNL     1       3.009   1.923  19.140  0.00  0.00    +0.000 C 
ATOM     15  C   UNL     1       1.953   2.535  18.214  0.00  0.00    +0.000 C 
ATOM     16  C   UNL     1       2.556   3.465  17.157  0.00  0.00    +0.000 C 
BRANCH  14  17
ATOM     17  N   UNL     1       3.861   0.970  18.429  0.00  0.00    +0.000 NA
ATOM     18  H   UNL     1       3.584   0.009  18.629  0.00  0.00    +0.000 HD
ATOM     19  H   UNL     1       4.822   1.053  18.759  0.00  0.00    +0.000 HD
ENDBRANCH  14  17
ENDBRANCH   9  11
ENDBRANCH   5   7
BRANCH   1  20
ATOM     20  O   UNL     1       0.718   9.514  21.816  0.00  0.00    +0.000 OA
BRANCH  20  24
ATOM     21  C   UNL     1      -1.224  13.065  22.902  0.00  0.00    +0.000 A 
ATOM     22  C   UNL     1      -0.164  13.101  21.985  0.00  0.00    +0.000 A 
ATOM     23  C   UNL     1       0.447  11.924  21.554  0.00  0.00    +0.000 A 
ATOM     24  C   UNL     1       0.063  10.698  22.099  0.00  0.00    +0.000 A 
ATOM     25  C   UNL     1      -1.019  10.636  22.975  0.00  0.00    +0.000 A 
ATOM     26  C   UNL     1      -1.657  11.815  23.376  0.00  0.00    +0.000 A 
BRANCH  21  27
ATOM     27  C   UNL     1      -1.834  14.334  23.450  0.00  0.00    +0.000 C 
BRANCH  27  28
ATOM     28  N   UNL     1      -1.242  14.757  24.715  0.00  0.00    +0.000 NA
ATOM     29  H   UNL     1      -1.981  14.924  25.394  0.00  0.00    +0.000 HD
ATOM     30  H   UNL     1      -0.771  15.650  24.574  0.00  0.00    +0.000 HD
ENDBRANCH  27  28
ENDBRANCH  21  27
ENDBRANCH  20  24
ENDBRANCH   1  20
BRANCH   3  31
ATOM     31  O   UNL     1      -0.314  10.440  17.289  0.00  0.00    +0.000 OA
BRANCH  31  32
ATOM     32  C   UNL     1      -1.657  10.624  17.558  0.00  0.00    +0.000 A 
ATOM     33  C   UNL     1      -2.172  11.734  18.236  0.00  0.00    +0.000 A 
ATOM     34  C   UNL     1      -3.532  11.811  18.535  0.00  0.00    +0.000 A 
ATOM     35  C   UNL     1      -4.412  10.817  18.098  0.00  0.00    +0.000 A 
ATOM     36  C   UNL     1      -3.903   9.745  17.349  0.00  0.00    +0.000 A 
ATOM     37  C   UNL     1      -2.532   9.647  17.084  0.00  0.00    +0.000 A 
BRANCH  35  38
ATOM     38  C   UNL     1      -5.879  10.912  18.430  0.00  0.00    +0.000 C 
BRANCH  38  39
ATOM     39  N   UNL     1      -6.589  11.760  17.481  0.00  0.00    +0.000 NA
ATOM     40  H   UNL     1      -7.339  12.242  17.975  0.00  0.00    +0.000 HD
ATOM     41  H   UNL     1      -7.038  11.170  16.784  0.00  0.00    +0.000 HD
ENDBRANCH  38  39
ENDBRANCH  35  38
ENDBRANCH  31  32
ENDBRANCH   3  31
TORSDOF 11
ENDMDL
