MODEL 1
REMARK VINA RESULT:      -6.8      0.000      0.000
REMARK  Name = 
REMARK  7 active torsions:
REMARK  status: ('A' for Active; 'I' for Inactive)
REMARK    1  A    between atoms: C_1  and  O_2
REMARK    2  A    between atoms: O_2  and  C_3
REMARK    3  A    between atoms: C_11  and  O_12
REMARK    4  A    between atoms: C_11  and  O_14
REMARK    5  A    between atoms: O_12  and  C_13
REMARK    6  A    between atoms: O_14  and  C_15
REMARK    7  A    between atoms: N_21  and  C_22
REMARK                            x       y       z     vdW  Elec       q    Type
REMARK                         _______ _______ _______ _____ _____    ______ ____
ROOT
ATOM      1  C   UNL     1       7.373   5.893  18.313  0.00  0.00    +0.000 A 
ATOM      2  C   UNL     1       7.647   5.866  16.936  0.00  0.00    +0.000 A 
ATOM      3  C   UNL     1       6.640   5.447  16.073  0.00  0.00    +0.000 A 
ATOM      4  C   UNL     1       5.458   5.022  16.656  0.00  0.00    +0.000 A 
ATOM      5  C   UNL     1       5.582   4.384  17.871  0.00  0.00    +0.000 A 
ATOM      6  C   UNL     1       6.267   5.157  18.746  0.00  0.00    +0.000 A 
ATOM      7  O   UNL     1       5.312   5.525  19.693  0.00  0.00    +0.000 OA
ATOM      8  C   UNL     1       4.150   4.452  19.709  0.00  0.00    +0.000 C 
ATOM      9  C   UNL     1       2.446   3.772  18.736  0.00  0.00    +0.000 C 
ATOM     10  C   UNL     1       2.018   4.963  18.000  0.00  0.00    +0.000 C 
ATOM     11  C   UNL     1       3.194   5.285  18.774  0.00  0.00    +0.000 C 
ATOM     12  C   UNL     1       3.704   6.457  17.801  0.00  0.00    +0.000 C 
ATOM     13  C   UNL     1       4.285   6.033  16.616  0.00  0.00    +0.000 C 
ATOM     14  C   UNL     1       2.431   5.116  20.603  0.00  0.00    +0.000 C 
ATOM     15  N   UNL     1       2.618   3.546  21.433  0.00  0.00    +0.000 NA
ATOM     16  C   UNL     1       1.484   2.584  21.476  0.00  0.00    +0.000 C 
ATOM     17  C   UNL     1       3.828   2.582  21.136  0.00  0.00    +0.000 C 
ATOM     18  C   UNL     1       4.528   2.478  19.591  0.00  0.00    +0.000 C 
ATOM     19  C   UNL     1       4.394   3.828  18.524  0.00  0.00    +0.000 C 
ENDROOT
BRANCH   1  21
ATOM     20  C   UNL     1       8.289   8.072  18.396  0.00  0.00    +0.000 C 
ATOM     21  O   UNL     1       8.148   6.790  18.973  0.00  0.00    +0.000 OA
ENDBRANCH   1  21
BRANCH   9  22
ATOM     22  O   UNL     1       1.161   3.513  19.362  0.00  0.00    +0.000 OA
ATOM     23  C   UNL     1       0.213   2.576  18.865  0.00  0.00    +0.000 C 
ENDBRANCH   9  22
BRANCH   9  24
ATOM     24  O   UNL     1       2.630   2.618  17.832  0.00  0.00    +0.000 OA
ATOM     25  C   UNL     1       2.590   2.756  16.419  0.00  0.00    +0.000 C 
ENDBRANCH   9  24
TORSDOF 3
ENDMDL
MODEL 2
REMARK VINA RESULT:      -6.7      1.808      3.406
REMARK  Name = 
REMARK  7 active torsions:
REMARK  status: ('A' for Active; 'I' for Inactive)
REMARK    1  A    between atoms: C_1  and  O_2
REMARK    2  A    between atoms: O_2  and  C_3
REMARK    3  A    between atoms: C_11  and  O_12
REMARK    4  A    between atoms: C_11  and  O_14
REMARK    5  A    between atoms: O_12  and  C_13
REMARK    6  A    between atoms: O_14  and  C_15
REMARK    7  A    between atoms: N_21  and  C_22
REMARK                            x       y       z     vdW  Elec       q    Type
REMARK                         _______ _______ _______ _____ _____    ______ ____
ROOT
ATOM      1  C   UNL     1       6.424   5.269  15.705  0.00  0.00    +0.000 A 
ATOM      2  C   UNL     1       7.204   6.347  16.157  0.00  0.00    +0.000 A 
ATOM      3  C   UNL     1       6.997   6.811  17.452  0.00  0.00    +0.000 A 
ATOM      4  C   UNL     1       5.981   6.208  18.174  0.00  0.00    +0.000 A 
ATOM      5  C   UNL     1       4.885   5.800  17.445  0.00  0.00    +0.000 A 
ATOM      6  C   UNL     1       5.264   4.988  16.432  0.00  0.00    +0.000 A 
ATOM      7  O   UNL     1       4.762   3.738  16.791  0.00  0.00    +0.000 OA
ATOM      8  C   UNL     1       3.532   3.930  17.768  0.00  0.00    +0.000 C 
ATOM      9  C   UNL     1       2.953   4.359  19.715  0.00  0.00    +0.000 C 
ATOM     10  C   UNL     1       4.144   3.981  20.478  0.00  0.00    +0.000 C 
ATOM     11  C   UNL     1       4.373   3.703  19.080  0.00  0.00    +0.000 C 
ATOM     12  C   UNL     1       5.970   3.864  19.150  0.00  0.00    +0.000 C 
ATOM     13  C   UNL     1       6.432   5.168  19.231  0.00  0.00    +0.000 C 
ATOM     14  C   UNL     1       3.049   2.241  18.822  0.00  0.00    +0.000 C 
ATOM     15  N   UNL     1       1.432   2.691  18.212  0.00  0.00    +0.000 NA
ATOM     16  C   UNL     1       0.285   2.808  19.152  0.00  0.00    +0.000 C 
ATOM     17  C   UNL     1       1.205   3.951  17.293  0.00  0.00    +0.000 C 
ATOM     18  C   UNL     1       2.146   5.357  17.459  0.00  0.00    +0.000 C 
ATOM     19  C   UNL     1       3.728   5.226  18.136  0.00  0.00    +0.000 C 
ENDROOT
BRANCH   1  21
ATOM     20  C   UNL     1       6.229   4.038  13.695  0.00  0.00    +0.000 C 
ATOM     21  O   UNL     1       7.042   4.566  14.723  0.00  0.00    +0.000 OA
ENDBRANCH   1  21
BRANCH   9  22
ATOM     22  O   UNL     1       2.014   3.586  20.509  0.00  0.00    +0.000 OA
ATOM     23  C   UNL     1       2.237   3.220  21.865  0.00  0.00    +0.000 C 
ENDBRANCH   9  22
BRANCH   9  24
ATOM     24  O   UNL     1       2.563   5.759  19.984  0.00  0.00    +0.000 OA
ATOM     25  C   UNL     1       1.468   6.085  20.828  0.00  0.00    +0.000 C 
ENDBRANCH   9  24
TORSDOF 3
ENDMDL
MODEL 3
REMARK VINA RESULT:      -6.6      9.426     12.129
REMARK  Name = 
REMARK  7 active torsions:
REMARK  status: ('A' for Active; 'I' for Inactive)
REMARK    1  A    between atoms: C_1  and  O_2
REMARK    2  A    between atoms: O_2  and  C_3
REMARK    3  A    between atoms: C_11  and  O_12
REMARK    4  A    between atoms: C_11  and  O_14
REMARK    5  A    between atoms: O_12  and  C_13
REMARK    6  A    between atoms: O_14  and  C_15
REMARK    7  A    between atoms: N_21  and  C_22
REMARK                            x       y       z     vdW  Elec       q    Type
REMARK                         _______ _______ _______ _____ _____    ______ ____
ROOT
ATOM      1  C   UNL     1       8.385  12.349  23.135  0.00  0.00    +0.000 A 
ATOM      2  C   UNL     1       8.400  13.313  24.156  0.00  0.00    +0.000 A 
ATOM      3  C   UNL     1       8.782  14.610  23.830  0.00  0.00    +0.000 A 
ATOM      4  C   UNL     1       9.184  14.830  22.524  0.00  0.00    +0.000 A 
ATOM      5  C   UNL     1       9.841  13.785  21.912  0.00  0.00    +0.000 A 
ATOM      6  C   UNL     1       9.097  12.656  21.973  0.00  0.00    +0.000 A 
ATOM      7  O   UNL     1       8.718  12.428  20.651  0.00  0.00    +0.000 OA
ATOM      8  C   UNL     1       9.760  13.117  19.680  0.00  0.00    +0.000 C 
ATOM      9  C   UNL     1      10.383  14.914  18.847  0.00  0.00    +0.000 C 
ATOM     10  C   UNL     1       9.172  15.731  18.942  0.00  0.00    +0.000 C 
ATOM     11  C   UNL     1       8.891  14.411  19.455  0.00  0.00    +0.000 C 
ATOM     12  C   UNL     1       7.720  14.878  20.450  0.00  0.00    +0.000 C 
ATOM     13  C   UNL     1       8.143  15.517  21.605  0.00  0.00    +0.000 C 
ATOM     14  C   UNL     1       9.064  13.367  17.770  0.00  0.00    +0.000 C 
ATOM     15  N   UNL     1      10.649  12.623  17.421  0.00  0.00    +0.000 NA
ATOM     16  C   UNL     1      11.583  13.269  16.459  0.00  0.00    +0.000 C 
ATOM     17  C   UNL     1      11.640  12.188  18.566  0.00  0.00    +0.000 C 
ATOM     18  C   UNL     1      11.741  13.044  20.030  0.00  0.00    +0.000 C 
ATOM     19  C   UNL     1      10.375  13.956  20.558  0.00  0.00    +0.000 C 
ENDROOT
BRANCH   1  21
ATOM     20  C   UNL     1       6.221  11.696  23.833  0.00  0.00    +0.000 C 
ATOM     21  O   UNL     1       7.516  11.339  23.395  0.00  0.00    +0.000 OA
ENDBRANCH   1  21
BRANCH   9  22
ATOM     22  O   UNL     1      10.618  15.155  17.434  0.00  0.00    +0.000 OA
ATOM     23  C   UNL     1      10.519  16.435  16.823  0.00  0.00    +0.000 C 
ENDBRANCH   9  22
BRANCH   9  24
ATOM     24  O   UNL     1      11.531  15.573  19.506  0.00  0.00    +0.000 OA
ATOM     25  C   UNL     1      11.460  16.912  19.973  0.00  0.00    +0.000 C 
ENDBRANCH   9  24
TORSDOF 3
ENDMDL
MODEL 4
REMARK VINA RESULT:      -6.5      7.916     12.618
REMARK  Name = 
REMARK  7 active torsions:
REMARK  status: ('A' for Active; 'I' for Inactive)
REMARK    1  A    between atoms: C_1  and  O_2
REMARK    2  A    between atoms: O_2  and  C_3
REMARK    3  A    between atoms: C_11  and  O_12
REMARK    4  A    between atoms: C_11  and  O_14
REMARK    5  A    between atoms: O_12  and  C_13
REMARK    6  A    between atoms: O_14  and  C_15
REMARK    7  A    between atoms: N_21  and  C_22
REMARK                            x       y       z     vdW  Elec       q    Type
REMARK                         _______ _______ _______ _____ _____    ______ ____
ROOT
ATOM      1  C   UNL     1       9.562  11.023  18.655  0.00  0.00    +0.000 A 
ATOM      2  C   UNL     1       9.438  10.438  19.927  0.00  0.00    +0.000 A 
ATOM      3  C   UNL     1       9.457  11.272  21.039  0.00  0.00    +0.000 A 
ATOM      4  C   UNL     1       9.667  12.620  20.802  0.00  0.00    +0.000 A 
ATOM      5  C   UNL     1      10.498  12.924  19.746  0.00  0.00    +0.000 A 
ATOM      6  C   UNL     1      10.062  12.326  18.612  0.00  0.00    +0.000 A 
ATOM      7  O   UNL     1       9.626  13.385  17.817  0.00  0.00    +0.000 OA
ATOM      8  C   UNL     1      10.370  14.711  18.255  0.00  0.00    +0.000 C 
ATOM      9  C   UNL     1      10.451  16.233  19.665  0.00  0.00    +0.000 C 
ATOM     10  C   UNL     1       9.091  16.220  20.208  0.00  0.00    +0.000 C 
ATOM     11  C   UNL     1       9.192  15.224  19.167  0.00  0.00    +0.000 C 
ATOM     12  C   UNL     1       8.044  14.268  19.755  0.00  0.00    +0.000 C 
ATOM     13  C   UNL     1       8.406  13.518  20.863  0.00  0.00    +0.000 C 
ATOM     14  C   UNL     1       9.454  16.422  17.600  0.00  0.00    +0.000 C 
ATOM     15  N   UNL     1      11.132  16.763  17.094  0.00  0.00    +0.000 NA
ATOM     16  C   UNL     1      11.782  18.045  17.477  0.00  0.00    +0.000 C 
ATOM     17  C   UNL     1      12.304  15.739  17.339  0.00  0.00    +0.000 C 
ATOM     18  C   UNL     1      12.333  14.725  18.702  0.00  0.00    +0.000 C 
ATOM     19  C   UNL     1      10.841  14.321  19.471  0.00  0.00    +0.000 C 
ENDROOT
BRANCH   1  21
ATOM     20  C   UNL     1       8.405   9.042  18.078  0.00  0.00    +0.000 C 
ATOM     21  O   UNL     1       8.996  10.263  17.684  0.00  0.00    +0.000 OA
ENDBRANCH   1  21
BRANCH   9  22
ATOM     22  O   UNL     1      10.483  17.656  19.373  0.00  0.00    +0.000 OA
ATOM     23  C   UNL     1       9.742  18.629  20.099  0.00  0.00    +0.000 C 
ENDBRANCH   9  22
BRANCH   9  24
ATOM     24  O   UNL     1      11.459  16.076  20.734  0.00  0.00    +0.000 OA
ATOM     25  C   UNL     1      11.180  16.412  22.085  0.00  0.00    +0.000 C 
ENDBRANCH   9  24
TORSDOF 3
ENDMDL
MODEL 5
REMARK VINA RESULT:      -6.2      7.822     12.184
REMARK  Name = 
REMARK  7 active torsions:
REMARK  status: ('A' for Active; 'I' for Inactive)
REMARK    1  A    between atoms: C_1  and  O_2
REMARK    2  A    between atoms: O_2  and  C_3
REMARK    3  A    between atoms: C_11  and  O_12
REMARK    4  A    between atoms: C_11  and  O_14
REMARK    5  A    between atoms: O_12  and  C_13
REMARK    6  A    between atoms: O_14  and  C_15
REMARK    7  A    between atoms: N_21  and  C_22
REMARK                            x       y       z     vdW  Elec       q    Type
REMARK                         _______ _______ _______ _____ _____    ______ ____
ROOT
ATOM      1  C   UNL     1       9.457  11.335  18.445  0.00  0.00    +0.000 A 
ATOM      2  C   UNL     1      10.667  11.169  17.752  0.00  0.00    +0.000 A 
ATOM      3  C   UNL     1      11.521  12.261  17.648  0.00  0.00    +0.000 A 
ATOM      4  C   UNL     1      11.071  13.456  18.184  0.00  0.00    +0.000 A 
ATOM      5  C   UNL     1       9.714  13.679  18.102  0.00  0.00    +0.000 A 
ATOM      6  C   UNL     1       9.029  12.649  18.651  0.00  0.00    +0.000 A 
ATOM      7  O   UNL     1       8.460  13.194  19.801  0.00  0.00    +0.000 OA
ATOM      8  C   UNL     1       8.317  14.759  19.624  0.00  0.00    +0.000 C 
ATOM      9  C   UNL     1       9.321  16.576  19.655  0.00  0.00    +0.000 C 
ATOM     10  C   UNL     1      10.478  16.272  20.499  0.00  0.00    +0.000 C 
ATOM     11  C   UNL     1       9.641  15.099  20.406  0.00  0.00    +0.000 C 
ATOM     12  C   UNL     1      10.828  14.043  20.643  0.00  0.00    +0.000 C 
ATOM     13  C   UNL     1      11.670  13.845  19.560  0.00  0.00    +0.000 C 
ATOM     14  C   UNL     1       8.044  15.764  21.388  0.00  0.00    +0.000 C 
ATOM     15  N   UNL     1       6.722  16.479  20.423  0.00  0.00    +0.000 NA
ATOM     16  C   UNL     1       6.584  17.957  20.323  0.00  0.00    +0.000 C 
ATOM     17  C   UNL     1       6.443  16.044  18.934  0.00  0.00    +0.000 C 
ATOM     18  C   UNL     1       7.700  15.577  17.891  0.00  0.00    +0.000 C 
ATOM     19  C   UNL     1       9.158  14.951  18.571  0.00  0.00    +0.000 C 
ENDROOT
BRANCH   1  21
ATOM     20  C   UNL     1       8.319   9.295  18.073  0.00  0.00    +0.000 C 
ATOM     21  O   UNL     1       8.993  10.167  18.957  0.00  0.00    +0.000 OA
ENDBRANCH   1  21
BRANCH   9  22
ATOM     22  O   UNL     1       8.907  17.760  20.388  0.00  0.00    +0.000 OA
ATOM     23  C   UNL     1       9.807  18.624  21.070  0.00  0.00    +0.000 C 
ENDBRANCH   9  22
BRANCH   9  24
ATOM     24  O   UNL     1       9.739  17.111  18.342  0.00  0.00    +0.000 OA
ATOM     25  C   UNL     1      11.082  17.489  18.078  0.00  0.00    +0.000 C 
ENDBRANCH   9  24
TORSDOF 3
ENDMDL
MODEL 6
REMARK VINA RESULT:      -6.2      2.068      3.483
REMARK  Name = 
REMARK  7 active torsions:
REMARK  status: ('A' for Active; 'I' for Inactive)
REMARK    1  A    between atoms: C_1  and  O_2
REMARK    2  A    between atoms: O_2  and  C_3
REMARK    3  A    between atoms: C_11  and  O_12
REMARK    4  A    between atoms: C_11  and  O_14
REMARK    5  A    between atoms: O_12  and  C_13
REMARK    6  A    between atoms: O_14  and  C_15
REMARK    7  A    between atoms: N_21  and  C_22
REMARK                            x       y       z     vdW  Elec       q    Type
REMARK                         _______ _______ _______ _____ _____    ______ ____
ROOT
ATOM      1  C   UNL     1       5.760   4.405  14.630  0.00  0.00    +0.000 A 
ATOM      2  C   UNL     1       5.971   5.759  14.320  0.00  0.00    +0.000 A 
ATOM      3  C   UNL     1       5.633   6.712  15.274  0.00  0.00    +0.000 A 
ATOM      4  C   UNL     1       5.046   6.246  16.438  0.00  0.00    +0.000 A 
ATOM      5  C   UNL     1       4.232   5.143  16.302  0.00  0.00    +0.000 A 
ATOM      6  C   UNL     1       4.897   4.133  15.694  0.00  0.00    +0.000 A 
ATOM      7  O   UNL     1       5.048   3.175  16.695  0.00  0.00    +0.000 OA
ATOM      8  C   UNL     1       3.915   3.370  17.783  0.00  0.00    +0.000 C 
ATOM      9  C   UNL     1       3.294   4.498  19.411  0.00  0.00    +0.000 C 
ATOM     10  C   UNL     1       4.558   5.052  19.900  0.00  0.00    +0.000 C 
ATOM     11  C   UNL     1       4.826   4.196  18.769  0.00  0.00    +0.000 C 
ATOM     12  C   UNL     1       6.167   4.953  18.315  0.00  0.00    +0.000 C 
ATOM     13  C   UNL     1       5.975   6.168  17.676  0.00  0.00    +0.000 C 
ATOM     14  C   UNL     1       4.319   2.444  19.565  0.00  0.00    +0.000 C 
ATOM     15  N   UNL     1       2.651   1.866  19.293  0.00  0.00    +0.000 NA
ATOM     16  C   UNL     1       1.625   2.016  20.360  0.00  0.00    +0.000 C 
ATOM     17  C   UNL     1       1.825   2.268  18.013  0.00  0.00    +0.000 C 
ATOM     18  C   UNL     1       2.013   3.784  17.269  0.00  0.00    +0.000 C 
ATOM     19  C   UNL     1       3.505   4.629  17.467  0.00  0.00    +0.000 C 
ENDROOT
BRANCH   1  21
ATOM     20  C   UNL     1       6.360   3.460  12.546  0.00  0.00    +0.000 C 
ATOM     21  O   UNL     1       6.588   3.584  13.934  0.00  0.00    +0.000 OA
ENDBRANCH   1  21
BRANCH   9  22
ATOM     22  O   UNL     1       2.858   3.968  20.691  0.00  0.00    +0.000 OA
ATOM     23  C   UNL     1       2.119   4.717  21.648  0.00  0.00    +0.000 C 
ENDBRANCH   9  22
BRANCH   9  24
ATOM     24  O   UNL     1       2.312   5.566  19.126  0.00  0.00    +0.000 OA
ATOM     25  C   UNL     1       2.601   6.935  19.367  0.00  0.00    +0.000 C 
ENDBRANCH   9  24
TORSDOF 3
ENDMDL
MODEL 7
REMARK VINA RESULT:      -6.2      8.723     11.158
REMARK  Name = 
REMARK  7 active torsions:
REMARK  status: ('A' for Active; 'I' for Inactive)
REMARK    1  A    between atoms: C_1  and  O_2
REMARK    2  A    between atoms: O_2  and  C_3
REMARK    3  A    between atoms: C_11  and  O_12
REMARK    4  A    between atoms: C_11  and  O_14
REMARK    5  A    between atoms: O_12  and  C_13
REMARK    6  A    between atoms: O_14  and  C_15
REMARK    7  A    between atoms: N_21  and  C_22
REMARK                            x       y       z     vdW  Elec       q    Type
REMARK                         _______ _______ _______ _____ _____    ______ ____
ROOT
ATOM      1  C   UNL     1      -3.430  12.711  23.493  0.00  0.00    +0.000 A 
ATOM      2  C   UNL     1      -3.105  13.737  24.396  0.00  0.00    +0.000 A 
ATOM      3  C   UNL     1      -1.959  14.486  24.154  0.00  0.00    +0.000 A 
ATOM      4  C   UNL     1      -1.187  14.110  23.068  0.00  0.00    +0.000 A 
ATOM      5  C   UNL     1      -1.153  12.760  22.792  0.00  0.00    +0.000 A 
ATOM      6  C   UNL     1      -2.408  12.274  22.647  0.00  0.00    +0.000 A 
ATOM      7  O   UNL     1      -2.494  11.957  21.292  0.00  0.00    +0.000 OA
ATOM      8  C   UNL     1      -1.042  11.696  20.721  0.00  0.00    +0.000 C 
ATOM      9  C   UNL     1       0.716  12.585  20.065  0.00  0.00    +0.000 C 
ATOM     10  C   UNL     1       0.256  13.919  19.674  0.00  0.00    +0.000 C 
ATOM     11  C   UNL     1      -0.876  13.146  20.127  0.00  0.00    +0.000 C 
ATOM     12  C   UNL     1      -1.743  14.408  20.609  0.00  0.00    +0.000 C 
ATOM     13  C   UNL     1      -1.336  14.988  21.800  0.00  0.00    +0.000 C 
ATOM     14  C   UNL     1      -0.935  11.783  18.677  0.00  0.00    +0.000 C 
ATOM     15  N   UNL     1      -0.082  10.240  18.961  0.00  0.00    +0.000 NA
ATOM     16  C   UNL     1       1.260  10.007  18.362  0.00  0.00    +0.000 C 
ATOM     17  C   UNL     1       0.121   9.650  20.408  0.00  0.00    +0.000 C 
ATOM     18  C   UNL     1       0.333  10.657  21.760  0.00  0.00    +0.000 C 
ATOM     19  C   UNL     1      -0.299  12.262  21.712  0.00  0.00    +0.000 C 
ENDROOT
BRANCH   1  21
ATOM     20  C   UNL     1      -5.565  13.174  22.584  0.00  0.00    +0.000 C 
ATOM     21  O   UNL     1      -4.760  12.439  23.482  0.00  0.00    +0.000 OA
ENDBRANCH   1  21
BRANCH   9  22
ATOM     22  O   UNL     1       1.400  12.290  18.818  0.00  0.00    +0.000 OA
ATOM     23  C   UNL     1       2.204  13.228  18.115  0.00  0.00    +0.000 C 
ENDBRANCH   9  22
BRANCH   9  24
ATOM     24  O   UNL     1       1.813  12.662  21.052  0.00  0.00    +0.000 OA
ATOM     25  C   UNL     1       2.614  13.826  21.195  0.00  0.00    +0.000 C 
ENDBRANCH   9  24
TORSDOF 3
ENDMDL
MODEL 8
REMARK VINA RESULT:      -6.1      9.648     12.154
REMARK  Name = 
REMARK  7 active torsions:
REMARK  status: ('A' for Active; 'I' for Inactive)
REMARK    1  A    between atoms: C_1  and  O_2
REMARK    2  A    between atoms: O_2  and  C_3
REMARK    3  A    between atoms: C_11  and  O_12
REMARK    4  A    between atoms: C_11  and  O_14
REMARK    5  A    between atoms: O_12  and  C_13
REMARK    6  A    between atoms: O_14  and  C_15
REMARK    7  A    between atoms: N_21  and  C_22
REMARK                            x       y       z     vdW  Elec       q    Type
REMARK                         _______ _______ _______ _____ _____    ______ ____
ROOT
ATOM      1  C   UNL     1       8.571  13.969  23.672  0.00  0.00    +0.000 A 
ATOM      2  C   UNL     1       7.795  12.805  23.804  0.00  0.00    +0.000 A 
ATOM      3  C   UNL     1       7.683  11.962  22.704  0.00  0.00    +0.000 A 
ATOM      4  C   UNL     1       8.299  12.377  21.536  0.00  0.00    +0.000 A 
ATOM      5  C   UNL     1       8.313  13.737  21.315  0.00  0.00    +0.000 A 
ATOM      6  C   UNL     1       8.860  14.384  22.370  0.00  0.00    +0.000 A 
ATOM      7  O   UNL     1      10.067  14.878  21.877  0.00  0.00    +0.000 OA
ATOM      8  C   UNL     1       9.967  15.035  20.306  0.00  0.00    +0.000 C 
ATOM      9  C   UNL     1      10.012  14.032  18.488  0.00  0.00    +0.000 C 
ATOM     10  C   UNL     1      10.767  12.823  18.824  0.00  0.00    +0.000 C 
ATOM     11  C   UNL     1      10.677  13.663  19.996  0.00  0.00    +0.000 C 
ATOM     12  C   UNL     1      10.791  12.462  21.056  0.00  0.00    +0.000 C 
ATOM     13  C   UNL     1       9.648  11.692  21.204  0.00  0.00    +0.000 C 
ATOM     14  C   UNL     1      11.787  15.195  19.379  0.00  0.00    +0.000 C 
ATOM     15  N   UNL     1      10.940  16.577  18.628  0.00  0.00    +0.000 NA
ATOM     16  C   UNL     1      10.914  16.722  17.148  0.00  0.00    +0.000 C 
ATOM     17  C   UNL     1       9.456  16.950  19.000  0.00  0.00    +0.000 C 
ATOM     18  C   UNL     1       8.314  15.762  19.417  0.00  0.00    +0.000 C 
ATOM     19  C   UNL     1       8.871  14.263  20.066  0.00  0.00    +0.000 C 
ENDROOT
BRANCH   1  21
ATOM     20  C   UNL     1       8.596  13.744  26.027  0.00  0.00    +0.000 C 
ATOM     21  O   UNL     1       9.060  14.397  24.863  0.00  0.00    +0.000 OA
ENDBRANCH   1  21
BRANCH   9  22
ATOM     22  O   UNL     1      10.821  14.400  17.339  0.00  0.00    +0.000 OA
ATOM     23  C   UNL     1      11.504  13.460  16.519  0.00  0.00    +0.000 C 
ENDBRANCH   9  22
BRANCH   9  24
ATOM     24  O   UNL     1       8.699  13.700  17.896  0.00  0.00    +0.000 OA
ATOM     25  C   UNL     1       8.369  12.379  17.495  0.00  0.00    +0.000 C 
ENDBRANCH   9  24
TORSDOF 3
ENDMDL
MODEL 9
REMARK VINA RESULT:      -6.0      9.495     11.597
REMARK  Name = 
REMARK  7 active torsions:
REMARK  status: ('A' for Active; 'I' for Inactive)
REMARK    1  A    between atoms: C_1  and  O_2
REMARK    2  A    between atoms: O_2  and  C_3
REMARK    3  A    between atoms: C_11  and  O_12
REMARK    4  A    between atoms: C_11  and  O_14
REMARK    5  A    between atoms: O_12  and  C_13
REMARK    6  A    between atoms: O_14  and  C_15
REMARK    7  A    between atoms: N_21  and  C_22
REMARK                            x       y       z     vdW  Elec       q    Type
REMARK                         _______ _______ _______ _____ _____    ______ ____
ROOT
ATOM      1  C   UNL     1      -1.493  14.958  24.525  0.00  0.00    +0.000 A 
ATOM      2  C   UNL     1      -2.845  14.707  24.816  0.00  0.00    +0.000 A 
ATOM      3  C   UNL     1      -3.543  13.831  23.993  0.00  0.00    +0.000 A 
ATOM      4  C   UNL     1      -2.859  13.325  22.901  0.00  0.00    +0.000 A 
ATOM      5  C   UNL     1      -1.940  14.172  22.321  0.00  0.00    +0.000 A 
ATOM      6  C   UNL     1      -1.056  14.617  23.243  0.00  0.00    +0.000 A 
ATOM      7  O   UNL     1       0.146  14.010  22.882  0.00  0.00    +0.000 OA
ATOM      8  C   UNL     1       0.111  13.652  21.342  0.00  0.00    +0.000 C 
ATOM      9  C   UNL     1      -0.609  12.324  19.917  0.00  0.00    +0.000 C 
ATOM     10  C   UNL     1      -0.855  11.122  20.715  0.00  0.00    +0.000 C 
ATOM     11  C   UNL     1      -0.305  12.149  21.568  0.00  0.00    +0.000 C 
ATOM     12  C   UNL     1      -0.986  11.610  22.919  0.00  0.00    +0.000 C 
ATOM     13  C   UNL     1      -2.341  11.871  23.045  0.00  0.00    +0.000 C 
ATOM     14  C   UNL     1       1.520  12.274  20.786  0.00  0.00    +0.000 C 
ATOM     15  N   UNL     1       1.797  13.514  19.531  0.00  0.00    +0.000 NA
ATOM     16  C   UNL     1       1.812  13.132  18.093  0.00  0.00    +0.000 C 
ATOM     17  C   UNL     1       0.971  14.855  19.483  0.00  0.00    +0.000 C 
ATOM     18  C   UNL     1      -0.654  14.919  19.977  0.00  0.00    +0.000 C 
ATOM     19  C   UNL     1      -1.227  13.751  21.111  0.00  0.00    +0.000 C 
ENDROOT
BRANCH   1  21
ATOM     20  C   UNL     1      -1.178  16.541  26.255  0.00  0.00    +0.000 C 
ATOM     21  O   UNL     1      -0.793  15.336  25.624  0.00  0.00    +0.000 OA
ENDBRANCH   1  21
BRANCH   9  22
ATOM     22  O   UNL     1       0.186  11.667  18.895  0.00  0.00    +0.000 OA
ATOM     23  C   UNL     1      -0.024  10.326  18.469  0.00  0.00    +0.000 C 
ENDBRANCH   9  22
BRANCH   9  24
ATOM     24  O   UNL     1      -1.826  12.746  19.191  0.00  0.00    +0.000 OA
ATOM     25  C   UNL     1      -2.947  11.887  19.042  0.00  0.00    +0.000 C 
ENDBRANCH   9  24
TORSDOF 3
ENDMDL
