MODEL 1
REMARK VINA RESULT:      -8.0      0.000      0.000
REMARK  Name = 
REMARK  10 active torsions:
REMARK  status: ('A' for Active; 'I' for Inactive)
REMARK    1  A    between atoms: C_1  and  C_2
REMARK    2  A    between atoms: C_2  and  C_3
REMARK    3  A    between atoms: C_3  and  N_4
REMARK    4  A    between atoms: N_7  and  C_8
REMARK    5  A    between atoms: C_8  and  C_9
REMARK    6  A    between atoms: C_9  and  O_10
REMARK    7  A    between atoms: C_14  and  C_16
REMARK    8  A    between atoms: C_16  and  C_17
REMARK    9  A    between atoms: C_16  and  C_18
REMARK   10  A    between atoms: C_18  and  C_19
REMARK                            x       y       z     vdW  Elec       q    Type
REMARK                         _______ _______ _______ _____ _____    ______ ____
ROOT
ATOM      1  C   UNL     1       2.871   6.685  18.850  0.00  0.00    +0.000 C 
ATOM      2  C   UNL     1       3.775   7.231  17.724  0.00  0.00    +0.000 C 
ATOM      3  C   UNL     1       5.063   6.448  17.500  0.00  0.00    +0.000 C 
ATOM      4  N   UNL     1       4.798   5.022  17.419  0.00  0.00    +0.000 N 
ATOM      5  C   UNL     1       5.155   4.170  16.378  0.00  0.00    +0.000 C 
ATOM      6  O   UNL     1       4.839   2.977  16.393  0.00  0.00    +0.000 OA
ATOM      7  C   UNL     1       4.129   4.478  18.603  0.00  0.00    +0.000 C 
ATOM      8  C   UNL     1       2.728   5.109  18.835  0.00  0.00    +0.000 C 
ATOM      9  C   UNL     1       2.167   4.561  20.196  0.00  0.00    +0.000 C 
ATOM     10  C   UNL     1       0.857   3.851  19.880  0.00  0.00    +0.000 C 
ATOM     11  C   UNL     1       1.064   3.342  18.469  0.00  0.00    +0.000 C 
ATOM     12  C   UNL     1       1.739   4.526  17.780  0.00  0.00    +0.000 C 
ENDROOT
BRANCH   1  13
ATOM     13  O   UNL     1       3.515   7.038  20.097  0.00  0.00    +0.000 OA
ATOM     14  H   UNL     1       2.917   7.653  20.563  0.00  0.00    +0.000 HD
ENDBRANCH   1  13
BRANCH   5  15
ATOM     15  C   UNL     1       6.009   4.719  15.219  0.00  0.00    +0.000 C 
ATOM     16  C   UNL     1       5.291   5.918  14.586  0.00  0.00    +0.000 C 
BRANCH  15  17
ATOM     17  C   UNL     1       6.283   3.585  14.193  0.00  0.00    +0.000 C 
BRANCH  17  18
ATOM     18  C   UNL     1       6.052   3.967  12.707  0.00  0.00    +0.000 C 
ATOM     19  C   UNL     1       7.337   3.909  11.869  0.00  0.00    +0.000 C 
ATOM     20  C   UNL     1       7.743   2.479  11.528  0.00  0.00    +0.000 C 
ATOM     21  C   UNL     1       6.651   1.808  10.708  0.00  0.00    +0.000 C 
ATOM     22  C   UNL     1       5.328   1.786  11.463  0.00  0.00    +0.000 C 
ATOM     23  C   UNL     1       4.926   3.146  12.037  0.00  0.00    +0.000 C 
ENDBRANCH  17  18
ENDBRANCH  15  17
ENDBRANCH   5  15
BRANCH   1  24
ATOM     24  C   UNL     1       1.485   7.394  18.798  0.00  0.00    +0.000 C 
BRANCH  24  28
ATOM     25  N   UNL     1       1.029  10.980  19.247  0.00  0.00    +0.000 N 
ATOM     26  C   UNL     1       1.562   9.896  18.508  0.00  0.00    +0.000 A 
ATOM     27  O   UNL     1       1.971   9.928  17.360  0.00  0.00    +0.000 OA
ATOM     28  N   UNL     1       1.453   8.745  19.332  0.00  0.00    +0.000 N 
ATOM     29  C   UNL     1       0.804   9.111  20.519  0.00  0.00    +0.000 A 
ATOM     30  C   UNL     1       0.395   8.323  21.577  0.00  0.00    +0.000 A 
ATOM     31  C   UNL     1      -0.307   8.952  22.609  0.00  0.00    +0.000 A 
ATOM     32  C   UNL     1      -0.590  10.328  22.554  0.00  0.00    +0.000 A 
ATOM     33  C   UNL     1      -0.171  11.113  21.470  0.00  0.00    +0.000 A 
ATOM     34  C   UNL     1       0.534  10.483  20.469  0.00  0.00    +0.000 A 
BRANCH  25  35
ATOM     35  C   UNL     1       0.670  12.242  18.635  0.00  0.00    +0.000 C 
BRANCH  35  37
ATOM     36  C   UNL     1       2.766  13.635  18.231  0.00  0.00    +0.000 C 
ATOM     37  C   UNL     1       1.503  13.451  19.057  0.00  0.00    +0.000 C 
ENDBRANCH  35  37
ENDBRANCH  25  35
ENDBRANCH  24  28
ENDBRANCH   1  24
TORSDOF 8
ENDMDL
MODEL 2
REMARK VINA RESULT:      -7.8      2.810      5.030
REMARK  Name = 
REMARK  10 active torsions:
REMARK  status: ('A' for Active; 'I' for Inactive)
REMARK    1  A    between atoms: C_1  and  C_2
REMARK    2  A    between atoms: C_2  and  C_3
REMARK    3  A    between atoms: C_3  and  N_4
REMARK    4  A    between atoms: N_7  and  C_8
REMARK    5  A    between atoms: C_8  and  C_9
REMARK    6  A    between atoms: C_9  and  O_10
REMARK    7  A    between atoms: C_14  and  C_16
REMARK    8  A    between atoms: C_16  and  C_17
REMARK    9  A    between atoms: C_16  and  C_18
REMARK   10  A    between atoms: C_18  and  C_19
REMARK                            x       y       z     vdW  Elec       q    Type
REMARK                         _______ _______ _______ _____ _____    ______ ____
ROOT
ATOM      1  C   UNL     1       0.845  10.263  19.294  0.00  0.00    +0.000 C 
ATOM      2  C   UNL     1       1.137   9.466  18.004  0.00  0.00    +0.000 C 
ATOM      3  C   UNL     1       2.290   8.474  18.112  0.00  0.00    +0.000 C 
ATOM      4  N   UNL     1       2.163   7.657  19.307  0.00  0.00    +0.000 N 
ATOM      5  C   UNL     1       2.142   6.267  19.362  0.00  0.00    +0.000 C 
ATOM      6  O   UNL     1       1.985   5.673  20.433  0.00  0.00    +0.000 OA
ATOM      7  C   UNL     1       2.107   8.433  20.548  0.00  0.00    +0.000 C 
ATOM      8  C   UNL     1       0.872   9.375  20.603  0.00  0.00    +0.000 C 
ATOM      9  C   UNL     1       0.987  10.252  21.900  0.00  0.00    +0.000 C 
ATOM     10  C   UNL     1      -0.255   9.969  22.736  0.00  0.00    +0.000 C 
ATOM     11  C   UNL     1      -0.602   8.540  22.380  0.00  0.00    +0.000 C 
ATOM     12  C   UNL     1      -0.400   8.512  20.866  0.00  0.00    +0.000 C 
ENDROOT
BRANCH   1  13
ATOM     13  O   UNL     1       1.908  11.236  19.421  0.00  0.00    +0.000 OA
ATOM     14  H   UNL     1       2.678  10.770  19.800  0.00  0.00    +0.000 HD
ENDBRANCH   1  13
BRANCH   5  15
ATOM     15  C   UNL     1       2.375   5.461  18.070  0.00  0.00    +0.000 C 
ATOM     16  C   UNL     1       1.325   4.347  17.973  0.00  0.00    +0.000 C 
BRANCH  15  17
ATOM     17  C   UNL     1       3.827   4.908  18.057  0.00  0.00    +0.000 C 
BRANCH  17  18
ATOM     18  C   UNL     1       4.590   5.084  16.718  0.00  0.00    +0.000 C 
ATOM     19  C   UNL     1       4.929   6.550  16.412  0.00  0.00    +0.000 C 
ATOM     20  C   UNL     1       6.098   7.062  17.246  0.00  0.00    +0.000 C 
ATOM     21  C   UNL     1       7.349   6.249  16.945  0.00  0.00    +0.000 C 
ATOM     22  C   UNL     1       7.132   4.770  17.241  0.00  0.00    +0.000 C 
ATOM     23  C   UNL     1       5.856   4.200  16.619  0.00  0.00    +0.000 C 
ENDBRANCH  17  18
ENDBRANCH  15  17
ENDBRANCH   5  15
BRANCH   1  24
ATOM     24  C   UNL     1      -0.503  11.029  19.139  0.00  0.00    +0.000 C 
BRANCH  24  28
ATOM     25  N   UNL     1      -0.474  14.666  19.342  0.00  0.00    +0.000 N 
ATOM     26  C   UNL     1       0.099  13.461  18.868  0.00  0.00    +0.000 A 
ATOM     27  O   UNL     1       0.897  13.344  17.954  0.00  0.00    +0.000 OA
ATOM     28  N   UNL     1      -0.497  12.405  19.607  0.00  0.00    +0.000 N 
ATOM     29  C   UNL     1      -1.462  12.954  20.463  0.00  0.00    +0.000 A 
ATOM     30  C   UNL     1      -2.357  12.319  21.302  0.00  0.00    +0.000 A 
ATOM     31  C   UNL     1      -3.268  13.123  21.991  0.00  0.00    +0.000 A 
ATOM     32  C   UNL     1      -3.273  14.519  21.818  0.00  0.00    +0.000 A 
ATOM     33  C   UNL     1      -2.361  15.147  20.958  0.00  0.00    +0.000 A 
ATOM     34  C   UNL     1      -1.458  14.344  20.298  0.00  0.00    +0.000 A 
BRANCH  25  35
ATOM     35  C   UNL     1      -0.365  15.918  18.625  0.00  0.00    +0.000 C 
BRANCH  35  37
ATOM     36  C   UNL     1       1.253  17.708  17.801  0.00  0.00    +0.000 C 
ATOM     37  C   UNL     1       0.878  16.755  18.924  0.00  0.00    +0.000 C 
ENDBRANCH  35  37
ENDBRANCH  25  35
ENDBRANCH  24  28
ENDBRANCH   1  24
TORSDOF 8
ENDMDL
MODEL 3
REMARK VINA RESULT:      -7.7      2.588      5.012
REMARK  Name = 
REMARK  10 active torsions:
REMARK  status: ('A' for Active; 'I' for Inactive)
REMARK    1  A    between atoms: C_1  and  C_2
REMARK    2  A    between atoms: C_2  and  C_3
REMARK    3  A    between atoms: C_3  and  N_4
REMARK    4  A    between atoms: N_7  and  C_8
REMARK    5  A    between atoms: C_8  and  C_9
REMARK    6  A    between atoms: C_9  and  O_10
REMARK    7  A    between atoms: C_14  and  C_16
REMARK    8  A    between atoms: C_16  and  C_17
REMARK    9  A    between atoms: C_16  and  C_18
REMARK   10  A    between atoms: C_18  and  C_19
REMARK                            x       y       z     vdW  Elec       q    Type
REMARK                         _______ _______ _______ _____ _____    ______ ____
ROOT
ATOM      1  C   UNL     1       0.832  10.324  19.309  0.00  0.00    +0.000 C 
ATOM      2  C   UNL     1       1.155   9.529  18.025  0.00  0.00    +0.000 C 
ATOM      3  C   UNL     1       2.318   8.552  18.153  0.00  0.00    +0.000 C 
ATOM      4  N   UNL     1       2.183   7.736  19.347  0.00  0.00    +0.000 N 
ATOM      5  C   UNL     1       2.179   6.346  19.405  0.00  0.00    +0.000 C 
ATOM      6  O   UNL     1       2.014   5.752  20.474  0.00  0.00    +0.000 OA
ATOM      7  C   UNL     1       2.098   8.513  20.586  0.00  0.00    +0.000 C 
ATOM      8  C   UNL     1       0.850   9.438  20.620  0.00  0.00    +0.000 C 
ATOM      9  C   UNL     1       0.932  10.319  21.917  0.00  0.00    +0.000 C 
ATOM     10  C   UNL     1      -0.319  10.022  22.734  0.00  0.00    +0.000 C 
ATOM     11  C   UNL     1      -0.641   8.587  22.375  0.00  0.00    +0.000 C 
ATOM     12  C   UNL     1      -0.415   8.559  20.864  0.00  0.00    +0.000 C 
ENDROOT
BRANCH   1  13
ATOM     13  O   UNL     1       1.879  11.311  19.451  0.00  0.00    +0.000 OA
ATOM     14  H   UNL     1       2.619  10.878  19.919  0.00  0.00    +0.000 HD
ENDBRANCH   1  13
BRANCH   5  15
ATOM     15  C   UNL     1       2.444   5.541  18.118  0.00  0.00    +0.000 C 
ATOM     16  C   UNL     1       1.415   4.408  18.011  0.00  0.00    +0.000 C 
BRANCH  15  17
ATOM     17  C   UNL     1       3.906   5.014  18.125  0.00  0.00    +0.000 C 
BRANCH  17  18
ATOM     18  C   UNL     1       4.984   6.049  17.709  0.00  0.00    +0.000 C 
ATOM     19  C   UNL     1       6.410   5.597  18.053  0.00  0.00    +0.000 C 
ATOM     20  C   UNL     1       6.931   4.536  17.089  0.00  0.00    +0.000 C 
ATOM     21  C   UNL     1       6.975   5.093  15.674  0.00  0.00    +0.000 C 
ATOM     22  C   UNL     1       5.596   5.551  15.217  0.00  0.00    +0.000 C 
ATOM     23  C   UNL     1       4.887   6.462  16.221  0.00  0.00    +0.000 C 
ENDBRANCH  17  18
ENDBRANCH  15  17
ENDBRANCH   5  15
BRANCH   1  24
ATOM     24  C   UNL     1      -0.524  11.072  19.132  0.00  0.00    +0.000 C 
BRANCH  24  28
ATOM     25  N   UNL     1      -0.545  14.704  19.408  0.00  0.00    +0.000 N 
ATOM     26  C   UNL     1       0.061  13.515  18.935  0.00  0.00    +0.000 A 
ATOM     27  O   UNL     1       0.899  13.425  18.053  0.00  0.00    +0.000 OA
ATOM     28  N   UNL     1      -0.553  12.438  19.627  0.00  0.00    +0.000 N 
ATOM     29  C   UNL     1      -1.559  12.959  20.452  0.00  0.00    +0.000 A 
ATOM     30  C   UNL     1      -2.481  12.298  21.240  0.00  0.00    +0.000 A 
ATOM     31  C   UNL     1      -3.430  13.078  21.905  0.00  0.00    +0.000 A 
ATOM     32  C   UNL     1      -3.443  14.477  21.761  0.00  0.00    +0.000 A 
ATOM     33  C   UNL     1      -2.503  15.132  20.952  0.00  0.00    +0.000 A 
ATOM     34  C   UNL     1      -1.564  14.352  20.316  0.00  0.00    +0.000 A 
BRANCH  25  35
ATOM     35  C   UNL     1      -0.420  15.972  18.722  0.00  0.00    +0.000 C 
BRANCH  35  37
ATOM     36  C   UNL     1      -0.059  18.475  19.045  0.00  0.00    +0.000 C 
ATOM     37  C   UNL     1       0.330  17.070  19.475  0.00  0.00    +0.000 C 
ENDBRANCH  35  37
ENDBRANCH  25  35
ENDBRANCH  24  28
ENDBRANCH   1  24
TORSDOF 8
ENDMDL
MODEL 4
REMARK VINA RESULT:      -7.3      3.883      7.230
REMARK  Name = 
REMARK  10 active torsions:
REMARK  status: ('A' for Active; 'I' for Inactive)
REMARK    1  A    between atoms: C_1  and  C_2
REMARK    2  A    between atoms: C_2  and  C_3
REMARK    3  A    between atoms: C_3  and  N_4
REMARK    4  A    between atoms: N_7  and  C_8
REMARK    5  A    between atoms: C_8  and  C_9
REMARK    6  A    between atoms: C_9  and  O_10
REMARK    7  A    between atoms: C_14  and  C_16
REMARK    8  A    between atoms: C_16  and  C_17
REMARK    9  A    between atoms: C_16  and  C_18
REMARK   10  A    between atoms: C_18  and  C_19
REMARK                            x       y       z     vdW  Elec       q    Type
REMARK                         _______ _______ _______ _____ _____    ______ ____
ROOT
ATOM      1  C   UNL     1       0.042  10.900  20.648  0.00  0.00    +0.000 C 
ATOM      2  C   UNL     1       0.707   9.586  21.110  0.00  0.00    +0.000 C 
ATOM      3  C   UNL     1       0.751   8.486  20.056  0.00  0.00    +0.000 C 
ATOM      4  N   UNL     1       1.247   8.997  18.790  0.00  0.00    +0.000 N 
ATOM      5  C   UNL     1       2.324   8.502  18.061  0.00  0.00    +0.000 C 
ATOM      6  O   UNL     1       2.689   9.044  17.013  0.00  0.00    +0.000 OA
ATOM      7  C   UNL     1       0.463  10.113  18.256  0.00  0.00    +0.000 C 
ATOM      8  C   UNL     1       0.480  11.352  19.196  0.00  0.00    +0.000 C 
ATOM      9  C   UNL     1      -0.497  12.427  18.599  0.00  0.00    +0.000 C 
ATOM     10  C   UNL     1       0.331  13.678  18.335  0.00  0.00    +0.000 C 
ATOM     11  C   UNL     1       1.710  13.130  18.034  0.00  0.00    +0.000 C 
ATOM     12  C   UNL     1       1.876  12.038  19.089  0.00  0.00    +0.000 C 
ENDROOT
BRANCH   1  13
ATOM     13  O   UNL     1      -1.381  10.642  20.599  0.00  0.00    +0.000 OA
ATOM     14  H   UNL     1      -1.492   9.697  20.383  0.00  0.00    +0.000 HD
ENDBRANCH   1  13
BRANCH   5  15
ATOM     15  C   UNL     1       3.033   7.223  18.545  0.00  0.00    +0.000 C 
ATOM     16  C   UNL     1       4.385   7.094  17.832  0.00  0.00    +0.000 C 
BRANCH  15  17
ATOM     17  C   UNL     1       2.115   5.994  18.296  0.00  0.00    +0.000 C 
BRANCH  17  18
ATOM     18  C   UNL     1       2.738   4.619  18.656  0.00  0.00    +0.000 C 
ATOM     19  C   UNL     1       3.097   4.498  20.145  0.00  0.00    +0.000 C 
ATOM     20  C   UNL     1       1.869   4.269  21.021  0.00  0.00    +0.000 C 
ATOM     21  C   UNL     1       1.182   2.970  20.626  0.00  0.00    +0.000 C 
ATOM     22  C   UNL     1       0.755   2.993  19.163  0.00  0.00    +0.000 C 
ATOM     23  C   UNL     1       1.869   3.422  18.206  0.00  0.00    +0.000 C 
ENDBRANCH  17  18
ENDBRANCH  15  17
ENDBRANCH   5  15
BRANCH   1  24
ATOM     24  C   UNL     1       0.300  12.016  21.705  0.00  0.00    +0.000 C 
BRANCH  24  28
ATOM     25  N   UNL     1      -2.521  13.442  23.514  0.00  0.00    +0.000 N 
ATOM     26  C   UNL     1      -1.830  12.311  23.018  0.00  0.00    +0.000 A 
ATOM     27  O   UNL     1      -1.982  11.153  23.369  0.00  0.00    +0.000 OA
ATOM     28  N   UNL     1      -0.866  12.791  22.093  0.00  0.00    +0.000 N 
ATOM     29  C   UNL     1      -0.925  14.191  22.080  0.00  0.00    +0.000 A 
ATOM     30  C   UNL     1      -0.127  15.099  21.412  0.00  0.00    +0.000 A 
ATOM     31  C   UNL     1      -0.368  16.455  21.647  0.00  0.00    +0.000 A 
ATOM     32  C   UNL     1      -1.376  16.866  22.537  0.00  0.00    +0.000 A 
ATOM     33  C   UNL     1      -2.174  15.930  23.211  0.00  0.00    +0.000 A 
ATOM     34  C   UNL     1      -1.937  14.598  22.958  0.00  0.00    +0.000 A 
BRANCH  25  35
ATOM     35  C   UNL     1      -3.347  13.396  24.701  0.00  0.00    +0.000 C 
BRANCH  35  37
ATOM     36  C   UNL     1      -5.508  13.247  23.356  0.00  0.00    +0.000 C 
ATOM     37  C   UNL     1      -4.711  12.727  24.542  0.00  0.00    +0.000 C 
ENDBRANCH  35  37
ENDBRANCH  25  35
ENDBRANCH  24  28
ENDBRANCH   1  24
TORSDOF 8
ENDMDL
MODEL 5
REMARK VINA RESULT:      -7.3      2.633      9.634
REMARK  Name = 
REMARK  10 active torsions:
REMARK  status: ('A' for Active; 'I' for Inactive)
REMARK    1  A    between atoms: C_1  and  C_2
REMARK    2  A    between atoms: C_2  and  C_3
REMARK    3  A    between atoms: C_3  and  N_4
REMARK    4  A    between atoms: N_7  and  C_8
REMARK    5  A    between atoms: C_8  and  C_9
REMARK    6  A    between atoms: C_9  and  O_10
REMARK    7  A    between atoms: C_14  and  C_16
REMARK    8  A    between atoms: C_16  and  C_17
REMARK    9  A    between atoms: C_16  and  C_18
REMARK   10  A    between atoms: C_18  and  C_19
REMARK                            x       y       z     vdW  Elec       q    Type
REMARK                         _______ _______ _______ _____ _____    ______ ____
ROOT
ATOM      1  C   UNL     1       1.636   8.846  19.116  0.00  0.00    +0.000 C 
ATOM      2  C   UNL     1       2.600   9.848  18.444  0.00  0.00    +0.000 C 
ATOM      3  C   UNL     1       1.978  11.193  18.086  0.00  0.00    +0.000 C 
ATOM      4  N   UNL     1       1.232  11.736  19.208  0.00  0.00    +0.000 N 
ATOM      5  C   UNL     1       1.410  12.986  19.794  0.00  0.00    +0.000 C 
ATOM      6  O   UNL     1       0.747  13.331  20.777  0.00  0.00    +0.000 OA
ATOM      7  C   UNL     1       0.170  10.853  19.694  0.00  0.00    +0.000 C 
ATOM      8  C   UNL     1       0.720   9.501  20.227  0.00  0.00    +0.000 C 
ATOM      9  C   UNL     1      -0.504   8.586  20.588  0.00  0.00    +0.000 C 
ATOM     10  C   UNL     1      -0.382   8.248  22.068  0.00  0.00    +0.000 C 
ATOM     11  C   UNL     1       0.321   9.456  22.649  0.00  0.00    +0.000 C 
ATOM     12  C   UNL     1       1.400   9.751  21.609  0.00  0.00    +0.000 C 
ENDROOT
BRANCH   1  13
ATOM     13  O   UNL     1       0.757   8.365  18.073  0.00  0.00    +0.000 OA
ATOM     14  H   UNL     1       1.039   7.455  17.858  0.00  0.00    +0.000 HD
ENDBRANCH   1  13
BRANCH   5  15
ATOM     15  C   UNL     1       2.412  13.973  19.165  0.00  0.00    +0.000 C 
ATOM     16  C   UNL     1       3.202  14.670  20.281  0.00  0.00    +0.000 C 
BRANCH  15  17
ATOM     17  C   UNL     1       1.650  14.982  18.262  0.00  0.00    +0.000 C 
BRANCH  17  18
ATOM     18  C   UNL     1       1.457  16.398  18.868  0.00  0.00    +0.000 C 
ATOM     19  C   UNL     1       2.230  17.484  18.105  0.00  0.00    +0.000 C 
ATOM     20  C   UNL     1       1.556  17.860  16.790  0.00  0.00    +0.000 C 
ATOM     21  C   UNL     1       0.164  18.414  17.057  0.00  0.00    +0.000 C 
ATOM     22  C   UNL     1      -0.703  17.399  17.791  0.00  0.00    +0.000 C 
ATOM     23  C   UNL     1      -0.029  16.794  19.024  0.00  0.00    +0.000 C 
ENDBRANCH  17  18
ENDBRANCH  15  17
ENDBRANCH   5  15
BRANCH   1  24
ATOM     24  C   UNL     1       2.446   7.635  19.670  0.00  0.00    +0.000 C 
BRANCH  24  28
ATOM     25  N   UNL     1       3.439   4.886  17.496  0.00  0.00    +0.000 N 
ATOM     26  C   UNL     1       3.395   6.274  17.774  0.00  0.00    +0.000 A 
ATOM     27  O   UNL     1       4.081   7.142  17.260  0.00  0.00    +0.000 OA
ATOM     28  N   UNL     1       2.458   6.452  18.825  0.00  0.00    +0.000 N 
ATOM     29  C   UNL     1       1.995   5.191  19.224  0.00  0.00    +0.000 A 
ATOM     30  C   UNL     1       1.149   4.852  20.262  0.00  0.00    +0.000 A 
ATOM     31  C   UNL     1       0.917   3.491  20.478  0.00  0.00    +0.000 A 
ATOM     32  C   UNL     1       1.534   2.517  19.674  0.00  0.00    +0.000 A 
ATOM     33  C   UNL     1       2.394   2.879  18.627  0.00  0.00    +0.000 A 
ATOM     34  C   UNL     1       2.601   4.223  18.414  0.00  0.00    +0.000 A 
BRANCH  25  35
ATOM     35  C   UNL     1       4.498   4.277  16.720  0.00  0.00    +0.000 C 
BRANCH  35  37
ATOM     36  C   UNL     1       6.989   4.699  16.384  0.00  0.00    +0.000 C 
ATOM     37  C   UNL     1       5.889   4.298  17.352  0.00  0.00    +0.000 C 
ENDBRANCH  35  37
ENDBRANCH  25  35
ENDBRANCH  24  28
ENDBRANCH   1  24
TORSDOF 8
ENDMDL
MODEL 6
REMARK VINA RESULT:      -7.2      4.053      7.999
REMARK  Name = 
REMARK  10 active torsions:
REMARK  status: ('A' for Active; 'I' for Inactive)
REMARK    1  A    between atoms: C_1  and  C_2
REMARK    2  A    between atoms: C_2  and  C_3
REMARK    3  A    between atoms: C_3  and  N_4
REMARK    4  A    between atoms: N_7  and  C_8
REMARK    5  A    between atoms: C_8  and  C_9
REMARK    6  A    between atoms: C_9  and  O_10
REMARK    7  A    between atoms: C_14  and  C_16
REMARK    8  A    between atoms: C_16  and  C_17
REMARK    9  A    between atoms: C_16  and  C_18
REMARK   10  A    between atoms: C_18  and  C_19
REMARK                            x       y       z     vdW  Elec       q    Type
REMARK                         _______ _______ _______ _____ _____    ______ ____
ROOT
ATOM      1  C   UNL     1      -1.060  13.052  20.442  0.00  0.00    +0.000 C 
ATOM      2  C   UNL     1      -1.118  11.570  20.871  0.00  0.00    +0.000 C 
ATOM      3  C   UNL     1      -0.925  10.568  19.738  0.00  0.00    +0.000 C 
ATOM      4  N   UNL     1       0.230  10.915  18.927  0.00  0.00    +0.000 N 
ATOM      5  C   UNL     1       1.315  10.094  18.637  0.00  0.00    +0.000 C 
ATOM      6  O   UNL     1       2.268  10.508  17.970  0.00  0.00    +0.000 OA
ATOM      7  C   UNL     1       0.161  12.258  18.346  0.00  0.00    +0.000 C 
ATOM      8  C   UNL     1       0.114  13.371  19.430  0.00  0.00    +0.000 C 
ATOM      9  C   UNL     1      -0.099  14.747  18.705  0.00  0.00    +0.000 C 
ATOM     10  C   UNL     1       1.091  15.626  19.067  0.00  0.00    +0.000 C 
ATOM     11  C   UNL     1       2.214  14.632  19.272  0.00  0.00    +0.000 C 
ATOM     12  C   UNL     1       1.534  13.513  20.059  0.00  0.00    +0.000 C 
ENDROOT
BRANCH   1  13
ATOM     13  O   UNL     1      -2.301  13.324  19.749  0.00  0.00    +0.000 OA
ATOM     14  H   UNL     1      -2.456  12.580  19.138  0.00  0.00    +0.000 HD
ENDBRANCH   1  13
BRANCH   5  15
ATOM     15  C   UNL     1       1.295   8.628  19.109  0.00  0.00    +0.000 C 
ATOM     16  C   UNL     1       1.679   8.570  20.593  0.00  0.00    +0.000 C 
BRANCH  15  17
ATOM     17  C   UNL     1       2.246   7.781  18.218  0.00  0.00    +0.000 C 
BRANCH  17  18
ATOM     18  C   UNL     1       2.949   6.600  18.938  0.00  0.00    +0.000 C 
ATOM     19  C   UNL     1       2.037   5.376  19.107  0.00  0.00    +0.000 C 
ATOM     20  C   UNL     1       1.865   4.596  17.808  0.00  0.00    +0.000 C 
ATOM     21  C   UNL     1       3.213   4.078  17.329  0.00  0.00    +0.000 C 
ATOM     22  C   UNL     1       4.195   5.221  17.101  0.00  0.00    +0.000 C 
ATOM     23  C   UNL     1       4.287   6.195  18.277  0.00  0.00    +0.000 C 
ENDBRANCH  17  18
ENDBRANCH  15  17
ENDBRANCH   5  15
BRANCH   1  24
ATOM     24  C   UNL     1      -0.998  13.959  21.708  0.00  0.00    +0.000 C 
BRANCH  24  28
ATOM     25  N   UNL     1      -4.291  15.513  21.790  0.00  0.00    +0.000 N 
ATOM     26  C   UNL     1      -2.935  15.537  21.384  0.00  0.00    +0.000 A 
ATOM     27  O   UNL     1      -2.448  16.236  20.511  0.00  0.00    +0.000 OA
ATOM     28  N   UNL     1      -2.266  14.532  22.129  0.00  0.00    +0.000 N 
ATOM     29  C   UNL     1      -3.211  13.866  22.921  0.00  0.00    +0.000 A 
ATOM     30  C   UNL     1      -3.053  12.764  23.740  0.00  0.00    +0.000 A 
ATOM     31  C   UNL     1      -4.199  12.259  24.359  0.00  0.00    +0.000 A 
ATOM     32  C   UNL     1      -5.457  12.848  24.140  0.00  0.00    +0.000 A 
ATOM     33  C   UNL     1      -5.600  13.963  23.301  0.00  0.00    +0.000 A 
ATOM     34  C   UNL     1      -4.460  14.461  22.711  0.00  0.00    +0.000 A 
BRANCH  25  35
ATOM     35  C   UNL     1      -5.344  16.160  21.037  0.00  0.00    +0.000 C 
BRANCH  35  37
ATOM     36  C   UNL     1      -6.395  16.222  18.715  0.00  0.00    +0.000 C 
ATOM     37  C   UNL     1      -5.928  15.358  19.876  0.00  0.00    +0.000 C 
ENDBRANCH  35  37
ENDBRANCH  25  35
ENDBRANCH  24  28
ENDBRANCH   1  24
TORSDOF 8
ENDMDL
MODEL 7
REMARK VINA RESULT:      -7.0      4.206      8.173
REMARK  Name = 
REMARK  10 active torsions:
REMARK  status: ('A' for Active; 'I' for Inactive)
REMARK    1  A    between atoms: C_1  and  C_2
REMARK    2  A    between atoms: C_2  and  C_3
REMARK    3  A    between atoms: C_3  and  N_4
REMARK    4  A    between atoms: N_7  and  C_8
REMARK    5  A    between atoms: C_8  and  C_9
REMARK    6  A    between atoms: C_9  and  O_10
REMARK    7  A    between atoms: C_14  and  C_16
REMARK    8  A    between atoms: C_16  and  C_17
REMARK    9  A    between atoms: C_16  and  C_18
REMARK   10  A    between atoms: C_18  and  C_19
REMARK                            x       y       z     vdW  Elec       q    Type
REMARK                         _______ _______ _______ _____ _____    ______ ____
ROOT
ATOM      1  C   UNL     1      -1.146  12.446  20.421  0.00  0.00    +0.000 C 
ATOM      2  C   UNL     1      -1.119  10.949  20.796  0.00  0.00    +0.000 C 
ATOM      3  C   UNL     1      -0.812  10.005  19.640  0.00  0.00    +0.000 C 
ATOM      4  N   UNL     1       0.348  10.458  18.892  0.00  0.00    +0.000 N 
ATOM      5  C   UNL     1       1.498   9.723  18.621  0.00  0.00    +0.000 C 
ATOM      6  O   UNL     1       2.446  10.224  18.009  0.00  0.00    +0.000 OA
ATOM      7  C   UNL     1       0.210  11.813  18.354  0.00  0.00    +0.000 C 
ATOM      8  C   UNL     1       0.043  12.880  19.471  0.00  0.00    +0.000 C 
ATOM      9  C   UNL     1      -0.234  14.264  18.784  0.00  0.00    +0.000 C 
ATOM     10  C   UNL     1       0.877  15.208  19.226  0.00  0.00    +0.000 C 
ATOM     11  C   UNL     1       2.056  14.284  19.445  0.00  0.00    +0.000 C 
ATOM     12  C   UNL     1       1.423  13.095  20.164  0.00  0.00    +0.000 C 
ENDROOT
BRANCH   1  13
ATOM     13  O   UNL     1      -2.373  12.660  19.685  0.00  0.00    +0.000 OA
ATOM     14  H   UNL     1      -3.036  12.042  20.048  0.00  0.00    +0.000 HD
ENDBRANCH   1  13
BRANCH   5  15
ATOM     15  C   UNL     1       1.559   8.242  19.042  0.00  0.00    +0.000 C 
ATOM     16  C   UNL     1       1.765   8.157  20.560  0.00  0.00    +0.000 C 
BRANCH  15  17
ATOM     17  C   UNL     1       2.686   7.522  18.251  0.00  0.00    +0.000 C 
BRANCH  17  18
ATOM     18  C   UNL     1       3.233   6.227  18.909  0.00  0.00    +0.000 C 
ATOM     19  C   UNL     1       2.169   5.127  19.035  0.00  0.00    +0.000 C 
ATOM     20  C   UNL     1       1.888   4.436  17.704  0.00  0.00    +0.000 C 
ATOM     21  C   UNL     1       3.153   3.769  17.186  0.00  0.00    +0.000 C 
ATOM     22  C   UNL     1       4.275   4.782  16.997  0.00  0.00    +0.000 C 
ATOM     23  C   UNL     1       4.502   5.682  18.213  0.00  0.00    +0.000 C 
ENDBRANCH  17  18
ENDBRANCH  15  17
ENDBRANCH   5  15
BRANCH   1  24
ATOM     24  C   UNL     1      -1.198  13.309  21.718  0.00  0.00    +0.000 C 
BRANCH  24  28
ATOM     25  N   UNL     1      -4.353  14.645  22.953  0.00  0.00    +0.000 N 
ATOM     26  C   UNL     1      -3.580  13.547  22.506  0.00  0.00    +0.000 A 
ATOM     27  O   UNL     1      -3.830  12.365  22.670  0.00  0.00    +0.000 OA
ATOM     28  N   UNL     1      -2.412  14.086  21.904  0.00  0.00    +0.000 N 
ATOM     29  C   UNL     1      -2.445  15.480  22.044  0.00  0.00    +0.000 A 
ATOM     30  C   UNL     1      -1.495  16.421  21.700  0.00  0.00    +0.000 A 
ATOM     31  C   UNL     1      -1.766  17.752  22.030  0.00  0.00    +0.000 A 
ATOM     32  C   UNL     1      -2.954  18.103  22.694  0.00  0.00    +0.000 A 
ATOM     33  C   UNL     1      -3.906  17.134  23.040  0.00  0.00    +0.000 A 
ATOM     34  C   UNL     1      -3.634  15.829  22.695  0.00  0.00    +0.000 A 
BRANCH  25  35
ATOM     35  C   UNL     1      -5.445  14.502  23.892  0.00  0.00    +0.000 C 
BRANCH  35  37
ATOM     36  C   UNL     1      -7.906  13.997  24.326  0.00  0.00    +0.000 C 
ATOM     37  C   UNL     1      -6.785  14.071  23.301  0.00  0.00    +0.000 C 
ENDBRANCH  35  37
ENDBRANCH  25  35
ENDBRANCH  24  28
ENDBRANCH   1  24
TORSDOF 8
ENDMDL
MODEL 8
REMARK VINA RESULT:      -6.9      3.926      6.548
REMARK  Name = 
REMARK  10 active torsions:
REMARK  status: ('A' for Active; 'I' for Inactive)
REMARK    1  A    between atoms: C_1  and  C_2
REMARK    2  A    between atoms: C_2  and  C_3
REMARK    3  A    between atoms: C_3  and  N_4
REMARK    4  A    between atoms: N_7  and  C_8
REMARK    5  A    between atoms: C_8  and  C_9
REMARK    6  A    between atoms: C_9  and  O_10
REMARK    7  A    between atoms: C_14  and  C_16
REMARK    8  A    between atoms: C_16  and  C_17
REMARK    9  A    between atoms: C_16  and  C_18
REMARK   10  A    between atoms: C_18  and  C_19
REMARK                            x       y       z     vdW  Elec       q    Type
REMARK                         _______ _______ _______ _____ _____    ______ ____
ROOT
ATOM      1  C   UNL     1      -1.175  10.634  19.290  0.00  0.00    +0.000 C 
ATOM      2  C   UNL     1      -0.850   9.811  18.025  0.00  0.00    +0.000 C 
ATOM      3  C   UNL     1       0.637   9.618  17.751  0.00  0.00    +0.000 C 
ATOM      4  N   UNL     1       1.335   9.181  18.948  0.00  0.00    +0.000 N 
ATOM      5  C   UNL     1       2.126   8.045  19.077  0.00  0.00    +0.000 C 
ATOM      6  O   UNL     1       2.640   7.744  20.159  0.00  0.00    +0.000 OA
ATOM      7  C   UNL     1       1.191  10.097  20.082  0.00  0.00    +0.000 C 
ATOM      8  C   UNL     1      -0.287  10.245  20.540  0.00  0.00    +0.000 C 
ATOM      9  C   UNL     1      -0.340  11.346  21.659  0.00  0.00    +0.000 C 
ATOM     10  C   UNL     1      -0.909  10.682  22.906  0.00  0.00    +0.000 C 
ATOM     11  C   UNL     1      -0.460   9.243  22.775  0.00  0.00    +0.000 C 
ATOM     12  C   UNL     1      -0.705   8.947  21.296  0.00  0.00    +0.000 C 
ENDROOT
BRANCH   1  13
ATOM     13  O   UNL     1      -0.873  12.011  18.969  0.00  0.00    +0.000 OA
ATOM     14  H   UNL     1      -0.252  12.334  19.649  0.00  0.00    +0.000 HD
ENDBRANCH   1  13
BRANCH   5  15
ATOM     15  C   UNL     1       2.411   7.183  17.832  0.00  0.00    +0.000 C 
ATOM     16  C   UNL     1       1.780   5.797  18.022  0.00  0.00    +0.000 C 
BRANCH  15  17
ATOM     17  C   UNL     1       3.944   7.107  17.591  0.00  0.00    +0.000 C 
BRANCH  17  18
ATOM     18  C   UNL     1       4.528   5.672  17.496  0.00  0.00    +0.000 C 
ATOM     19  C   UNL     1       5.586   5.530  16.392  0.00  0.00    +0.000 C 
ATOM     20  C   UNL     1       6.925   6.144  16.789  0.00  0.00    +0.000 C 
ATOM     21  C   UNL     1       7.476   5.440  18.021  0.00  0.00    +0.000 C 
ATOM     22  C   UNL     1       6.511   5.544  19.195  0.00  0.00    +0.000 C 
ATOM     23  C   UNL     1       5.074   5.149  18.845  0.00  0.00    +0.000 C 
ENDBRANCH  17  18
ENDBRANCH  15  17
ENDBRANCH   5  15
BRANCH   1  24
ATOM     24  C   UNL     1      -2.698  10.528  19.605  0.00  0.00    +0.000 C 
BRANCH  24  28
ATOM     25  N   UNL     1      -5.300  12.735  18.332  0.00  0.00    +0.000 N 
ATOM     26  C   UNL     1      -4.372  11.688  18.121  0.00  0.00    +0.000 A 
ATOM     27  O   UNL     1      -4.368  10.893  17.196  0.00  0.00    +0.000 OA
ATOM     28  N   UNL     1      -3.494  11.686  19.237  0.00  0.00    +0.000 N 
ATOM     29  C   UNL     1      -3.925  12.669  20.139  0.00  0.00    +0.000 A 
ATOM     30  C   UNL     1      -3.448  12.977  21.398  0.00  0.00    +0.000 A 
ATOM     31  C   UNL     1      -4.126  13.966  22.114  0.00  0.00    +0.000 A 
ATOM     32  C   UNL     1      -5.254  14.606  21.569  0.00  0.00    +0.000 A 
ATOM     33  C   UNL     1      -5.728  14.277  20.291  0.00  0.00    +0.000 A 
ATOM     34  C   UNL     1      -5.040  13.312  19.590  0.00  0.00    +0.000 A 
BRANCH  25  35
ATOM     35  C   UNL     1      -6.535  12.848  17.585  0.00  0.00    +0.000 C 
BRANCH  35  37
ATOM     36  C   UNL     1      -7.135  15.273  17.076  0.00  0.00    +0.000 C 
ATOM     37  C   UNL     1      -6.585  13.961  16.539  0.00  0.00    +0.000 C 
ENDBRANCH  35  37
ENDBRANCH  25  35
ENDBRANCH  24  28
ENDBRANCH   1  24
TORSDOF 8
ENDMDL
MODEL 9
REMARK VINA RESULT:      -6.8      3.933     12.036
REMARK  Name = 
REMARK  10 active torsions:
REMARK  status: ('A' for Active; 'I' for Inactive)
REMARK    1  A    between atoms: C_1  and  C_2
REMARK    2  A    between atoms: C_2  and  C_3
REMARK    3  A    between atoms: C_3  and  N_4
REMARK    4  A    between atoms: N_7  and  C_8
REMARK    5  A    between atoms: C_8  and  C_9
REMARK    6  A    between atoms: C_9  and  O_10
REMARK    7  A    between atoms: C_14  and  C_16
REMARK    8  A    between atoms: C_16  and  C_17
REMARK    9  A    between atoms: C_16  and  C_18
REMARK   10  A    between atoms: C_18  and  C_19
REMARK                            x       y       z     vdW  Elec       q    Type
REMARK                         _______ _______ _______ _____ _____    ______ ____
ROOT
ATOM      1  C   UNL     1       0.385  10.785  20.964  0.00  0.00    +0.000 C 
ATOM      2  C   UNL     1      -0.906  10.646  21.798  0.00  0.00    +0.000 C 
ATOM      3  C   UNL     1      -1.171  11.795  22.764  0.00  0.00    +0.000 C 
ATOM      4  N   UNL     1      -1.019  13.078  22.101  0.00  0.00    +0.000 N 
ATOM      5  C   UNL     1      -1.965  14.096  22.039  0.00  0.00    +0.000 C 
ATOM      6  O   UNL     1      -1.745  15.135  21.408  0.00  0.00    +0.000 OA
ATOM      7  C   UNL     1       0.301  13.279  21.500  0.00  0.00    +0.000 C 
ATOM      8  C   UNL     1       0.609  12.240  20.385  0.00  0.00    +0.000 C 
ATOM      9  C   UNL     1       2.090  12.459  19.912  0.00  0.00    +0.000 C 
ATOM     10  C   UNL     1       2.036  12.776  18.423  0.00  0.00    +0.000 C 
ATOM     11  C   UNL     1       0.697  13.460  18.257  0.00  0.00    +0.000 C 
ATOM     12  C   UNL     1      -0.228  12.605  19.121  0.00  0.00    +0.000 C 
ENDROOT
BRANCH   1  13
ATOM     13  O   UNL     1       1.484  10.516  21.867  0.00  0.00    +0.000 OA
ATOM     14  H   UNL     1       1.254   9.708  22.363  0.00  0.00    +0.000 HD
ENDBRANCH   1  13
BRANCH   5  15
ATOM     15  C   UNL     1      -3.283  13.944  22.821  0.00  0.00    +0.000 C 
ATOM     16  C   UNL     1      -4.294  13.171  21.964  0.00  0.00    +0.000 C 
BRANCH  15  17
ATOM     17  C   UNL     1      -3.809  15.347  23.233  0.00  0.00    +0.000 C 
BRANCH  17  18
ATOM     18  C   UNL     1      -3.879  15.605  24.762  0.00  0.00    +0.000 C 
ATOM     19  C   UNL     1      -2.690  15.000  25.524  0.00  0.00    +0.000 C 
ATOM     20  C   UNL     1      -1.415  15.820  25.356  0.00  0.00    +0.000 C 
ATOM     21  C   UNL     1      -1.622  17.224  25.904  0.00  0.00    +0.000 C 
ATOM     22  C   UNL     1      -2.770  17.932  25.194  0.00  0.00    +0.000 C 
ATOM     23  C   UNL     1      -4.051  17.100  25.119  0.00  0.00    +0.000 C 
ENDBRANCH  17  18
ENDBRANCH  15  17
ENDBRANCH   5  15
BRANCH   1  24
ATOM     24  C   UNL     1       0.400   9.704  19.841  0.00  0.00    +0.000 C 
BRANCH  24  28
ATOM     25  N   UNL     1       1.923   6.480  20.582  0.00  0.00    +0.000 N 
ATOM     26  C   UNL     1       1.111   7.570  20.977  0.00  0.00    +0.000 A 
ATOM     27  O   UNL     1       0.316   7.589  21.901  0.00  0.00    +0.000 OA
ATOM     28  N   UNL     1       1.337   8.611  20.038  0.00  0.00    +0.000 N 
ATOM     29  C   UNL     1       2.217   8.137  19.055  0.00  0.00    +0.000 A 
ATOM     30  C   UNL     1       2.656   8.749  17.898  0.00  0.00    +0.000 A 
ATOM     31  C   UNL     1       3.481   8.003  17.053  0.00  0.00    +0.000 A 
ATOM     32  C   UNL     1       3.833   6.679  17.373  0.00  0.00    +0.000 A 
ATOM     33  C   UNL     1       3.374   6.071  18.550  0.00  0.00    +0.000 A 
ATOM     34  C   UNL     1       2.575   6.823  19.381  0.00  0.00    +0.000 A 
BRANCH  25  35
ATOM     35  C   UNL     1       1.734   5.139  21.092  0.00  0.00    +0.000 C 
BRANCH  35  37
ATOM     36  C   UNL     1       1.328   2.748  20.303  0.00  0.00    +0.000 C 
ATOM     37  C   UNL     1       0.897   4.204  20.221  0.00  0.00    +0.000 C 
ENDBRANCH  35  37
ENDBRANCH  25  35
ENDBRANCH  24  28
ENDBRANCH   1  24
TORSDOF 8
ENDMDL
