MODEL 1
REMARK VINA RESULT:      -8.8      0.000      0.000
REMARK  Name = 
REMARK  4 active torsions:
REMARK  status: ('A' for Active; 'I' for Inactive)
REMARK    1  A    between atoms: C_1  and  C_2
REMARK    2  A    between atoms: N_6  and  C_7
REMARK    3  A    between atoms: C_18  and  C_20
REMARK    4  A    between atoms: C_24  and  C_25
REMARK                            x       y       z     vdW  Elec       q    Type
REMARK                         _______ _______ _______ _____ _____    ______ ____
ROOT
ATOM      1  C   UNL     1       0.836   9.239  22.166  0.00  0.00    +0.000 C 
ATOM      2  C   UNL     1       1.135   9.600  20.714  0.00  0.00    +0.000 C 
ATOM      3  C   UNL     1      -0.095  10.168  20.018  0.00  0.00    +0.000 A 
ATOM      4  N   UNL     1      -0.963  11.078  20.554  0.00  0.00    +0.000 NA
ATOM      5  C   UNL     1      -1.828  11.345  19.594  0.00  0.00    +0.000 A 
ATOM      6  N   UNL     1      -1.582  10.621  18.442  0.00  0.00    +0.000 N 
ATOM      7  C   UNL     1      -0.412   9.945  18.693  0.00  0.00    +0.000 A 
ATOM      8  C   UNL     1       0.455   9.190  17.750  0.00  0.00    +0.000 C 
ATOM      9  C   UNL     1       1.848   9.019  18.400  0.00  0.00    +0.000 C 
ATOM     10  N   UNL     1       1.717   8.542  19.798  0.00  0.00    +0.000 N 
ATOM     11  C   UNL     1       2.027   7.238  20.244  0.00  0.00    +0.000 C 
ATOM     12  O   UNL     1       1.908   6.894  21.416  0.00  0.00    +0.000 OA
ENDROOT
BRANCH   6  13
ATOM     13  C   UNL     1      -2.358  10.606  17.248  0.00  0.00    +0.000 A 
ATOM     14  C   UNL     1      -1.958   9.810  16.168  0.00  0.00    +0.000 A 
ATOM     15  C   UNL     1      -2.765   9.737  15.022  0.00  0.00    +0.000 A 
ATOM     16  C   UNL     1      -3.942  10.481  14.959  0.00  0.00    +0.000 A 
ATOM     17  F   UNL     1      -4.713  10.400  13.869  0.00  0.00    +0.000 F 
ATOM     18  C   UNL     1      -4.313  11.317  16.002  0.00  0.00    +0.000 A 
ATOM     19  C   UNL     1      -3.520  11.379  17.154  0.00  0.00    +0.000 A 
ENDBRANCH   6  13
BRANCH  11  20
ATOM     20  C   UNL     1       2.489   6.170  19.283  0.00  0.00    +0.000 A 
ATOM     21  C   UNL     1       3.375   6.516  18.256  0.00  0.00    +0.000 A 
ATOM     22  C   UNL     1       3.933   5.571  17.403  0.00  0.00    +0.000 A 
ATOM     23  C   UNL     1       3.505   4.257  17.477  0.00  0.00    +0.000 A 
ATOM     24  C   UNL     1       2.502   3.884  18.392  0.00  0.00    +0.000 A 
ATOM     25  C   UNL     1       1.999   4.843  19.304  0.00  0.00    +0.000 A 
ATOM     26 CL   UNL     1       0.775   4.345  20.430  0.00  0.00    +0.000 Cl
BRANCH  24  27
ATOM     27  C   UNL     1       1.996   2.461  18.353  0.00  0.00    +0.000 C 
ATOM     28  F   UNL     1       2.359   1.746  19.461  0.00  0.00    +0.000 F 
ATOM     29  F   UNL     1       0.641   2.375  18.304  0.00  0.00    +0.000 F 
ATOM     30  F   UNL     1       2.477   1.748  17.299  0.00  0.00    +0.000 F 
ENDBRANCH  24  27
ENDBRANCH  11  20
TORSDOF 3
ENDMDL
MODEL 2
REMARK VINA RESULT:      -8.7      5.618      9.189
REMARK  Name = 
REMARK  4 active torsions:
REMARK  status: ('A' for Active; 'I' for Inactive)
REMARK    1  A    between atoms: C_1  and  C_2
REMARK    2  A    between atoms: N_6  and  C_7
REMARK    3  A    between atoms: C_18  and  C_20
REMARK    4  A    between atoms: C_24  and  C_25
REMARK                            x       y       z     vdW  Elec       q    Type
REMARK                         _______ _______ _______ _____ _____    ______ ____
ROOT
ATOM      1  C   UNL     1      -1.200  13.818  23.592  0.00  0.00    +0.000 C 
ATOM      2  C   UNL     1      -1.471  13.238  22.207  0.00  0.00    +0.000 C 
ATOM      3  C   UNL     1      -0.805  11.879  22.033  0.00  0.00    +0.000 A 
ATOM      4  N   UNL     1      -0.790  10.877  22.962  0.00  0.00    +0.000 NA
ATOM      5  C   UNL     1      -0.177   9.865  22.376  0.00  0.00    +0.000 A 
ATOM      6  N   UNL     1       0.241  10.170  21.094  0.00  0.00    +0.000 N 
ATOM      7  C   UNL     1      -0.253  11.429  20.851  0.00  0.00    +0.000 A 
ATOM      8  C   UNL     1      -0.315  12.180  19.569  0.00  0.00    +0.000 C 
ATOM      9  C   UNL     1      -1.351  13.318  19.722  0.00  0.00    +0.000 C 
ATOM     10  N   UNL     1      -1.127  14.064  20.984  0.00  0.00    +0.000 N 
ATOM     11  C   UNL     1      -0.593  15.367  21.073  0.00  0.00    +0.000 C 
ATOM     12  O   UNL     1      -0.433  15.946  22.144  0.00  0.00    +0.000 OA
ENDROOT
BRANCH   6  13
ATOM     13  C   UNL     1       0.994   9.344  20.212  0.00  0.00    +0.000 A 
ATOM     14  C   UNL     1       1.537   8.141  20.678  0.00  0.00    +0.000 A 
ATOM     15  C   UNL     1       2.212   7.292  19.787  0.00  0.00    +0.000 A 
ATOM     16  C   UNL     1       2.361   7.669  18.454  0.00  0.00    +0.000 A 
ATOM     17  F   UNL     1       2.995   6.852  17.607  0.00  0.00    +0.000 F 
ATOM     18  C   UNL     1       1.876   8.887  17.999  0.00  0.00    +0.000 A 
ATOM     19  C   UNL     1       1.186   9.728  18.880  0.00  0.00    +0.000 A 
ENDBRANCH   6  13
BRANCH  11  20
ATOM     20  C   UNL     1      -0.145  16.118  19.842  0.00  0.00    +0.000 A 
ATOM     21  C   UNL     1      -1.067  16.922  19.163  0.00  0.00    +0.000 A 
ATOM     22  C   UNL     1      -0.704  17.729  18.091  0.00  0.00    +0.000 A 
ATOM     23  C   UNL     1       0.581  17.645  17.586  0.00  0.00    +0.000 A 
ATOM     24  C   UNL     1       1.506  16.738  18.137  0.00  0.00    +0.000 A 
ATOM     25  C   UNL     1       1.144  15.978  19.275  0.00  0.00    +0.000 A 
ATOM     26 CL   UNL     1       2.314  14.882  19.940  0.00  0.00    +0.000 Cl
BRANCH  24  27
ATOM     27  C   UNL     1       2.858  16.609  17.475  0.00  0.00    +0.000 C 
ATOM     28  F   UNL     1       2.969  17.387  16.355  0.00  0.00    +0.000 F 
ATOM     29  F   UNL     1       3.886  16.994  18.276  0.00  0.00    +0.000 F 
ATOM     30  F   UNL     1       3.133  15.345  17.055  0.00  0.00    +0.000 F 
ENDBRANCH  24  27
ENDBRANCH  11  20
TORSDOF 3
ENDMDL
MODEL 3
REMARK VINA RESULT:      -8.4      4.494      8.656
REMARK  Name = 
REMARK  4 active torsions:
REMARK  status: ('A' for Active; 'I' for Inactive)
REMARK    1  A    between atoms: C_1  and  C_2
REMARK    2  A    between atoms: N_6  and  C_7
REMARK    3  A    between atoms: C_18  and  C_20
REMARK    4  A    between atoms: C_24  and  C_25
REMARK                            x       y       z     vdW  Elec       q    Type
REMARK                         _______ _______ _______ _____ _____    ______ ____
ROOT
ATOM      1  C   UNL     1       0.554   9.218  22.330  0.00  0.00    +0.000 C 
ATOM      2  C   UNL     1       0.459   9.078  20.813  0.00  0.00    +0.000 C 
ATOM      3  C   UNL     1       1.319   7.928  20.306  0.00  0.00    +0.000 A 
ATOM      4  N   UNL     1       1.413   6.692  20.882  0.00  0.00    +0.000 NA
ATOM      5  C   UNL     1       2.199   5.993  20.084  0.00  0.00    +0.000 A 
ATOM      6  N   UNL     1       2.655   6.732  19.008  0.00  0.00    +0.000 N 
ATOM      7  C   UNL     1       2.005   7.939  19.108  0.00  0.00    +0.000 A 
ATOM      8  C   UNL     1       1.924   9.045  18.117  0.00  0.00    +0.000 C 
ATOM      9  C   UNL     1       0.730   9.952  18.498  0.00  0.00    +0.000 C 
ATOM     10  N   UNL     1       0.764  10.281  19.943  0.00  0.00    +0.000 N 
ATOM     11  C   UNL     1       1.103  11.541  20.482  0.00  0.00    +0.000 C 
ATOM     12  O   UNL     1       1.108  11.766  21.689  0.00  0.00    +0.000 OA
ENDROOT
BRANCH   6  13
ATOM     13  C   UNL     1       3.573   6.318  18.001  0.00  0.00    +0.000 A 
ATOM     14  C   UNL     1       3.642   4.968  17.635  0.00  0.00    +0.000 A 
ATOM     15  C   UNL     1       4.491   4.575  16.589  0.00  0.00    +0.000 A 
ATOM     16  C   UNL     1       5.279   5.527  15.946  0.00  0.00    +0.000 A 
ATOM     17  F   UNL     1       6.079   5.148  14.943  0.00  0.00    +0.000 F 
ATOM     18  C   UNL     1       5.259   6.856  16.343  0.00  0.00    +0.000 A 
ATOM     19  C   UNL     1       4.400   7.256  17.374  0.00  0.00    +0.000 A 
ENDBRANCH   6  13
BRANCH  11  20
ATOM     20  C   UNL     1       1.521  12.688  19.593  0.00  0.00    +0.000 A 
ATOM     21  C   UNL     1       2.690  12.567  18.833  0.00  0.00    +0.000 A 
ATOM     22  C   UNL     1       3.080  13.529  17.909  0.00  0.00    +0.000 A 
ATOM     23  C   UNL     1       2.368  14.712  17.823  0.00  0.00    +0.000 A 
ATOM     24  C   UNL     1       1.272  14.948  18.673  0.00  0.00    +0.000 A 
ATOM     25  C   UNL     1       0.842  13.928  19.556  0.00  0.00    +0.000 A 
ATOM     26 CL   UNL     1      -0.524  14.246  20.579  0.00  0.00    +0.000 Cl
BRANCH  24  27
ATOM     27  C   UNL     1       0.600  16.300  18.611  0.00  0.00    +0.000 C 
ATOM     28  F   UNL     1       1.220  17.153  17.740  0.00  0.00    +0.000 F 
ATOM     29  F   UNL     1      -0.690  16.239  18.189  0.00  0.00    +0.000 F 
ATOM     30  F   UNL     1       0.597  16.954  19.803  0.00  0.00    +0.000 F 
ENDBRANCH  24  27
ENDBRANCH  11  20
TORSDOF 3
ENDMDL
MODEL 4
REMARK VINA RESULT:      -8.4      4.698      6.377
REMARK  Name = 
REMARK  4 active torsions:
REMARK  status: ('A' for Active; 'I' for Inactive)
REMARK    1  A    between atoms: C_1  and  C_2
REMARK    2  A    between atoms: N_6  and  C_7
REMARK    3  A    between atoms: C_18  and  C_20
REMARK    4  A    between atoms: C_24  and  C_25
REMARK                            x       y       z     vdW  Elec       q    Type
REMARK                         _______ _______ _______ _____ _____    ______ ____
ROOT
ATOM      1  C   UNL     1       1.252  15.583  19.120  0.00  0.00    +0.000 C 
ATOM      2  C   UNL     1       0.010  14.737  18.854  0.00  0.00    +0.000 C 
ATOM      3  C   UNL     1      -1.092  15.034  19.862  0.00  0.00    +0.000 A 
ATOM      4  N   UNL     1      -1.461  16.278  20.292  0.00  0.00    +0.000 NA
ATOM      5  C   UNL     1      -2.491  16.080  21.094  0.00  0.00    +0.000 A 
ATOM      6  N   UNL     1      -2.804  14.741  21.234  0.00  0.00    +0.000 N 
ATOM      7  C   UNL     1      -1.964  14.089  20.363  0.00  0.00    +0.000 A 
ATOM      8  C   UNL     1      -1.994  12.671  19.917  0.00  0.00    +0.000 C 
ATOM      9  C   UNL     1      -1.158  12.551  18.621  0.00  0.00    +0.000 C 
ATOM     10  N   UNL     1       0.151  13.229  18.778  0.00  0.00    +0.000 N 
ATOM     11  C   UNL     1       1.394  12.575  18.912  0.00  0.00    +0.000 C 
ATOM     12  O   UNL     1       2.454  13.184  19.032  0.00  0.00    +0.000 OA
ENDROOT
BRANCH   6  13
ATOM     13  C   UNL     1      -3.801  14.170  22.075  0.00  0.00    +0.000 A 
ATOM     14  C   UNL     1      -5.141  14.182  21.673  0.00  0.00    +0.000 A 
ATOM     15  C   UNL     1      -6.111  13.550  22.467  0.00  0.00    +0.000 A 
ATOM     16  C   UNL     1      -5.734  12.942  23.662  0.00  0.00    +0.000 A 
ATOM     17  F   UNL     1      -6.660  12.331  24.410  0.00  0.00    +0.000 F 
ATOM     18  C   UNL     1      -4.416  12.976  24.095  0.00  0.00    +0.000 A 
ATOM     19  C   UNL     1      -3.443  13.590  23.297  0.00  0.00    +0.000 A 
ENDBRANCH   6  13
BRANCH  11  20
ATOM     20  C   UNL     1       1.487  11.068  18.955  0.00  0.00    +0.000 A 
ATOM     21  C   UNL     1       1.854  10.376  17.795  0.00  0.00    +0.000 A 
ATOM     22  C   UNL     1       2.070   9.003  17.784  0.00  0.00    +0.000 A 
ATOM     23  C   UNL     1       1.789   8.265  18.921  0.00  0.00    +0.000 A 
ATOM     24  C   UNL     1       1.272   8.893  20.069  0.00  0.00    +0.000 A 
ATOM     25  C   UNL     1       1.129  10.302  20.089  0.00  0.00    +0.000 A 
ATOM     26 CL   UNL     1       0.504  11.046  21.527  0.00  0.00    +0.000 Cl
BRANCH  24  27
ATOM     27  C   UNL     1       0.881   8.024  21.241  0.00  0.00    +0.000 C 
ATOM     28  F   UNL     1       1.196   6.707  21.044  0.00  0.00    +0.000 F 
ATOM     29  F   UNL     1       1.506   8.368  22.397  0.00  0.00    +0.000 F 
ATOM     30  F   UNL     1      -0.456   8.033  21.494  0.00  0.00    +0.000 F 
ENDBRANCH  24  27
ENDBRANCH  11  20
TORSDOF 3
ENDMDL
MODEL 5
REMARK VINA RESULT:      -8.3      5.167      9.081
REMARK  Name = 
REMARK  4 active torsions:
REMARK  status: ('A' for Active; 'I' for Inactive)
REMARK    1  A    between atoms: C_1  and  C_2
REMARK    2  A    between atoms: N_6  and  C_7
REMARK    3  A    between atoms: C_18  and  C_20
REMARK    4  A    between atoms: C_24  and  C_25
REMARK                            x       y       z     vdW  Elec       q    Type
REMARK                         _______ _______ _______ _____ _____    ______ ____
ROOT
ATOM      1  C   UNL     1      -0.667  11.379  22.665  0.00  0.00    +0.000 C 
ATOM      2  C   UNL     1      -0.561  11.061  21.175  0.00  0.00    +0.000 C 
ATOM      3  C   UNL     1       0.125   9.723  20.939  0.00  0.00    +0.000 A 
ATOM      4  N   UNL     1      -0.107   8.575  21.644  0.00  0.00    +0.000 NA
ATOM      5  C   UNL     1       0.638   7.652  21.065  0.00  0.00    +0.000 A 
ATOM      6  N   UNL     1       1.382   8.153  20.014  0.00  0.00    +0.000 N 
ATOM      7  C   UNL     1       0.971   9.458  19.881  0.00  0.00    +0.000 A 
ATOM      8  C   UNL     1       1.253  10.422  18.785  0.00  0.00    +0.000 C 
ATOM      9  C   UNL     1       0.215  11.566  18.864  0.00  0.00    +0.000 C 
ATOM     10  N   UNL     1       0.097  12.069  20.254  0.00  0.00    +0.000 N 
ATOM     11  C   UNL     1       0.590  13.310  20.714  0.00  0.00    +0.000 C 
ATOM     12  O   UNL     1       0.459  13.685  21.876  0.00  0.00    +0.000 OA
ENDROOT
BRANCH   6  13
ATOM     13  C   UNL     1       2.342   7.457  19.225  0.00  0.00    +0.000 A 
ATOM     14  C   UNL     1       2.779   8.009  18.015  0.00  0.00    +0.000 A 
ATOM     15  C   UNL     1       3.781   7.359  17.278  0.00  0.00    +0.000 A 
ATOM     16  C   UNL     1       4.311   6.157  17.742  0.00  0.00    +0.000 A 
ATOM     17  F   UNL     1       5.273   5.548  17.042  0.00  0.00    +0.000 F 
ATOM     18  C   UNL     1       3.841   5.576  18.912  0.00  0.00    +0.000 A 
ATOM     19  C   UNL     1       2.854   6.230  19.659  0.00  0.00    +0.000 A 
ENDBRANCH   6  13
BRANCH  11  20
ATOM     20  C   UNL     1       1.350  14.240  19.799  0.00  0.00    +0.000 A 
ATOM     21  C   UNL     1       2.692  13.966  19.515  0.00  0.00    +0.000 A 
ATOM     22  C   UNL     1       3.425  14.709  18.596  0.00  0.00    +0.000 A 
ATOM     23  C   UNL     1       2.858  15.840  18.034  0.00  0.00    +0.000 A 
ATOM     24  C   UNL     1       1.562  16.246  18.403  0.00  0.00    +0.000 A 
ATOM     25  C   UNL     1       0.802  15.438  19.283  0.00  0.00    +0.000 A 
ATOM     26 CL   UNL     1      -0.800  15.959  19.703  0.00  0.00    +0.000 Cl
BRANCH  24  27
ATOM     27  C   UNL     1       1.037  17.547  17.843  0.00  0.00    +0.000 C 
ATOM     28  F   UNL     1       1.847  18.062  16.868  0.00  0.00    +0.000 F 
ATOM     29  F   UNL     1      -0.185  17.427  17.261  0.00  0.00    +0.000 F 
ATOM     30  F   UNL     1       0.938  18.532  18.775  0.00  0.00    +0.000 F 
ENDBRANCH  24  27
ENDBRANCH  11  20
TORSDOF 3
ENDMDL
MODEL 6
REMARK VINA RESULT:      -8.3      5.202      9.065
REMARK  Name = 
REMARK  4 active torsions:
REMARK  status: ('A' for Active; 'I' for Inactive)
REMARK    1  A    between atoms: C_1  and  C_2
REMARK    2  A    between atoms: N_6  and  C_7
REMARK    3  A    between atoms: C_18  and  C_20
REMARK    4  A    between atoms: C_24  and  C_25
REMARK                            x       y       z     vdW  Elec       q    Type
REMARK                         _______ _______ _______ _____ _____    ______ ____
ROOT
ATOM      1  C   UNL     1      -0.747  11.545  22.719  0.00  0.00    +0.000 C 
ATOM      2  C   UNL     1      -0.636  11.219  21.232  0.00  0.00    +0.000 C 
ATOM      3  C   UNL     1       0.024   9.866  21.007  0.00  0.00    +0.000 A 
ATOM      4  N   UNL     1      -0.237   8.726  21.715  0.00  0.00    +0.000 NA
ATOM      5  C   UNL     1       0.493   7.785  21.146  0.00  0.00    +0.000 A 
ATOM      6  N   UNL     1       1.256   8.267  20.099  0.00  0.00    +0.000 N 
ATOM      7  C   UNL     1       0.873   9.579  19.957  0.00  0.00    +0.000 A 
ATOM      8  C   UNL     1       1.184  10.532  18.859  0.00  0.00    +0.000 C 
ATOM      9  C   UNL     1       0.168  11.698  18.925  0.00  0.00    +0.000 C 
ATOM     10  N   UNL     1       0.049  12.209  20.312  0.00  0.00    +0.000 N 
ATOM     11  C   UNL     1       0.564  13.442  20.770  0.00  0.00    +0.000 C 
ATOM     12  O   UNL     1       0.432  13.825  21.929  0.00  0.00    +0.000 OA
ENDROOT
BRANCH   6  13
ATOM     13  C   UNL     1       2.208   7.548  19.321  0.00  0.00    +0.000 A 
ATOM     14  C   UNL     1       2.659   6.296  19.756  0.00  0.00    +0.000 A 
ATOM     15  C   UNL     1       3.537   5.556  18.949  0.00  0.00    +0.000 A 
ATOM     16  C   UNL     1       3.974   6.086  17.737  0.00  0.00    +0.000 A 
ATOM     17  F   UNL     1       4.801   5.372  16.967  0.00  0.00    +0.000 F 
ATOM     18  C   UNL     1       3.575   7.351  17.327  0.00  0.00    +0.000 A 
ATOM     19  C   UNL     1       2.686   8.085  18.121  0.00  0.00    +0.000 A 
ENDBRANCH   6  13
BRANCH  11  20
ATOM     20  C   UNL     1       1.350  14.352  19.857  0.00  0.00    +0.000 A 
ATOM     21  C   UNL     1       2.704  14.082  19.630  0.00  0.00    +0.000 A 
ATOM     22  C   UNL     1       3.464  14.805  18.718  0.00  0.00    +0.000 A 
ATOM     23  C   UNL     1       2.910  15.914  18.104  0.00  0.00    +0.000 A 
ATOM     24  C   UNL     1       1.598  16.319  18.413  0.00  0.00    +0.000 A 
ATOM     25  C   UNL     1       0.812  15.529  19.287  0.00  0.00    +0.000 A 
ATOM     26 CL   UNL     1      -0.808  16.048  19.633  0.00  0.00    +0.000 Cl
BRANCH  24  27
ATOM     27  C   UNL     1       1.085  17.599  17.797  0.00  0.00    +0.000 C 
ATOM     28  F   UNL     1      -0.155  17.450  17.237  0.00  0.00    +0.000 F 
ATOM     29  F   UNL     1       0.948  18.610  18.695  0.00  0.00    +0.000 F 
ATOM     30  F   UNL     1       1.872  18.065  16.790  0.00  0.00    +0.000 F 
ENDBRANCH  24  27
ENDBRANCH  11  20
TORSDOF 3
ENDMDL
MODEL 7
REMARK VINA RESULT:      -8.3      4.481      8.712
REMARK  Name = 
REMARK  4 active torsions:
REMARK  status: ('A' for Active; 'I' for Inactive)
REMARK    1  A    between atoms: C_1  and  C_2
REMARK    2  A    between atoms: N_6  and  C_7
REMARK    3  A    between atoms: C_18  and  C_20
REMARK    4  A    between atoms: C_24  and  C_25
REMARK                            x       y       z     vdW  Elec       q    Type
REMARK                         _______ _______ _______ _____ _____    ______ ____
ROOT
ATOM      1  C   UNL     1       0.610   9.108  22.274  0.00  0.00    +0.000 C 
ATOM      2  C   UNL     1       0.528   8.980  20.755  0.00  0.00    +0.000 C 
ATOM      3  C   UNL     1       1.414   7.852  20.244  0.00  0.00    +0.000 A 
ATOM      4  N   UNL     1       1.530   6.613  20.809  0.00  0.00    +0.000 NA
ATOM      5  C   UNL     1       2.335   5.938  20.010  0.00  0.00    +0.000 A 
ATOM      6  N   UNL     1       2.784   6.696  18.944  0.00  0.00    +0.000 N 
ATOM      7  C   UNL     1       2.109   7.889  19.051  0.00  0.00    +0.000 A 
ATOM      8  C   UNL     1       2.012   9.002  18.070  0.00  0.00    +0.000 C 
ATOM      9  C   UNL     1       0.797   9.881  18.451  0.00  0.00    +0.000 C 
ATOM     10  N   UNL     1       0.814  10.197  19.899  0.00  0.00    +0.000 N 
ATOM     11  C   UNL     1       1.124  11.459  20.452  0.00  0.00    +0.000 C 
ATOM     12  O   UNL     1       1.116  11.672  21.661  0.00  0.00    +0.000 OA
ENDROOT
BRANCH   6  13
ATOM     13  C   UNL     1       3.717   6.310  17.941  0.00  0.00    +0.000 A 
ATOM     14  C   UNL     1       4.691   7.219  17.510  0.00  0.00    +0.000 A 
ATOM     15  C   UNL     1       5.658   6.810  16.578  0.00  0.00    +0.000 A 
ATOM     16  C   UNL     1       5.620   5.514  16.068  0.00  0.00    +0.000 A 
ATOM     17  F   UNL     1       6.550   5.127  15.188  0.00  0.00    +0.000 F 
ATOM     18  C   UNL     1       4.622   4.628  16.447  0.00  0.00    +0.000 A 
ATOM     19  C   UNL     1       3.667   5.025  17.390  0.00  0.00    +0.000 A 
ENDBRANCH   6  13
BRANCH  11  20
ATOM     20  C   UNL     1       1.525  12.622  19.577  0.00  0.00    +0.000 A 
ATOM     21  C   UNL     1       2.683  12.518  18.797  0.00  0.00    +0.000 A 
ATOM     22  C   UNL     1       3.056  13.498  17.884  0.00  0.00    +0.000 A 
ATOM     23  C   UNL     1       2.339  14.679  17.830  0.00  0.00    +0.000 A 
ATOM     24  C   UNL     1       1.255  14.897  18.701  0.00  0.00    +0.000 A 
ATOM     25  C   UNL     1       0.842  13.860  19.572  0.00  0.00    +0.000 A 
ATOM     26 CL   UNL     1      -0.509  14.156  20.621  0.00  0.00    +0.000 Cl
BRANCH  24  27
ATOM     27  C   UNL     1       0.579  16.248  18.673  0.00  0.00    +0.000 C 
ATOM     28  F   UNL     1      -0.737  16.167  18.306  0.00  0.00    +0.000 F 
ATOM     29  F   UNL     1       0.572  16.870  19.881  0.00  0.00    +0.000 F 
ATOM     30  F   UNL     1       1.140  17.111  17.784  0.00  0.00    +0.000 F 
ENDBRANCH  24  27
ENDBRANCH  11  20
TORSDOF 3
ENDMDL
MODEL 8
REMARK VINA RESULT:      -8.3      1.910      2.524
REMARK  Name = 
REMARK  4 active torsions:
REMARK  status: ('A' for Active; 'I' for Inactive)
REMARK    1  A    between atoms: C_1  and  C_2
REMARK    2  A    between atoms: N_6  and  C_7
REMARK    3  A    between atoms: C_18  and  C_20
REMARK    4  A    between atoms: C_24  and  C_25
REMARK                            x       y       z     vdW  Elec       q    Type
REMARK                         _______ _______ _______ _____ _____    ______ ____
ROOT
ATOM      1  C   UNL     1       1.369   8.744  21.932  0.00  0.00    +0.000 C 
ATOM      2  C   UNL     1       1.566   9.122  20.467  0.00  0.00    +0.000 C 
ATOM      3  C   UNL     1       0.318   9.777  19.888  0.00  0.00    +0.000 A 
ATOM      4  N   UNL     1      -0.446  10.722  20.513  0.00  0.00    +0.000 NA
ATOM      5  C   UNL     1      -1.371  11.061  19.635  0.00  0.00    +0.000 A 
ATOM      6  N   UNL     1      -1.266  10.352  18.453  0.00  0.00    +0.000 N 
ATOM      7  C   UNL     1      -0.121   9.604  18.591  0.00  0.00    +0.000 A 
ATOM      8  C   UNL     1       0.618   8.823  17.564  0.00  0.00    +0.000 C 
ATOM      9  C   UNL     1       2.048   8.556  18.091  0.00  0.00    +0.000 C 
ATOM     10  N   UNL     1       2.006   8.054  19.485  0.00  0.00    +0.000 N 
ATOM     11  C   UNL     1       2.273   6.725  19.879  0.00  0.00    +0.000 C 
ATOM     12  O   UNL     1       2.233   6.360  21.051  0.00  0.00    +0.000 OA
ENDROOT
BRANCH   6  13
ATOM     13  C   UNL     1      -2.138  10.410  17.329  0.00  0.00    +0.000 A 
ATOM     14  C   UNL     1      -3.207  11.314  17.324  0.00  0.00    +0.000 A 
ATOM     15  C   UNL     1      -4.018  11.424  16.184  0.00  0.00    +0.000 A 
ATOM     16  C   UNL     1      -3.769  10.612  15.079  0.00  0.00    +0.000 A 
ATOM     17  F   UNL     1      -4.538  10.729  13.992  0.00  0.00    +0.000 F 
ATOM     18  C   UNL     1      -2.747   9.674  15.100  0.00  0.00    +0.000 A 
ATOM     19  C   UNL     1      -1.924   9.573  16.228  0.00  0.00    +0.000 A 
ENDBRANCH   6  13
BRANCH  11  20
ATOM     20  C   UNL     1       2.590   5.654  18.862  0.00  0.00    +0.000 A 
ATOM     21  C   UNL     1       1.687   4.600  18.682  0.00  0.00    +0.000 A 
ATOM     22  C   UNL     1       1.852   3.641  17.690  0.00  0.00    +0.000 A 
ATOM     23  C   UNL     1       3.011   3.641  16.934  0.00  0.00    +0.000 A 
ATOM     24  C   UNL     1       4.022   4.589  17.179  0.00  0.00    +0.000 A 
ATOM     25  C   UNL     1       3.806   5.606  18.142  0.00  0.00    +0.000 A 
ATOM     26 CL   UNL     1       5.066   6.770  18.406  0.00  0.00    +0.000 Cl
BRANCH  24  27
ATOM     27  C   UNL     1       5.311   4.474  16.400  0.00  0.00    +0.000 C 
ATOM     28  F   UNL     1       5.363   3.338  15.639  0.00  0.00    +0.000 F 
ATOM     29  F   UNL     1       5.502   5.495  15.524  0.00  0.00    +0.000 F 
ATOM     30  F   UNL     1       6.415   4.418  17.192  0.00  0.00    +0.000 F 
ENDBRANCH  24  27
ENDBRANCH  11  20
TORSDOF 3
ENDMDL
MODEL 9
REMARK VINA RESULT:      -8.3      1.924      2.383
REMARK  Name = 
REMARK  4 active torsions:
REMARK  status: ('A' for Active; 'I' for Inactive)
REMARK    1  A    between atoms: C_1  and  C_2
REMARK    2  A    between atoms: N_6  and  C_7
REMARK    3  A    between atoms: C_18  and  C_20
REMARK    4  A    between atoms: C_24  and  C_25
REMARK                            x       y       z     vdW  Elec       q    Type
REMARK                         _______ _______ _______ _____ _____    ______ ____
ROOT
ATOM      1  C   UNL     1       1.357   8.737  21.971  0.00  0.00    +0.000 C 
ATOM      2  C   UNL     1       1.568   9.131  20.511  0.00  0.00    +0.000 C 
ATOM      3  C   UNL     1       0.331   9.805  19.933  0.00  0.00    +0.000 A 
ATOM      4  N   UNL     1      -0.428  10.750  20.564  0.00  0.00    +0.000 NA
ATOM      5  C   UNL     1      -1.344  11.109  19.683  0.00  0.00    +0.000 A 
ATOM      6  N   UNL     1      -1.237  10.413  18.494  0.00  0.00    +0.000 N 
ATOM      7  C   UNL     1      -0.101   9.653  18.631  0.00  0.00    +0.000 A 
ATOM      8  C   UNL     1       0.638   8.877  17.599  0.00  0.00    +0.000 C 
ATOM      9  C   UNL     1       2.062   8.590  18.132  0.00  0.00    +0.000 C 
ATOM     10  N   UNL     1       2.005   8.072  19.520  0.00  0.00    +0.000 N 
ATOM     11  C   UNL     1       2.257   6.735  19.898  0.00  0.00    +0.000 C 
ATOM     12  O   UNL     1       2.205   6.356  21.065  0.00  0.00    +0.000 OA
ENDROOT
BRANCH   6  13
ATOM     13  C   UNL     1      -2.101  10.494  17.364  0.00  0.00    +0.000 A 
ATOM     14  C   UNL     1      -1.875   9.670  16.256  0.00  0.00    +0.000 A 
ATOM     15  C   UNL     1      -2.773   9.696  15.177  0.00  0.00    +0.000 A 
ATOM     16  C   UNL     1      -3.863  10.563  15.207  0.00  0.00    +0.000 A 
ATOM     17  F   UNL     1      -4.721  10.576  14.181  0.00  0.00    +0.000 F 
ATOM     18  C   UNL     1      -4.059  11.424  16.277  0.00  0.00    +0.000 A 
ATOM     19  C   UNL     1      -3.176  11.389  17.363  0.00  0.00    +0.000 A 
ENDBRANCH   6  13
BRANCH  11  20
ATOM     20  C   UNL     1       2.570   5.674  18.871  0.00  0.00    +0.000 A 
ATOM     21  C   UNL     1       1.675   4.613  18.695  0.00  0.00    +0.000 A 
ATOM     22  C   UNL     1       1.836   3.662  17.694  0.00  0.00    +0.000 A 
ATOM     23  C   UNL     1       2.986   3.678  16.924  0.00  0.00    +0.000 A 
ATOM     24  C   UNL     1       3.991   4.634  17.163  0.00  0.00    +0.000 A 
ATOM     25  C   UNL     1       3.778   5.641  18.135  0.00  0.00    +0.000 A 
ATOM     26 CL   UNL     1       5.030   6.815  18.391  0.00  0.00    +0.000 Cl
BRANCH  24  27
ATOM     27  C   UNL     1       5.271   4.535  16.367  0.00  0.00    +0.000 C 
ATOM     28  F   UNL     1       5.486   5.636  15.583  0.00  0.00    +0.000 F 
ATOM     29  F   UNL     1       6.380   4.433  17.145  0.00  0.00    +0.000 F 
ATOM     30  F   UNL     1       5.290   3.482  15.507  0.00  0.00    +0.000 F 
ENDBRANCH  24  27
ENDBRANCH  11  20
TORSDOF 3
ENDMDL
