MODEL 1
REMARK VINA RESULT:      -8.1      0.000      0.000
REMARK  Name = 
REMARK  5 active torsions:
REMARK  status: ('A' for Active; 'I' for Inactive)
REMARK    1  A    between atoms: C_2  and  C_3
REMARK    2  A    between atoms: C_4  and  C_5
REMARK    3  A    between atoms: N_7  and  C_8
REMARK    4  A    between atoms: C_8  and  C_9
REMARK    5  A    between atoms: C_15  and  C_16
REMARK                            x       y       z     vdW  Elec       q    Type
REMARK                         _______ _______ _______ _____ _____    ______ ____
ROOT
ATOM      1  C   UNL     1       7.428   6.555  17.681  0.00  0.00    +0.000 C 
ATOM      2  C   UNL     1       6.796   5.687  16.869  0.00  0.00    +0.000 C 
ATOM      3  C   UNL     1       6.570   4.401  17.587  0.00  0.00    +0.000 C 
ATOM      4  O   UNL     1       7.160   4.561  18.896  0.00  0.00    +0.000 OA
ATOM      5  C   UNL     1       7.696   5.886  18.989  0.00  0.00    +0.000 C 
ENDROOT
BRANCH   3   6
ATOM      6  C   UNL     1       5.127   3.997  17.826  0.00  0.00    +0.000 A 
ATOM      7  C   UNL     1       4.301   3.559  16.778  0.00  0.00    +0.000 A 
ATOM      8  C   UNL     1       2.955   3.262  17.007  0.00  0.00    +0.000 A 
ATOM      9  C   UNL     1       2.413   3.394  18.288  0.00  0.00    +0.000 A 
ATOM     10 CL   UNL     1       0.731   3.054  18.488  0.00  0.00    +0.000 Cl
ATOM     11  C   UNL     1       3.228   3.802  19.347  0.00  0.00    +0.000 A 
ATOM     12 CL   UNL     1       2.638   3.963  20.963  0.00  0.00    +0.000 Cl
ATOM     13  C   UNL     1       4.576   4.102  19.116  0.00  0.00    +0.000 A 
ENDBRANCH   3   6
BRANCH   2  14
ATOM     14  C   UNL     1       6.518   5.874  15.422  0.00  0.00    +0.000 C 
ATOM     15  O   UNL     1       5.528   6.486  15.034  0.00  0.00    +0.000 OA
ATOM     16  N   UNL     1       7.448   5.365  14.553  0.00  0.00    +0.000 N 
ATOM     17  H   UNL     1       8.130   4.693  14.867  0.00  0.00    +0.000 HD
BRANCH  16  18
ATOM     18  C   UNL     1       7.270   5.468  13.120  0.00  0.00    +0.000 C 
BRANCH  18  19
ATOM     19  C   UNL     1       6.718   4.187  12.551  0.00  0.00    +0.000 A 
ATOM     20  C   UNL     1       7.559   3.262  11.916  0.00  0.00    +0.000 A 
ATOM     21  C   UNL     1       7.038   2.079  11.383  0.00  0.00    +0.000 A 
ATOM     22  C   UNL     1       5.673   1.814  11.469  0.00  0.00    +0.000 A 
ATOM     23  C   UNL     1       4.826   2.729  12.093  0.00  0.00    +0.000 A 
ATOM     24  C   UNL     1       5.344   3.911  12.627  0.00  0.00    +0.000 A 
ENDBRANCH  18  19
ENDBRANCH  16  18
ENDBRANCH   2  14
BRANCH   1  26
ATOM     25  C   UNL     1       8.371   8.743  18.326  0.00  0.00    +0.000 C 
ATOM     26  C   UNL     1       7.855   7.906  17.418  0.00  0.00    +0.000 C 
ENDBRANCH   1  26
TORSDOF 5
ENDMDL
MODEL 2
REMARK VINA RESULT:      -7.9      0.864      1.035
REMARK  Name = 
REMARK  5 active torsions:
REMARK  status: ('A' for Active; 'I' for Inactive)
REMARK    1  A    between atoms: C_2  and  C_3
REMARK    2  A    between atoms: C_4  and  C_5
REMARK    3  A    between atoms: N_7  and  C_8
REMARK    4  A    between atoms: C_8  and  C_9
REMARK    5  A    between atoms: C_15  and  C_16
REMARK                            x       y       z     vdW  Elec       q    Type
REMARK                         _______ _______ _______ _____ _____    ______ ____
ROOT
ATOM      1  C   UNL     1       6.884   6.424  17.651  0.00  0.00    +0.000 C 
ATOM      2  C   UNL     1       6.150   5.543  16.946  0.00  0.00    +0.000 C 
ATOM      3  C   UNL     1       6.074   4.249  17.682  0.00  0.00    +0.000 C 
ATOM      4  O   UNL     1       6.862   4.420  18.880  0.00  0.00    +0.000 OA
ATOM      5  C   UNL     1       7.374   5.759  18.895  0.00  0.00    +0.000 C 
ENDROOT
BRANCH   3   6
ATOM      6  C   UNL     1       4.698   3.809  18.146  0.00  0.00    +0.000 A 
ATOM      7  C   UNL     1       3.952   2.853  17.439  0.00  0.00    +0.000 A 
ATOM      8  C   UNL     1       2.658   2.516  17.844  0.00  0.00    +0.000 A 
ATOM      9  C   UNL     1       2.089   3.126  18.964  0.00  0.00    +0.000 A 
ATOM     10 CL   UNL     1       0.468   2.695  19.377  0.00  0.00    +0.000 Cl
ATOM     11  C   UNL     1       2.828   4.059  19.695  0.00  0.00    +0.000 A 
ATOM     12 CL   UNL     1       2.203   4.837  21.105  0.00  0.00    +0.000 Cl
ATOM     13  C   UNL     1       4.124   4.398  19.287  0.00  0.00    +0.000 A 
ENDBRANCH   3   6
BRANCH   2  14
ATOM     14  C   UNL     1       5.639   5.727  15.563  0.00  0.00    +0.000 C 
ATOM     15  O   UNL     1       5.201   6.806  15.181  0.00  0.00    +0.000 OA
ATOM     16  N   UNL     1       5.726   4.639  14.733  0.00  0.00    +0.000 N 
ATOM     17  H   UNL     1       5.883   3.717  15.108  0.00  0.00    +0.000 HD
BRANCH  16  18
ATOM     18  C   UNL     1       5.237   4.694  13.371  0.00  0.00    +0.000 C 
BRANCH  18  19
ATOM     19  C   UNL     1       5.865   3.617  12.527  0.00  0.00    +0.000 A 
ATOM     20  C   UNL     1       7.237   3.638  12.239  0.00  0.00    +0.000 A 
ATOM     21  C   UNL     1       7.812   2.639  11.448  0.00  0.00    +0.000 A 
ATOM     22  C   UNL     1       7.022   1.616  10.928  0.00  0.00    +0.000 A 
ATOM     23  C   UNL     1       5.655   1.587  11.202  0.00  0.00    +0.000 A 
ATOM     24  C   UNL     1       5.079   2.584  11.993  0.00  0.00    +0.000 A 
ENDBRANCH  18  19
ENDBRANCH  16  18
ENDBRANCH   2  14
BRANCH   1  26
ATOM     25  C   UNL     1       8.199   8.495  17.923  0.00  0.00    +0.000 C 
ATOM     26  C   UNL     1       7.230   7.786  17.332  0.00  0.00    +0.000 C 
ENDBRANCH   1  26
TORSDOF 5
ENDMDL
MODEL 3
REMARK VINA RESULT:      -7.9      0.909      1.339
REMARK  Name = 
REMARK  5 active torsions:
REMARK  status: ('A' for Active; 'I' for Inactive)
REMARK    1  A    between atoms: C_2  and  C_3
REMARK    2  A    between atoms: C_4  and  C_5
REMARK    3  A    between atoms: N_7  and  C_8
REMARK    4  A    between atoms: C_8  and  C_9
REMARK    5  A    between atoms: C_15  and  C_16
REMARK                            x       y       z     vdW  Elec       q    Type
REMARK                         _______ _______ _______ _____ _____    ______ ____
ROOT
ATOM      1  C   UNL     1       6.878   6.365  17.601  0.00  0.00    +0.000 C 
ATOM      2  C   UNL     1       6.119   5.509  16.893  0.00  0.00    +0.000 C 
ATOM      3  C   UNL     1       5.991   4.221  17.632  0.00  0.00    +0.000 C 
ATOM      4  O   UNL     1       6.775   4.368  18.837  0.00  0.00    +0.000 OA
ATOM      5  C   UNL     1       7.334   5.688  18.851  0.00  0.00    +0.000 C 
ENDROOT
BRANCH   3   6
ATOM      6  C   UNL     1       4.597   3.832  18.087  0.00  0.00    +0.000 A 
ATOM      7  C   UNL     1       3.491   3.912  17.225  0.00  0.00    +0.000 A 
ATOM      8  C   UNL     1       2.205   3.618  17.685  0.00  0.00    +0.000 A 
ATOM      9  C   UNL     1       2.003   3.236  19.013  0.00  0.00    +0.000 A 
ATOM     10 CL   UNL     1       0.380   2.933  19.525  0.00  0.00    +0.000 Cl
ATOM     11  C   UNL     1       3.096   3.124  19.877  0.00  0.00    +0.000 A 
ATOM     12 CL   UNL     1       2.930   2.633  21.525  0.00  0.00    +0.000 Cl
ATOM     13  C   UNL     1       4.384   3.421  19.415  0.00  0.00    +0.000 A 
ENDBRANCH   3   6
BRANCH   2  14
ATOM     14  C   UNL     1       5.626   5.706  15.505  0.00  0.00    +0.000 C 
ATOM     15  O   UNL     1       5.182   6.786  15.131  0.00  0.00    +0.000 OA
ATOM     16  N   UNL     1       5.736   4.630  14.662  0.00  0.00    +0.000 N 
ATOM     17  H   UNL     1       5.898   3.706  15.027  0.00  0.00    +0.000 HD
BRANCH  16  18
ATOM     18  C   UNL     1       5.267   4.699  13.294  0.00  0.00    +0.000 C 
BRANCH  18  19
ATOM     19  C   UNL     1       5.873   3.602  12.458  0.00  0.00    +0.000 A 
ATOM     20  C   UNL     1       5.088   2.537  11.993  0.00  0.00    +0.000 A 
ATOM     21  C   UNL     1       5.659   1.518  11.225  0.00  0.00    +0.000 A 
ATOM     22  C   UNL     1       7.019   1.548  10.922  0.00  0.00    +0.000 A 
ATOM     23  C   UNL     1       7.811   2.598  11.384  0.00  0.00    +0.000 A 
ATOM     24  C   UNL     1       7.242   3.618  12.152  0.00  0.00    +0.000 A 
ENDBRANCH  18  19
ENDBRANCH  16  18
ENDBRANCH   2  14
BRANCH   1  26
ATOM     25  C   UNL     1       8.166   8.439  17.967  0.00  0.00    +0.000 C 
ATOM     26  C   UNL     1       7.275   7.713  17.281  0.00  0.00    +0.000 C 
ENDBRANCH   1  26
TORSDOF 5
ENDMDL
MODEL 4
REMARK VINA RESULT:      -7.9      1.083      1.536
REMARK  Name = 
REMARK  5 active torsions:
REMARK  status: ('A' for Active; 'I' for Inactive)
REMARK    1  A    between atoms: C_2  and  C_3
REMARK    2  A    between atoms: C_4  and  C_5
REMARK    3  A    between atoms: N_7  and  C_8
REMARK    4  A    between atoms: C_8  and  C_9
REMARK    5  A    between atoms: C_15  and  C_16
REMARK                            x       y       z     vdW  Elec       q    Type
REMARK                         _______ _______ _______ _____ _____    ______ ____
ROOT
ATOM      1  C   UNL     1       7.165   6.553  17.674  0.00  0.00    +0.000 C 
ATOM      2  C   UNL     1       6.289   5.698  17.115  0.00  0.00    +0.000 C 
ATOM      3  C   UNL     1       6.180   4.470  17.953  0.00  0.00    +0.000 C 
ATOM      4  O   UNL     1       7.103   4.648  19.051  0.00  0.00    +0.000 OA
ATOM      5  C   UNL     1       7.726   5.931  18.911  0.00  0.00    +0.000 C 
ENDROOT
BRANCH   3   6
ATOM      6  C   UNL     1       4.829   4.192  18.584  0.00  0.00    +0.000 A 
ATOM      7  C   UNL     1       4.259   2.909  18.571  0.00  0.00    +0.000 A 
ATOM      8  C   UNL     1       2.982   2.690  19.093  0.00  0.00    +0.000 A 
ATOM      9  C   UNL     1       2.254   3.748  19.641  0.00  0.00    +0.000 A 
ATOM     10 CL   UNL     1       0.663   3.413  20.225  0.00  0.00    +0.000 Cl
ATOM     11  C   UNL     1       2.818   5.026  19.687  0.00  0.00    +0.000 A 
ATOM     12 CL   UNL     1       1.992   6.380  20.371  0.00  0.00    +0.000 Cl
ATOM     13  C   UNL     1       4.097   5.245  19.161  0.00  0.00    +0.000 A 
ENDBRANCH   3   6
BRANCH   2  14
ATOM     14  C   UNL     1       5.652   5.834  15.780  0.00  0.00    +0.000 C 
ATOM     15  O   UNL     1       5.081   6.866  15.446  0.00  0.00    +0.000 OA
ATOM     16  N   UNL     1       5.777   4.762  14.934  0.00  0.00    +0.000 N 
ATOM     17  H   UNL     1       6.054   3.860  15.286  0.00  0.00    +0.000 HD
BRANCH  16  18
ATOM     18  C   UNL     1       5.177   4.773  13.617  0.00  0.00    +0.000 C 
BRANCH  18  19
ATOM     19  C   UNL     1       5.830   3.757  12.717  0.00  0.00    +0.000 A 
ATOM     20  C   UNL     1       5.095   2.683  12.195  0.00  0.00    +0.000 A 
ATOM     21  C   UNL     1       5.709   1.739  11.367  0.00  0.00    +0.000 A 
ATOM     22  C   UNL     1       7.064   1.853  11.060  0.00  0.00    +0.000 A 
ATOM     23  C   UNL     1       7.806   2.914  11.577  0.00  0.00    +0.000 A 
ATOM     24  C   UNL     1       7.194   3.858  12.404  0.00  0.00    +0.000 A 
ENDBRANCH  18  19
ENDBRANCH  16  18
ENDBRANCH   2  14
BRANCH   1  26
ATOM     25  C   UNL     1       8.206   8.771  17.972  0.00  0.00    +0.000 C 
ATOM     26  C   UNL     1       7.591   7.852  17.219  0.00  0.00    +0.000 C 
ENDBRANCH   1  26
TORSDOF 5
ENDMDL
MODEL 5
REMARK VINA RESULT:      -7.7      1.030      1.609
REMARK  Name = 
REMARK  5 active torsions:
REMARK  status: ('A' for Active; 'I' for Inactive)
REMARK    1  A    between atoms: C_2  and  C_3
REMARK    2  A    between atoms: C_4  and  C_5
REMARK    3  A    between atoms: N_7  and  C_8
REMARK    4  A    between atoms: C_8  and  C_9
REMARK    5  A    between atoms: C_15  and  C_16
REMARK                            x       y       z     vdW  Elec       q    Type
REMARK                         _______ _______ _______ _____ _____    ______ ____
ROOT
ATOM      1  C   UNL     1       7.271   6.576  17.696  0.00  0.00    +0.000 C 
ATOM      2  C   UNL     1       6.349   5.763  17.147  0.00  0.00    +0.000 C 
ATOM      3  C   UNL     1       6.172   4.554  18.000  0.00  0.00    +0.000 C 
ATOM      4  O   UNL     1       7.102   4.695  19.096  0.00  0.00    +0.000 OA
ATOM      5  C   UNL     1       7.795   5.940  18.941  0.00  0.00    +0.000 C 
ENDROOT
BRANCH   3   6
ATOM      6  C   UNL     1       4.807   4.360  18.633  0.00  0.00    +0.000 A 
ATOM      7  C   UNL     1       4.247   5.322  19.489  0.00  0.00    +0.000 A 
ATOM      8  C   UNL     1       3.022   5.090  20.118  0.00  0.00    +0.000 A 
ATOM      9  C   UNL     1       2.333   3.895  19.900  0.00  0.00    +0.000 A 
ATOM     10 CL   UNL     1       0.847   3.657  20.748  0.00  0.00    +0.000 Cl
ATOM     11  C   UNL     1       2.863   2.939  19.029  0.00  0.00    +0.000 A 
ATOM     12 CL   UNL     1       2.058   1.448  18.688  0.00  0.00    +0.000 Cl
ATOM     13  C   UNL     1       4.092   3.171  18.401  0.00  0.00    +0.000 A 
ENDBRANCH   3   6
BRANCH   2  14
ATOM     14  C   UNL     1       5.721   5.917  15.809  0.00  0.00    +0.000 C 
ATOM     15  O   UNL     1       5.115   6.937  15.500  0.00  0.00    +0.000 OA
ATOM     16  N   UNL     1       5.896   4.877  14.932  0.00  0.00    +0.000 N 
ATOM     17  H   UNL     1       6.203   3.976  15.259  0.00  0.00    +0.000 HD
BRANCH  16  18
ATOM     18  C   UNL     1       5.310   4.907  13.609  0.00  0.00    +0.000 C 
BRANCH  18  19
ATOM     19  C   UNL     1       5.903   3.837  12.730  0.00  0.00    +0.000 A 
ATOM     20  C   UNL     1       7.252   3.883  12.354  0.00  0.00    +0.000 A 
ATOM     21  C   UNL     1       7.794   2.891  11.532  0.00  0.00    +0.000 A 
ATOM     22  C   UNL     1       6.992   1.849  11.070  0.00  0.00    +0.000 A 
ATOM     23  C   UNL     1       5.647   1.795  11.433  0.00  0.00    +0.000 A 
ATOM     24  C   UNL     1       5.104   2.785  12.255  0.00  0.00    +0.000 A 
ENDBRANCH  18  19
ENDBRANCH  16  18
ENDBRANCH   2  14
BRANCH   1  26
ATOM     25  C   UNL     1       8.227   8.831  18.002  0.00  0.00    +0.000 C 
ATOM     26  C   UNL     1       7.768   7.843  17.224  0.00  0.00    +0.000 C 
ENDBRANCH   1  26
TORSDOF 5
ENDMDL
MODEL 6
REMARK VINA RESULT:      -7.6      3.182      4.881
REMARK  Name = 
REMARK  5 active torsions:
REMARK  status: ('A' for Active; 'I' for Inactive)
REMARK    1  A    between atoms: C_2  and  C_3
REMARK    2  A    between atoms: C_4  and  C_5
REMARK    3  A    between atoms: N_7  and  C_8
REMARK    4  A    between atoms: C_8  and  C_9
REMARK    5  A    between atoms: C_15  and  C_16
REMARK                            x       y       z     vdW  Elec       q    Type
REMARK                         _______ _______ _______ _____ _____    ______ ____
ROOT
ATOM      1  C   UNL     1       3.514   2.866  19.027  0.00  0.00    +0.000 C 
ATOM      2  C   UNL     1       3.768   4.060  18.460  0.00  0.00    +0.000 C 
ATOM      3  C   UNL     1       2.486   4.745  18.134  0.00  0.00    +0.000 C 
ATOM      4  O   UNL     1       1.432   3.835  18.524  0.00  0.00    +0.000 OA
ATOM      5  C   UNL     1       2.036   2.663  19.085  0.00  0.00    +0.000 C 
ENDROOT
BRANCH   3   6
ATOM      6  C   UNL     1       2.203   6.046  18.862  0.00  0.00    +0.000 A 
ATOM      7  C   UNL     1       1.833   6.068  20.216  0.00  0.00    +0.000 A 
ATOM      8  C   UNL     1       1.506   7.271  20.847  0.00  0.00    +0.000 A 
ATOM      9  C   UNL     1       1.549   8.473  20.137  0.00  0.00    +0.000 A 
ATOM     10 CL   UNL     1       1.087   9.915  20.968  0.00  0.00    +0.000 Cl
ATOM     11  C   UNL     1       1.942   8.472  18.796  0.00  0.00    +0.000 A 
ATOM     12 CL   UNL     1       2.044   9.919  17.858  0.00  0.00    +0.000 Cl
ATOM     13  C   UNL     1       2.267   7.265  18.164  0.00  0.00    +0.000 A 
ENDBRANCH   3   6
BRANCH   2  14
ATOM     14  C   UNL     1       5.097   4.570  18.035  0.00  0.00    +0.000 C 
ATOM     15  O   UNL     1       5.760   5.306  18.758  0.00  0.00    +0.000 OA
ATOM     16  N   UNL     1       5.553   4.138  16.816  0.00  0.00    +0.000 N 
ATOM     17  H   UNL     1       4.924   3.718  16.152  0.00  0.00    +0.000 HD
BRANCH  16  18
ATOM     18  C   UNL     1       6.824   4.589  16.290  0.00  0.00    +0.000 C 
BRANCH  18  19
ATOM     19  C   UNL     1       6.853   4.489  14.787  0.00  0.00    +0.000 A 
ATOM     20  C   UNL     1       5.994   3.613  14.109  0.00  0.00    +0.000 A 
ATOM     21  C   UNL     1       6.031   3.520  12.715  0.00  0.00    +0.000 A 
ATOM     22  C   UNL     1       6.933   4.292  11.985  0.00  0.00    +0.000 A 
ATOM     23  C   UNL     1       7.796   5.163  12.648  0.00  0.00    +0.000 A 
ATOM     24  C   UNL     1       7.760   5.258  14.041  0.00  0.00    +0.000 A 
ENDBRANCH  18  19
ENDBRANCH  16  18
ENDBRANCH   2  14
BRANCH   1  26
ATOM     25  C   UNL     1       4.819   1.700  20.768  0.00  0.00    +0.000 C 
ATOM     26  C   UNL     1       4.436   1.863  19.496  0.00  0.00    +0.000 C 
ENDBRANCH   1  26
TORSDOF 5
ENDMDL
MODEL 7
REMARK VINA RESULT:      -7.6      3.232      4.864
REMARK  Name = 
REMARK  5 active torsions:
REMARK  status: ('A' for Active; 'I' for Inactive)
REMARK    1  A    between atoms: C_2  and  C_3
REMARK    2  A    between atoms: C_4  and  C_5
REMARK    3  A    between atoms: N_7  and  C_8
REMARK    4  A    between atoms: C_8  and  C_9
REMARK    5  A    between atoms: C_15  and  C_16
REMARK                            x       y       z     vdW  Elec       q    Type
REMARK                         _______ _______ _______ _____ _____    ______ ____
ROOT
ATOM      1  C   UNL     1       3.278   2.995  18.675  0.00  0.00    +0.000 C 
ATOM      2  C   UNL     1       3.598   4.215  18.206  0.00  0.00    +0.000 C 
ATOM      3  C   UNL     1       2.356   4.983  17.910  0.00  0.00    +0.000 C 
ATOM      4  O   UNL     1       1.254   4.097  18.208  0.00  0.00    +0.000 OA
ATOM      5  C   UNL     1       1.791   2.858  18.689  0.00  0.00    +0.000 C 
ENDROOT
BRANCH   3   6
ATOM      6  C   UNL     1       2.117   6.237  18.730  0.00  0.00    +0.000 A 
ATOM      7  C   UNL     1       1.822   6.176  20.101  0.00  0.00    +0.000 A 
ATOM      8  C   UNL     1       1.533   7.338  20.821  0.00  0.00    +0.000 A 
ATOM      9  C   UNL     1       1.538   8.580  20.184  0.00  0.00    +0.000 A 
ATOM     10 CL   UNL     1       1.125   9.969  21.126  0.00  0.00    +0.000 Cl
ATOM     11  C   UNL     1       1.856   8.662  18.826  0.00  0.00    +0.000 A 
ATOM     12 CL   UNL     1       1.908  10.164  17.974  0.00  0.00    +0.000 Cl
ATOM     13  C   UNL     1       2.143   7.496  18.104  0.00  0.00    +0.000 A 
ENDBRANCH   3   6
BRANCH   2  14
ATOM     14  C   UNL     1       4.958   4.694  17.847  0.00  0.00    +0.000 C 
ATOM     15  O   UNL     1       5.643   5.329  18.641  0.00  0.00    +0.000 OA
ATOM     16  N   UNL     1       5.415   4.349  16.601  0.00  0.00    +0.000 N 
ATOM     17  H   UNL     1       4.779   4.021  15.894  0.00  0.00    +0.000 HD
BRANCH  16  18
ATOM     18  C   UNL     1       6.716   4.779  16.135  0.00  0.00    +0.000 C 
BRANCH  18  19
ATOM     19  C   UNL     1       6.841   4.605  14.643  0.00  0.00    +0.000 A 
ATOM     20  C   UNL     1       7.742   5.382  13.903  0.00  0.00    +0.000 A 
ATOM     21  C   UNL     1       7.847   5.221  12.518  0.00  0.00    +0.000 A 
ATOM     22  C   UNL     1       7.046   4.290  11.859  0.00  0.00    +0.000 A 
ATOM     23  C   UNL     1       6.142   3.515  12.585  0.00  0.00    +0.000 A 
ATOM     24  C   UNL     1       6.036   3.674  13.968  0.00  0.00    +0.000 A 
ENDBRANCH  18  19
ENDBRANCH  16  18
ENDBRANCH   2  14
BRANCH   1  26
ATOM     25  C   UNL     1       4.779   1.840  20.258  0.00  0.00    +0.000 C 
ATOM     26  C   UNL     1       4.143   1.917  19.083  0.00  0.00    +0.000 C 
ENDBRANCH   1  26
TORSDOF 5
ENDMDL
MODEL 8
REMARK VINA RESULT:      -7.6      4.299      7.690
REMARK  Name = 
REMARK  5 active torsions:
REMARK  status: ('A' for Active; 'I' for Inactive)
REMARK    1  A    between atoms: C_2  and  C_3
REMARK    2  A    between atoms: C_4  and  C_5
REMARK    3  A    between atoms: N_7  and  C_8
REMARK    4  A    between atoms: C_8  and  C_9
REMARK    5  A    between atoms: C_15  and  C_16
REMARK                            x       y       z     vdW  Elec       q    Type
REMARK                         _______ _______ _______ _____ _____    ______ ____
ROOT
ATOM      1  C   UNL     1       3.112   3.317  19.130  0.00  0.00    +0.000 C 
ATOM      2  C   UNL     1       3.486   4.489  18.584  0.00  0.00    +0.000 C 
ATOM      3  C   UNL     1       4.969   4.619  18.640  0.00  0.00    +0.000 C 
ATOM      4  O   UNL     1       5.453   3.431  19.307  0.00  0.00    +0.000 OA
ATOM      5  C   UNL     1       4.327   2.601  19.619  0.00  0.00    +0.000 C 
ENDROOT
BRANCH   3   6
ATOM      6  C   UNL     1       5.700   4.679  17.312  0.00  0.00    +0.000 A 
ATOM      7  C   UNL     1       6.985   5.233  17.202  0.00  0.00    +0.000 A 
ATOM      8  C   UNL     1       7.610   5.345  15.957  0.00  0.00    +0.000 A 
ATOM      9  C   UNL     1       6.963   4.900  14.802  0.00  0.00    +0.000 A 
ATOM     10 CL   UNL     1       7.776   5.113  13.293  0.00  0.00    +0.000 Cl
ATOM     11  C   UNL     1       5.695   4.320  14.898  0.00  0.00    +0.000 A 
ATOM     12 CL   UNL     1       4.842   3.724  13.519  0.00  0.00    +0.000 Cl
ATOM     13  C   UNL     1       5.069   4.212  16.145  0.00  0.00    +0.000 A 
ENDBRANCH   3   6
BRANCH   2  14
ATOM     14  C   UNL     1       2.586   5.589  18.153  0.00  0.00    +0.000 C 
ATOM     15  O   UNL     1       1.515   5.361  17.601  0.00  0.00    +0.000 OA
ATOM     16  N   UNL     1       3.000   6.863  18.446  0.00  0.00    +0.000 N 
ATOM     17  H   UNL     1       3.957   7.047  18.699  0.00  0.00    +0.000 HD
BRANCH  16  18
ATOM     18  C   UNL     1       2.215   8.015  18.054  0.00  0.00    +0.000 C 
BRANCH  18  19
ATOM     19  C   UNL     1       1.533   8.636  19.245  0.00  0.00    +0.000 A 
ATOM     20  C   UNL     1       0.811   9.831  19.117  0.00  0.00    +0.000 A 
ATOM     21  C   UNL     1       0.188  10.406  20.228  0.00  0.00    +0.000 A 
ATOM     22  C   UNL     1       0.287   9.799  21.478  0.00  0.00    +0.000 A 
ATOM     23  C   UNL     1       1.007   8.613  21.620  0.00  0.00    +0.000 A 
ATOM     24  C   UNL     1       1.631   8.037  20.510  0.00  0.00    +0.000 A 
ENDBRANCH  18  19
ENDBRANCH  16  18
ENDBRANCH   2  14
BRANCH   1  26
ATOM     25  C   UNL     1       0.984   3.004  20.341  0.00  0.00    +0.000 C 
ATOM     26  C   UNL     1       1.790   2.769  19.299  0.00  0.00    +0.000 C 
ENDBRANCH   1  26
TORSDOF 5
ENDMDL
MODEL 9
REMARK VINA RESULT:      -7.5      3.442      6.090
REMARK  Name = 
REMARK  5 active torsions:
REMARK  status: ('A' for Active; 'I' for Inactive)
REMARK    1  A    between atoms: C_2  and  C_3
REMARK    2  A    between atoms: C_4  and  C_5
REMARK    3  A    between atoms: N_7  and  C_8
REMARK    4  A    between atoms: C_8  and  C_9
REMARK    5  A    between atoms: C_15  and  C_16
REMARK                            x       y       z     vdW  Elec       q    Type
REMARK                         _______ _______ _______ _____ _____    ______ ____
ROOT
ATOM      1  C   UNL     1       6.631   6.168  17.241  0.00  0.00    +0.000 C 
ATOM      2  C   UNL     1       5.310   6.016  17.032  0.00  0.00    +0.000 C 
ATOM      3  C   UNL     1       4.982   4.567  16.912  0.00  0.00    +0.000 C 
ATOM      4  O   UNL     1       6.236   3.860  17.032  0.00  0.00    +0.000 OA
ATOM      5  C   UNL     1       7.277   4.822  17.242  0.00  0.00    +0.000 C 
ENDROOT
BRANCH   3   6
ATOM      6  C   UNL     1       4.071   3.984  17.976  0.00  0.00    +0.000 A 
ATOM      7  C   UNL     1       2.696   4.267  18.004  0.00  0.00    +0.000 A 
ATOM      8  C   UNL     1       1.888   3.778  19.035  0.00  0.00    +0.000 A 
ATOM      9  C   UNL     1       2.440   2.996  20.051  0.00  0.00    +0.000 A 
ATOM     10 CL   UNL     1       1.391   2.466  21.318  0.00  0.00    +0.000 Cl
ATOM     11  C   UNL     1       3.802   2.682  20.023  0.00  0.00    +0.000 A 
ATOM     12 CL   UNL     1       4.552   1.700  21.229  0.00  0.00    +0.000 Cl
ATOM     13  C   UNL     1       4.611   3.174  18.992  0.00  0.00    +0.000 A 
ENDBRANCH   3   6
BRANCH   2  14
ATOM     14  C   UNL     1       4.328   7.099  16.766  0.00  0.00    +0.000 C 
ATOM     15  O   UNL     1       4.209   7.596  15.651  0.00  0.00    +0.000 OA
ATOM     16  N   UNL     1       3.539   7.478  17.822  0.00  0.00    +0.000 N 
ATOM     17  H   UNL     1       3.785   7.222  18.764  0.00  0.00    +0.000 HD
BRANCH  16  18
ATOM     18  C   UNL     1       2.564   8.539  17.686  0.00  0.00    +0.000 C 
BRANCH  18  19
ATOM     19  C   UNL     1       1.744   8.685  18.941  0.00  0.00    +0.000 A 
ATOM     20  C   UNL     1       1.922   7.808  20.020  0.00  0.00    +0.000 A 
ATOM     21  C   UNL     1       1.152   7.944  21.179  0.00  0.00    +0.000 A 
ATOM     22  C   UNL     1       0.192   8.949  21.267  0.00  0.00    +0.000 A 
ATOM     23  C   UNL     1       0.002   9.824  20.199  0.00  0.00    +0.000 A 
ATOM     24  C   UNL     1       0.770   9.690  19.040  0.00  0.00    +0.000 A 
ENDBRANCH  18  19
ENDBRANCH  16  18
ENDBRANCH   2  14
BRANCH   1  26
ATOM     25  C   UNL     1       8.233   7.627  18.423  0.00  0.00    +0.000 C 
ATOM     26  C   UNL     1       7.396   7.377  17.410  0.00  0.00    +0.000 C 
ENDBRANCH   1  26
TORSDOF 5
ENDMDL
