MODEL 1
REMARK VINA RESULT:      -7.2      0.000      0.000
REMARK  Name = 
REMARK  3 active torsions:
REMARK  status: ('A' for Active; 'I' for Inactive)
REMARK    1  A    between atoms: C_2  and  C_16
REMARK    2  A    between atoms: N_3  and  C_4
REMARK    3  A    between atoms: C_7  and  C_8
REMARK                            x       y       z     vdW  Elec       q    Type
REMARK                         _______ _______ _______ _____ _____    ______ ____
ROOT
ATOM      1  C   UNL     1       2.129   8.380  18.654  0.00  0.00    +0.000 A 
ATOM      2  C   UNL     1       1.410   9.195  17.782  0.00  0.00    +0.000 A 
ATOM      3  C   UNL     1       0.351   9.972  18.248  0.00  0.00    +0.000 A 
ATOM      4  C   UNL     1      -0.011   9.961  19.602  0.00  0.00    +0.000 A 
ATOM      5  C   UNL     1       0.685   9.110  20.470  0.00  0.00    +0.000 A 
ATOM      6  C   UNL     1       1.740   8.320  19.998  0.00  0.00    +0.000 A 
ENDROOT
BRANCH   4   7
ATOM      7  C   UNL     1      -1.149  10.827  20.101  0.00  0.00    +0.000 C 
ATOM      8  C   UNL     1      -1.762  11.650  18.939  0.00  0.00    +0.000 C 
ATOM      9  N   UNL     1      -2.797  12.605  19.389  0.00  0.00    +0.000 NA
ATOM     10  C   UNL     1      -2.213  13.445  20.451  0.00  0.00    +0.000 C 
ATOM     11  C   UNL     1      -1.644  12.604  21.601  0.00  0.00    +0.000 C 
ATOM     12  O   UNL     1      -0.644  11.694  21.137  0.00  0.00    +0.000 OA
ATOM     13  H   UNL     1      -3.574  12.077  19.786  0.00  0.00    +0.000 HD
ENDBRANCH   4   7
BRANCH   1  16
ATOM     14  O   UNL     1       2.234   5.514  17.969  0.00  0.00    +0.000 OA
ATOM     15  C   UNL     1       3.211   6.251  17.971  0.00  0.00    +0.000 C 
ATOM     16  N   UNL     1       3.237   7.608  18.244  0.00  0.00    +0.000 N 
ATOM     17  H   UNL     1       4.067   8.130  17.999  0.00  0.00    +0.000 HD
BRANCH  15  18
ATOM     18  C   UNL     1       4.508   5.652  17.574  0.00  0.00    +0.000 A 
ATOM     19  C   UNL     1       5.586   5.787  18.450  0.00  0.00    +0.000 A 
ATOM     20  C   UNL     1       6.790   5.240  18.063  0.00  0.00    +0.000 A 
ATOM     21 CL   UNL     1       8.167   5.338  19.078  0.00  0.00    +0.000 Cl
ATOM     22  N   UNL     1       6.992   4.592  16.901  0.00  0.00    +0.000 NA
ATOM     23  C   UNL     1       5.933   4.509  16.076  0.00  0.00    +0.000 A 
ATOM     24 CL   UNL     1       6.242   3.695  14.599  0.00  0.00    +0.000 Cl
ATOM     25  C   UNL     1       4.678   5.013  16.349  0.00  0.00    +0.000 A 
ENDBRANCH  15  18
ENDBRANCH   1  16
TORSDOF 3
ENDMDL
MODEL 2
REMARK VINA RESULT:      -7.2      4.484      9.357
REMARK  Name = 
REMARK  3 active torsions:
REMARK  status: ('A' for Active; 'I' for Inactive)
REMARK    1  A    between atoms: C_2  and  C_16
REMARK    2  A    between atoms: N_3  and  C_4
REMARK    3  A    between atoms: C_7  and  C_8
REMARK                            x       y       z     vdW  Elec       q    Type
REMARK                         _______ _______ _______ _____ _____    ______ ____
ROOT
ATOM      1  C   UNL     1       1.571   8.614  19.553  0.00  0.00    +0.000 A 
ATOM      2  C   UNL     1       1.779   7.421  20.242  0.00  0.00    +0.000 A 
ATOM      3  C   UNL     1       2.589   6.423  19.703  0.00  0.00    +0.000 A 
ATOM      4  C   UNL     1       3.220   6.596  18.464  0.00  0.00    +0.000 A 
ATOM      5  C   UNL     1       2.977   7.779  17.753  0.00  0.00    +0.000 A 
ATOM      6  C   UNL     1       2.153   8.775  18.289  0.00  0.00    +0.000 A 
ENDROOT
BRANCH   4   7
ATOM      7  C   UNL     1       4.117   5.513  17.900  0.00  0.00    +0.000 C 
ATOM      8  C   UNL     1       5.156   5.057  18.956  0.00  0.00    +0.000 C 
ATOM      9  N   UNL     1       6.137   4.088  18.422  0.00  0.00    +0.000 NA
ATOM     10  C   UNL     1       6.751   4.677  17.218  0.00  0.00    +0.000 C 
ATOM     11  C   UNL     1       5.700   5.088  16.179  0.00  0.00    +0.000 C 
ATOM     12  O   UNL     1       4.770   6.027  16.722  0.00  0.00    +0.000 OA
ATOM     13  H   UNL     1       5.638   3.241  18.149  0.00  0.00    +0.000 HD
ENDBRANCH   4   7
BRANCH   1  16
ATOM     14  O   UNL     1       1.515   9.695  22.296  0.00  0.00    +0.000 OA
ATOM     15  C   UNL     1       0.805  10.103  21.387  0.00  0.00    +0.000 C 
ATOM     16  N   UNL     1       0.797   9.675  20.071  0.00  0.00    +0.000 N 
ATOM     17  H   UNL     1       0.318  10.242  19.385  0.00  0.00    +0.000 HD
BRANCH  15  18
ATOM     18  C   UNL     1      -0.111  11.227  21.701  0.00  0.00    +0.000 A 
ATOM     19  C   UNL     1       0.140  12.461  21.101  0.00  0.00    +0.000 A 
ATOM     20  C   UNL     1      -0.707  13.502  21.412  0.00  0.00    +0.000 A 
ATOM     21 CL   UNL     1      -0.491  15.051  20.713  0.00  0.00    +0.000 Cl
ATOM     22  N   UNL     1      -1.752  13.406  22.254  0.00  0.00    +0.000 NA
ATOM     23  C   UNL     1      -1.941  12.205  22.830  0.00  0.00    +0.000 A 
ATOM     24 CL   UNL     1      -3.270  12.133  23.912  0.00  0.00    +0.000 Cl
ATOM     25  C   UNL     1      -1.165  11.088  22.599  0.00  0.00    +0.000 A 
ENDBRANCH  15  18
ENDBRANCH   1  16
TORSDOF 3
ENDMDL
MODEL 3
REMARK VINA RESULT:      -7.2      4.502      9.344
REMARK  Name = 
REMARK  3 active torsions:
REMARK  status: ('A' for Active; 'I' for Inactive)
REMARK    1  A    between atoms: C_2  and  C_16
REMARK    2  A    between atoms: N_3  and  C_4
REMARK    3  A    between atoms: C_7  and  C_8
REMARK                            x       y       z     vdW  Elec       q    Type
REMARK                         _______ _______ _______ _____ _____    ______ ____
ROOT
ATOM      1  C   UNL     1       1.547   8.642  19.573  0.00  0.00    +0.000 A 
ATOM      2  C   UNL     1       1.750   7.479  20.313  0.00  0.00    +0.000 A 
ATOM      3  C   UNL     1       2.538   6.447  19.808  0.00  0.00    +0.000 A 
ATOM      4  C   UNL     1       3.150   6.553  18.552  0.00  0.00    +0.000 A 
ATOM      5  C   UNL     1       2.911   7.705  17.791  0.00  0.00    +0.000 A 
ATOM      6  C   UNL     1       2.109   8.737  18.294  0.00  0.00    +0.000 A 
ENDROOT
BRANCH   4   7
ATOM      7  C   UNL     1       4.023   5.434  18.024  0.00  0.00    +0.000 C 
ATOM      8  C   UNL     1       5.151   5.097  19.033  0.00  0.00    +0.000 C 
ATOM      9  N   UNL     1       6.108   4.093  18.517  0.00  0.00    +0.000 NA
ATOM     10  C   UNL     1       6.613   4.571  17.217  0.00  0.00    +0.000 C 
ATOM     11  C   UNL     1       5.476   4.866  16.230  0.00  0.00    +0.000 C 
ATOM     12  O   UNL     1       4.571   5.840  16.754  0.00  0.00    +0.000 OA
ATOM     13  H   UNL     1       5.608   3.217  18.366  0.00  0.00    +0.000 HD
ENDBRANCH   4   7
BRANCH   1  16
ATOM     14  O   UNL     1       1.459   9.772  22.296  0.00  0.00    +0.000 OA
ATOM     15  C   UNL     1       0.785  10.186  21.363  0.00  0.00    +0.000 C 
ATOM     16  N   UNL     1       0.796   9.736  20.055  0.00  0.00    +0.000 N 
ATOM     17  H   UNL     1       0.352  10.307  19.347  0.00  0.00    +0.000 HD
BRANCH  15  18
ATOM     18  C   UNL     1      -0.101  11.345  21.635  0.00  0.00    +0.000 A 
ATOM     19  C   UNL     1      -1.156  11.166  22.529  0.00  0.00    +0.000 A 
ATOM     20  C   UNL     1      -1.981  12.245  22.761  0.00  0.00    +0.000 A 
ATOM     21 CL   UNL     1      -3.295  12.128  23.855  0.00  0.00    +0.000 Cl
ATOM     22  N   UNL     1      -1.837  13.451  22.182  0.00  0.00    +0.000 NA
ATOM     23  C   UNL     1      -0.822  13.571  21.307  0.00  0.00    +0.000 A 
ATOM     24 CL   UNL     1      -0.688  15.117  20.577  0.00  0.00    +0.000 Cl
ATOM     25  C   UNL     1       0.072  12.568  20.992  0.00  0.00    +0.000 A 
ENDBRANCH  15  18
ENDBRANCH   1  16
TORSDOF 3
ENDMDL
MODEL 4
REMARK VINA RESULT:      -7.1      0.198      1.022
REMARK  Name = 
REMARK  3 active torsions:
REMARK  status: ('A' for Active; 'I' for Inactive)
REMARK    1  A    between atoms: C_2  and  C_16
REMARK    2  A    between atoms: N_3  and  C_4
REMARK    3  A    between atoms: C_7  and  C_8
REMARK                            x       y       z     vdW  Elec       q    Type
REMARK                         _______ _______ _______ _____ _____    ______ ____
ROOT
ATOM      1  C   UNL     1       2.206   8.372  18.691  0.00  0.00    +0.000 A 
ATOM      2  C   UNL     1       1.743   8.350  20.005  0.00  0.00    +0.000 A 
ATOM      3  C   UNL     1       0.637   9.112  20.379  0.00  0.00    +0.000 A 
ATOM      4  C   UNL     1      -0.039   9.909  19.446  0.00  0.00    +0.000 A 
ATOM      5  C   UNL     1       0.453   9.963  18.135  0.00  0.00    +0.000 A 
ATOM      6  C   UNL     1       1.571   9.207  17.764  0.00  0.00    +0.000 A 
ENDROOT
BRANCH   4   7
ATOM      7  C   UNL     1      -1.254  10.714  19.859  0.00  0.00    +0.000 C 
ATOM      8  C   UNL     1      -1.671  11.694  18.733  0.00  0.00    +0.000 C 
ATOM      9  N   UNL     1      -2.778  12.592  19.127  0.00  0.00    +0.000 NA
ATOM     10  C   UNL     1      -2.390  13.273  20.376  0.00  0.00    +0.000 C 
ATOM     11  C   UNL     1      -2.013  12.278  21.481  0.00  0.00    +0.000 C 
ATOM     12  O   UNL     1      -0.940  11.427  21.073  0.00  0.00    +0.000 OA
ATOM     13  H   UNL     1      -3.604  12.024  19.313  0.00  0.00    +0.000 HD
ENDBRANCH   4   7
BRANCH   1  16
ATOM     14  O   UNL     1       2.259   5.505  18.002  0.00  0.00    +0.000 OA
ATOM     15  C   UNL     1       3.243   6.231  17.976  0.00  0.00    +0.000 C 
ATOM     16  N   UNL     1       3.293   7.587  18.248  0.00  0.00    +0.000 N 
ATOM     17  H   UNL     1       4.121   8.100  17.979  0.00  0.00    +0.000 HD
BRANCH  15  18
ATOM     18  C   UNL     1       4.521   5.617  17.540  0.00  0.00    +0.000 A 
ATOM     19  C   UNL     1       5.618   5.712  18.398  0.00  0.00    +0.000 A 
ATOM     20  C   UNL     1       6.803   5.152  17.975  0.00  0.00    +0.000 A 
ATOM     21 CL   UNL     1       8.201   5.203  18.965  0.00  0.00    +0.000 Cl
ATOM     22  N   UNL     1       6.972   4.527  16.796  0.00  0.00    +0.000 NA
ATOM     23  C   UNL     1       5.896   4.482  15.990  0.00  0.00    +0.000 A 
ATOM     24 CL   UNL     1       6.161   3.696  14.489  0.00  0.00    +0.000 Cl
ATOM     25  C   UNL     1       4.656   5.003  16.299  0.00  0.00    +0.000 A 
ENDBRANCH  15  18
ENDBRANCH   1  16
TORSDOF 3
ENDMDL
MODEL 5
REMARK VINA RESULT:      -7.1      4.482      9.353
REMARK  Name = 
REMARK  3 active torsions:
REMARK  status: ('A' for Active; 'I' for Inactive)
REMARK    1  A    between atoms: C_2  and  C_16
REMARK    2  A    between atoms: N_3  and  C_4
REMARK    3  A    between atoms: C_7  and  C_8
REMARK                            x       y       z     vdW  Elec       q    Type
REMARK                         _______ _______ _______ _____ _____    ______ ____
ROOT
ATOM      1  C   UNL     1       1.523   8.747  19.486  0.00  0.00    +0.000 A 
ATOM      2  C   UNL     1       2.128   8.785  18.231  0.00  0.00    +0.000 A 
ATOM      3  C   UNL     1       2.903   7.716  17.785  0.00  0.00    +0.000 A 
ATOM      4  C   UNL     1       3.087   6.577  18.579  0.00  0.00    +0.000 A 
ATOM      5  C   UNL     1       2.514   6.557  19.858  0.00  0.00    +0.000 A 
ATOM      6  C   UNL     1       1.746   7.637  20.310  0.00  0.00    +0.000 A 
ENDROOT
BRANCH   4   7
ATOM      7  C   UNL     1       3.913   5.412  18.074  0.00  0.00    +0.000 C 
ATOM      8  C   UNL     1       5.037   5.059  19.081  0.00  0.00    +0.000 C 
ATOM      9  N   UNL     1       5.951   4.007  18.584  0.00  0.00    +0.000 NA
ATOM     10  C   UNL     1       6.460   4.431  17.267  0.00  0.00    +0.000 C 
ATOM     11  C   UNL     1       5.325   4.742  16.283  0.00  0.00    +0.000 C 
ATOM     12  O   UNL     1       4.462   5.763  16.788  0.00  0.00    +0.000 OA
ATOM     13  H   UNL     1       5.416   3.147  18.461  0.00  0.00    +0.000 HD
ENDBRANCH   4   7
BRANCH   1  16
ATOM     14  O   UNL     1       1.363   9.873  22.206  0.00  0.00    +0.000 OA
ATOM     15  C   UNL     1       0.654  10.233  21.276  0.00  0.00    +0.000 C 
ATOM     16  N   UNL     1       0.693   9.781  19.969  0.00  0.00    +0.000 N 
ATOM     17  H   UNL     1       0.203  10.315  19.263  0.00  0.00    +0.000 HD
BRANCH  15  18
ATOM     18  C   UNL     1      -0.316  11.321  21.550  0.00  0.00    +0.000 A 
ATOM     19  C   UNL     1      -0.201  12.500  20.815  0.00  0.00    +0.000 A 
ATOM     20  C   UNL     1      -1.098  13.510  21.089  0.00  0.00    +0.000 A 
ATOM     21 CL   UNL     1      -1.047  14.989  20.227  0.00  0.00    +0.000 Cl
ATOM     22  N   UNL     1      -2.068  13.432  22.018  0.00  0.00    +0.000 NA
ATOM     23  C   UNL     1      -2.127  12.287  22.721  0.00  0.00    +0.000 A 
ATOM     24 CL   UNL     1      -3.364  12.241  23.907  0.00  0.00    +0.000 Cl
ATOM     25  C   UNL     1      -1.289  11.206  22.539  0.00  0.00    +0.000 A 
ENDBRANCH  15  18
ENDBRANCH   1  16
TORSDOF 3
ENDMDL
MODEL 6
REMARK VINA RESULT:      -7.1      2.283      2.654
REMARK  Name = 
REMARK  3 active torsions:
REMARK  status: ('A' for Active; 'I' for Inactive)
REMARK    1  A    between atoms: C_2  and  C_16
REMARK    2  A    between atoms: N_3  and  C_4
REMARK    3  A    between atoms: C_7  and  C_8
REMARK                            x       y       z     vdW  Elec       q    Type
REMARK                         _______ _______ _______ _____ _____    ______ ____
ROOT
ATOM      1  C   UNL     1       1.513   8.392  20.349  0.00  0.00    +0.000 A 
ATOM      2  C   UNL     1       1.059   9.358  19.454  0.00  0.00    +0.000 A 
ATOM      3  C   UNL     1       0.251  10.406  19.891  0.00  0.00    +0.000 A 
ATOM      4  C   UNL     1      -0.117  10.520  21.238  0.00  0.00    +0.000 A 
ATOM      5  C   UNL     1       0.305   9.525  22.130  0.00  0.00    +0.000 A 
ATOM      6  C   UNL     1       1.106   8.465  21.687  0.00  0.00    +0.000 A 
ENDROOT
BRANCH   4   7
ATOM      7  C   UNL     1      -0.977  11.676  21.706  0.00  0.00    +0.000 C 
ATOM      8  C   UNL     1      -1.666  11.337  23.052  0.00  0.00    +0.000 C 
ATOM      9  N   UNL     1      -2.614  12.382  23.496  0.00  0.00    +0.000 NA
ATOM     10  C   UNL     1      -3.568  12.629  22.399  0.00  0.00    +0.000 C 
ATOM     11  C   UNL     1      -2.858  12.993  21.090  0.00  0.00    +0.000 C 
ATOM     12  O   UNL     1      -1.952  11.964  20.684  0.00  0.00    +0.000 OA
ATOM     13  H   UNL     1      -2.091  13.240  23.668  0.00  0.00    +0.000 HD
ENDBRANCH   4   7
BRANCH   1  16
ATOM     14  O   UNL     1       1.094   5.485  20.610  0.00  0.00    +0.000 OA
ATOM     15  C   UNL     1       2.112   5.989  20.157  0.00  0.00    +0.000 C 
ATOM     16  N   UNL     1       2.369   7.336  19.969  0.00  0.00    +0.000 N 
ATOM     17  H   UNL     1       3.156   7.598  19.389  0.00  0.00    +0.000 HD
BRANCH  15  18
ATOM     18  C   UNL     1       3.173   5.063  19.690  0.00  0.00    +0.000 A 
ATOM     19  C   UNL     1       4.455   5.579  19.503  0.00  0.00    +0.000 A 
ATOM     20  C   UNL     1       5.428   4.712  19.055  0.00  0.00    +0.000 A 
ATOM     21 CL   UNL     1       7.038   5.247  18.811  0.00  0.00    +0.000 Cl
ATOM     22  N   UNL     1       5.221   3.411  18.783  0.00  0.00    +0.000 NA
ATOM     23  C   UNL     1       3.964   2.962  18.953  0.00  0.00    +0.000 A 
ATOM     24 CL   UNL     1       3.741   1.305  18.575  0.00  0.00    +0.000 Cl
ATOM     25  C   UNL     1       2.906   3.729  19.398  0.00  0.00    +0.000 A 
ENDBRANCH  15  18
ENDBRANCH   1  16
TORSDOF 3
ENDMDL
MODEL 7
REMARK VINA RESULT:      -7.1      0.100      1.808
REMARK  Name = 
REMARK  3 active torsions:
REMARK  status: ('A' for Active; 'I' for Inactive)
REMARK    1  A    between atoms: C_2  and  C_16
REMARK    2  A    between atoms: N_3  and  C_4
REMARK    3  A    between atoms: C_7  and  C_8
REMARK                            x       y       z     vdW  Elec       q    Type
REMARK                         _______ _______ _______ _____ _____    ______ ____
ROOT
ATOM      1  C   UNL     1       2.138   8.402  18.636  0.00  0.00    +0.000 A 
ATOM      2  C   UNL     1       1.411   9.185  17.742  0.00  0.00    +0.000 A 
ATOM      3  C   UNL     1       0.330   9.945  18.182  0.00  0.00    +0.000 A 
ATOM      4  C   UNL     1      -0.049   9.948  19.531  0.00  0.00    +0.000 A 
ATOM      5  C   UNL     1       0.655   9.127  20.422  0.00  0.00    +0.000 A 
ATOM      6  C   UNL     1       1.734   8.354  19.976  0.00  0.00    +0.000 A 
ENDROOT
BRANCH   4   7
ATOM      7  C   UNL     1      -1.212  10.796  20.002  0.00  0.00    +0.000 C 
ATOM      8  C   UNL     1      -1.723  11.709  18.858  0.00  0.00    +0.000 C 
ATOM      9  N   UNL     1      -2.780  12.648  19.295  0.00  0.00    +0.000 NA
ATOM     10  C   UNL     1      -2.270  13.400  20.456  0.00  0.00    +0.000 C 
ATOM     11  C   UNL     1      -1.802  12.471  21.583  0.00  0.00    +0.000 C 
ATOM     12  O   UNL     1      -0.780  11.579  21.133  0.00  0.00    +0.000 OA
ATOM     13  H   UNL     1      -3.591  12.106  19.592  0.00  0.00    +0.000 HD
ENDBRANCH   4   7
BRANCH   1  16
ATOM     14  O   UNL     1       2.309   5.536  17.963  0.00  0.00    +0.000 OA
ATOM     15  C   UNL     1       3.272   6.290  17.983  0.00  0.00    +0.000 C 
ATOM     16  N   UNL     1       3.268   7.648  18.252  0.00  0.00    +0.000 N 
ATOM     17  H   UNL     1       4.094   8.184  18.023  0.00  0.00    +0.000 HD
BRANCH  15  18
ATOM     18  C   UNL     1       4.588   5.714  17.616  0.00  0.00    +0.000 A 
ATOM     19  C   UNL     1       4.700   5.071  16.383  0.00  0.00    +0.000 A 
ATOM     20  C   UNL     1       5.923   4.525  16.060  0.00  0.00    +0.000 A 
ATOM     21 CL   UNL     1       6.163   3.731  14.561  0.00  0.00    +0.000 Cl
ATOM     22  N   UNL     1       7.008   4.569  16.854  0.00  0.00    +0.000 NA
ATOM     23  C   UNL     1       6.849   5.175  18.044  0.00  0.00    +0.000 A 
ATOM     24 CL   UNL     1       8.251   5.189  19.031  0.00  0.00    +0.000 Cl
ATOM     25  C   UNL     1       5.678   5.761  18.481  0.00  0.00    +0.000 A 
ENDBRANCH  15  18
ENDBRANCH   1  16
TORSDOF 3
ENDMDL
MODEL 8
REMARK VINA RESULT:      -7.0      4.174      9.352
REMARK  Name = 
REMARK  3 active torsions:
REMARK  status: ('A' for Active; 'I' for Inactive)
REMARK    1  A    between atoms: C_2  and  C_16
REMARK    2  A    between atoms: N_3  and  C_4
REMARK    3  A    between atoms: C_7  and  C_8
REMARK                            x       y       z     vdW  Elec       q    Type
REMARK                         _______ _______ _______ _____ _____    ______ ____
ROOT
ATOM      1  C   UNL     1       2.025   7.972  19.107  0.00  0.00    +0.000 A 
ATOM      2  C   UNL     1       2.178   6.799  19.843  0.00  0.00    +0.000 A 
ATOM      3  C   UNL     1       3.115   5.841  19.463  0.00  0.00    +0.000 A 
ATOM      4  C   UNL     1       3.931   6.034  18.341  0.00  0.00    +0.000 A 
ATOM      5  C   UNL     1       3.748   7.195  17.577  0.00  0.00    +0.000 A 
ATOM      6  C   UNL     1       2.797   8.151  17.952  0.00  0.00    +0.000 A 
ENDROOT
BRANCH   4   7
ATOM      7  C   UNL     1       4.963   4.996  17.951  0.00  0.00    +0.000 C 
ATOM      8  C   UNL     1       6.346   5.342  18.560  0.00  0.00    +0.000 C 
ATOM      9  N   UNL     1       7.420   4.428  18.113  0.00  0.00    +0.000 NA
ATOM     10  C   UNL     1       7.421   4.411  16.639  0.00  0.00    +0.000 C 
ATOM     11  C   UNL     1       6.048   4.034  16.067  0.00  0.00    +0.000 C 
ATOM     12  O   UNL     1       5.032   4.936  16.513  0.00  0.00    +0.000 OA
ATOM     13  H   UNL     1       7.204   3.489  18.447  0.00  0.00    +0.000 HD
ENDBRANCH   4   7
BRANCH   1  16
ATOM     14  O   UNL     1       1.453   9.065  21.785  0.00  0.00    +0.000 OA
ATOM     15  C   UNL     1       0.887   9.431  20.764  0.00  0.00    +0.000 C 
ATOM     16  N   UNL     1       1.123   8.995  19.472  0.00  0.00    +0.000 N 
ATOM     17  H   UNL     1       0.740   9.534  18.707  0.00  0.00    +0.000 HD
BRANCH  15  18
ATOM     18  C   UNL     1      -0.123  10.509  20.902  0.00  0.00    +0.000 A 
ATOM     19  C   UNL     1      -0.977  10.747  19.825  0.00  0.00    +0.000 A 
ATOM     20  C   UNL     1      -1.900  11.761  19.959  0.00  0.00    +0.000 A 
ATOM     21 CL   UNL     1      -3.004  12.117  18.699  0.00  0.00    +0.000 Cl
ATOM     22  N   UNL     1      -2.026  12.535  21.053  0.00  0.00    +0.000 NA
ATOM     23  C   UNL     1      -1.165  12.288  22.056  0.00  0.00    +0.000 A 
ATOM     24 CL   UNL     1      -1.347  13.311  23.420  0.00  0.00    +0.000 Cl
ATOM     25  C   UNL     1      -0.199  11.302  22.044  0.00  0.00    +0.000 A 
ENDBRANCH  15  18
ENDBRANCH   1  16
TORSDOF 3
ENDMDL
MODEL 9
REMARK VINA RESULT:      -7.0      4.942      9.546
REMARK  Name = 
REMARK  3 active torsions:
REMARK  status: ('A' for Active; 'I' for Inactive)
REMARK    1  A    between atoms: C_2  and  C_16
REMARK    2  A    between atoms: N_3  and  C_4
REMARK    3  A    between atoms: C_7  and  C_8
REMARK                            x       y       z     vdW  Elec       q    Type
REMARK                         _______ _______ _______ _____ _____    ______ ____
ROOT
ATOM      1  C   UNL     1       0.926   9.245  20.144  0.00  0.00    +0.000 A 
ATOM      2  C   UNL     1       1.254   8.090  20.851  0.00  0.00    +0.000 A 
ATOM      3  C   UNL     1       2.020   7.089  20.256  0.00  0.00    +0.000 A 
ATOM      4  C   UNL     1       2.485   7.221  18.941  0.00  0.00    +0.000 A 
ATOM      5  C   UNL     1       2.119   8.364  18.217  0.00  0.00    +0.000 A 
ATOM      6  C   UNL     1       1.339   9.363  18.811  0.00  0.00    +0.000 A 
ENDROOT
BRANCH   4   7
ATOM      7  C   UNL     1       3.337   6.137  18.314  0.00  0.00    +0.000 C 
ATOM      8  C   UNL     1       2.456   4.951  17.845  0.00  0.00    +0.000 C 
ATOM      9  N   UNL     1       3.247   3.809  17.335  0.00  0.00    +0.000 NA
ATOM     10  C   UNL     1       4.227   3.433  18.370  0.00  0.00    +0.000 C 
ATOM     11  C   UNL     1       5.104   4.620  18.790  0.00  0.00    +0.000 C 
ATOM     12  O   UNL     1       4.314   5.705  19.282  0.00  0.00    +0.000 OA
ATOM     13  H   UNL     1       3.755   4.114  16.505  0.00  0.00    +0.000 HD
ENDBRANCH   4   7
BRANCH   1  16
ATOM     14  O   UNL     1       0.678  10.017  22.979  0.00  0.00    +0.000 OA
ATOM     15  C   UNL     1       0.098  10.586  22.064  0.00  0.00    +0.000 C 
ATOM     16  N   UNL     1       0.191  10.308  20.712  0.00  0.00    +0.000 N 
ATOM     17  H   UNL     1      -0.169  10.990  20.057  0.00  0.00    +0.000 HD
BRANCH  15  18
ATOM     18  C   UNL     1      -0.751  11.748  22.423  0.00  0.00    +0.000 A 
ATOM     19  C   UNL     1      -1.906  11.509  23.167  0.00  0.00    +0.000 A 
ATOM     20  C   UNL     1      -2.695  12.594  23.481  0.00  0.00    +0.000 A 
ATOM     21 CL   UNL     1      -4.125  12.404  24.404  0.00  0.00    +0.000 Cl
ATOM     22  N   UNL     1      -2.425  13.861  23.115  0.00  0.00    +0.000 NA
ATOM     23  C   UNL     1      -1.315  14.042  22.378  0.00  0.00    +0.000 A 
ATOM     24 CL   UNL     1      -1.022  15.667  21.917  0.00  0.00    +0.000 Cl
ATOM     25  C   UNL     1      -0.445  13.039  22.001  0.00  0.00    +0.000 A 
ENDBRANCH  15  18
ENDBRANCH   1  16
TORSDOF 3
ENDMDL
