MODEL 1
REMARK VINA RESULT:      -7.9      0.000      0.000
REMARK  Name = 
REMARK  6 active torsions:
REMARK  status: ('A' for Active; 'I' for Inactive)
REMARK    1  A    between atoms: C_2  and  O_3
REMARK    2  A    between atoms: C_2  and  C_4
REMARK    3  A    between atoms: C_4  and  C_5
REMARK    4  A    between atoms: C_5  and  N_6
REMARK    5  A    between atoms: C_10  and  C_11
REMARK    6  A    between atoms: C_13  and  C_14
REMARK                            x       y       z     vdW  Elec       q    Type
REMARK                         _______ _______ _______ _____ _____    ______ ____
ROOT
ATOM      1  C   UNL     1       3.077   6.196  19.159  0.00  0.00    +0.000 A 
ATOM      2  N   UNL     1       2.421   6.675  20.191  0.00  0.00    +0.000 NA
ATOM      3  C   UNL     1       1.945   7.875  19.717  0.00  0.00    +0.000 A 
ATOM      4  N   UNL     1       2.290   8.133  18.444  0.00  0.00    +0.000 NA
ATOM      5  O   UNL     1       3.045   7.021  18.073  0.00  0.00    +0.000 OA
ENDROOT
BRANCH   3   6
ATOM      6  C   UNL     1       1.120   8.747  20.544  0.00  0.00    +0.000 A 
ATOM      7  C   UNL     1       1.107   8.582  21.936  0.00  0.00    +0.000 A 
ATOM      8  C   UNL     1       0.317   9.400  22.744  0.00  0.00    +0.000 A 
ATOM      9  C   UNL     1      -0.480  10.404  22.178  0.00  0.00    +0.000 A 
ATOM     10  C   UNL     1      -1.278  11.236  22.976  0.00  0.00    +0.000 A 
ATOM     11  C   UNL     1      -2.068  12.231  22.398  0.00  0.00    +0.000 A 
ATOM     12  C   UNL     1      -2.072  12.403  21.018  0.00  0.00    +0.000 A 
ATOM     13  C   UNL     1      -1.283  11.582  20.210  0.00  0.00    +0.000 A 
ATOM     14  C   UNL     1      -0.480  10.580  20.775  0.00  0.00    +0.000 A 
ATOM     15  C   UNL     1       0.323   9.749  19.974  0.00  0.00    +0.000 A 
ENDBRANCH   3   6
BRANCH   1  20
ATOM     16  N   UNL     1       2.883   3.862  18.426  0.00  0.00    +0.000 NA
ATOM     17  C   UNL     1       3.220   3.790  16.995  0.00  0.00    +0.000 C 
ATOM     18  C   UNL     1       4.713   4.042  16.918  0.00  0.00    +0.000 C 
ATOM     19  C   UNL     1       4.971   5.040  18.029  0.00  0.00    +0.000 C 
ATOM     20  C   UNL     1       3.790   4.890  18.997  0.00  0.00    +0.000 C 
BRANCH  16  21
ATOM     21  C   UNL     1       2.972   2.545  19.079  0.00  0.00    +0.000 C 
BRANCH  21  22
ATOM     22  C   UNL     1       1.645   2.110  19.712  0.00  0.00    +0.000 C 
BRANCH  22  24
ATOM     23  O   UNL     1       1.601   2.809  22.038  0.00  0.00    +0.000 OA
ATOM     24  C   UNL     1       1.278   2.997  20.874  0.00  0.00    +0.000 C 
BRANCH  24  25
ATOM     25  O   UNL     1       0.553   4.071  20.490  0.00  0.00    +0.000 OA
ATOM     26  H   UNL     1       0.980   4.929  20.680  0.00  0.00    +0.000 HD
ENDBRANCH  24  25
ENDBRANCH  22  24
ENDBRANCH  21  22
ENDBRANCH  16  21
ENDBRANCH   1  20
TORSDOF 6
ENDMDL
MODEL 2
REMARK VINA RESULT:      -7.8      0.843      1.645
REMARK  Name = 
REMARK  6 active torsions:
REMARK  status: ('A' for Active; 'I' for Inactive)
REMARK    1  A    between atoms: C_2  and  O_3
REMARK    2  A    between atoms: C_2  and  C_4
REMARK    3  A    between atoms: C_4  and  C_5
REMARK    4  A    between atoms: C_5  and  N_6
REMARK    5  A    between atoms: C_10  and  C_11
REMARK    6  A    between atoms: C_13  and  C_14
REMARK                            x       y       z     vdW  Elec       q    Type
REMARK                         _______ _______ _______ _____ _____    ______ ____
ROOT
ATOM      1  C   UNL     1       3.353   6.381  18.596  0.00  0.00    +0.000 A 
ATOM      2  N   UNL     1       2.511   6.937  19.437  0.00  0.00    +0.000 NA
ATOM      3  C   UNL     1       2.199   8.122  18.812  0.00  0.00    +0.000 A 
ATOM      4  N   UNL     1       2.819   8.297  17.634  0.00  0.00    +0.000 NA
ATOM      5  O   UNL     1       3.589   7.143  17.490  0.00  0.00    +0.000 OA
ENDROOT
BRANCH   3   6
ATOM      6  C   UNL     1       1.253   9.065  19.397  0.00  0.00    +0.000 A 
ATOM      7  C   UNL     1       0.653  10.043  18.591  0.00  0.00    +0.000 A 
ATOM      8  C   UNL     1      -0.248  10.960  19.134  0.00  0.00    +0.000 A 
ATOM      9  C   UNL     1      -0.569  10.921  20.497  0.00  0.00    +0.000 A 
ATOM     10  C   UNL     1      -1.475  11.834  21.058  0.00  0.00    +0.000 A 
ATOM     11  C   UNL     1      -1.784  11.784  22.418  0.00  0.00    +0.000 A 
ATOM     12  C   UNL     1      -1.191  10.825  23.232  0.00  0.00    +0.000 A 
ATOM     13  C   UNL     1      -0.288   9.909  22.689  0.00  0.00    +0.000 A 
ATOM     14  C   UNL     1       0.031   9.943  21.323  0.00  0.00    +0.000 A 
ATOM     15  C   UNL     1       0.935   9.024  20.762  0.00  0.00    +0.000 A 
ENDBRANCH   3   6
BRANCH   1  20
ATOM     16  N   UNL     1       3.041   3.949  18.493  0.00  0.00    +0.000 NA
ATOM     17  C   UNL     1       3.159   3.519  17.089  0.00  0.00    +0.000 C 
ATOM     18  C   UNL     1       4.624   3.685  16.737  0.00  0.00    +0.000 C 
ATOM     19  C   UNL     1       5.050   4.910  17.521  0.00  0.00    +0.000 C 
ATOM     20  C   UNL     1       4.028   5.046  18.657  0.00  0.00    +0.000 C 
BRANCH  16  21
ATOM     21  C   UNL     1       3.222   2.825  19.428  0.00  0.00    +0.000 C 
BRANCH  21  22
ATOM     22  C   UNL     1       1.905   2.371  20.066  0.00  0.00    +0.000 C 
BRANCH  22  24
ATOM     23  O   UNL     1       1.303   2.447  22.418  0.00  0.00    +0.000 OA
ATOM     24  C   UNL     1       1.699   3.018  21.412  0.00  0.00    +0.000 C 
BRANCH  24  25
ATOM     25  O   UNL     1       2.028   4.328  21.408  0.00  0.00    +0.000 OA
ATOM     26  H   UNL     1       1.283   4.926  21.204  0.00  0.00    +0.000 HD
ENDBRANCH  24  25
ENDBRANCH  22  24
ENDBRANCH  21  22
ENDBRANCH  16  21
ENDBRANCH   1  20
TORSDOF 6
ENDMDL
MODEL 3
REMARK VINA RESULT:      -7.8      2.066      3.389
REMARK  Name = 
REMARK  6 active torsions:
REMARK  status: ('A' for Active; 'I' for Inactive)
REMARK    1  A    between atoms: C_2  and  O_3
REMARK    2  A    between atoms: C_2  and  C_4
REMARK    3  A    between atoms: C_4  and  C_5
REMARK    4  A    between atoms: C_5  and  N_6
REMARK    5  A    between atoms: C_10  and  C_11
REMARK    6  A    between atoms: C_13  and  C_14
REMARK                            x       y       z     vdW  Elec       q    Type
REMARK                         _______ _______ _______ _____ _____    ______ ____
ROOT
ATOM      1  C   UNL     1       2.813   6.930  18.418  0.00  0.00    +0.000 A 
ATOM      2  N   UNL     1       2.132   7.187  19.512  0.00  0.00    +0.000 NA
ATOM      3  C   UNL     1       1.757   8.498  19.333  0.00  0.00    +0.000 A 
ATOM      4  N   UNL     1       2.184   9.035  18.178  0.00  0.00    +0.000 NA
ATOM      5  O   UNL     1       2.889   7.996  17.571  0.00  0.00    +0.000 OA
ENDROOT
BRANCH   3   6
ATOM      6  C   UNL     1       0.944   9.198  20.320  0.00  0.00    +0.000 A 
ATOM      7  C   UNL     1       0.973   8.794  21.663  0.00  0.00    +0.000 A 
ATOM      8  C   UNL     1       0.194   9.445  22.620  0.00  0.00    +0.000 A 
ATOM      9  C   UNL     1      -0.633  10.516  22.257  0.00  0.00    +0.000 A 
ATOM     10  C   UNL     1      -1.420  11.182  23.208  0.00  0.00    +0.000 A 
ATOM     11  C   UNL     1      -2.241  12.246  22.832  0.00  0.00    +0.000 A 
ATOM     12  C   UNL     1      -2.287  12.653  21.503  0.00  0.00    +0.000 A 
ATOM     13  C   UNL     1      -1.510  12.000  20.545  0.00  0.00    +0.000 A 
ATOM     14  C   UNL     1      -0.676  10.931  20.906  0.00  0.00    +0.000 A 
ATOM     15  C   UNL     1       0.115  10.267  19.953  0.00  0.00    +0.000 A 
ENDBRANCH   3   6
BRANCH   1  20
ATOM     16  N   UNL     1       4.378   5.132  19.000  0.00  0.00    +0.000 NA
ATOM     17  C   UNL     1       3.633   4.067  19.693  0.00  0.00    +0.000 C 
ATOM     18  C   UNL     1       2.764   3.424  18.630  0.00  0.00    +0.000 C 
ATOM     19  C   UNL     1       2.386   4.578  17.723  0.00  0.00    +0.000 C 
ATOM     20  C   UNL     1       3.452   5.655  17.964  0.00  0.00    +0.000 C 
BRANCH  16  21
ATOM     21  C   UNL     1       5.666   4.648  18.474  0.00  0.00    +0.000 C 
BRANCH  21  22
ATOM     22  C   UNL     1       5.751   4.742  16.946  0.00  0.00    +0.000 C 
BRANCH  22  24
ATOM     23  O   UNL     1       7.554   5.658  15.601  0.00  0.00    +0.000 OA
ATOM     24  C   UNL     1       7.177   4.905  16.488  0.00  0.00    +0.000 C 
BRANCH  24  25
ATOM     25  O   UNL     1       8.034   4.133  17.191  0.00  0.00    +0.000 OA
ATOM     26  H   UNL     1       7.773   3.192  17.244  0.00  0.00    +0.000 HD
ENDBRANCH  24  25
ENDBRANCH  22  24
ENDBRANCH  21  22
ENDBRANCH  16  21
ENDBRANCH   1  20
TORSDOF 6
ENDMDL
MODEL 4
REMARK VINA RESULT:      -7.7      2.191      3.787
REMARK  Name = 
REMARK  6 active torsions:
REMARK  status: ('A' for Active; 'I' for Inactive)
REMARK    1  A    between atoms: C_2  and  O_3
REMARK    2  A    between atoms: C_2  and  C_4
REMARK    3  A    between atoms: C_4  and  C_5
REMARK    4  A    between atoms: C_5  and  N_6
REMARK    5  A    between atoms: C_10  and  C_11
REMARK    6  A    between atoms: C_13  and  C_14
REMARK                            x       y       z     vdW  Elec       q    Type
REMARK                         _______ _______ _______ _____ _____    ______ ____
ROOT
ATOM      1  C   UNL     1       3.058   6.211  17.967  0.00  0.00    +0.000 A 
ATOM      2  N   UNL     1       2.214   6.725  18.833  0.00  0.00    +0.000 NA
ATOM      3  C   UNL     1       2.239   8.065  18.520  0.00  0.00    +0.000 A 
ATOM      4  N   UNL     1       3.062   8.372  17.504  0.00  0.00    +0.000 NA
ATOM      5  O   UNL     1       3.609   7.142  17.137  0.00  0.00    +0.000 OA
ENDROOT
BRANCH   3   6
ATOM      6  C   UNL     1       1.410   9.028  19.233  0.00  0.00    +0.000 A 
ATOM      7  C   UNL     1       1.010  10.212  18.597  0.00  0.00    +0.000 A 
ATOM      8  C   UNL     1       0.225  11.152  19.267  0.00  0.00    +0.000 A 
ATOM      9  C   UNL     1      -0.180  10.928  20.589  0.00  0.00    +0.000 A 
ATOM     10  C   UNL     1      -0.972  11.861  21.275  0.00  0.00    +0.000 A 
ATOM     11  C   UNL     1      -1.367  11.626  22.593  0.00  0.00    +0.000 A 
ATOM     12  C   UNL     1      -0.972  10.459  23.240  0.00  0.00    +0.000 A 
ATOM     13  C   UNL     1      -0.184   9.522  22.571  0.00  0.00    +0.000 A 
ATOM     14  C   UNL     1       0.218   9.740  21.245  0.00  0.00    +0.000 A 
ATOM     15  C   UNL     1       1.008   8.803  20.557  0.00  0.00    +0.000 A 
ENDBRANCH   3   6
BRANCH   1  20
ATOM     16  N   UNL     1       4.919   4.655  17.602  0.00  0.00    +0.000 NA
ATOM     17  C   UNL     1       5.396   4.178  18.912  0.00  0.00    +0.000 C 
ATOM     18  C   UNL     1       4.299   3.272  19.436  0.00  0.00    +0.000 C 
ATOM     19  C   UNL     1       3.023   3.916  18.931  0.00  0.00    +0.000 C 
ATOM     20  C   UNL     1       3.446   4.784  17.738  0.00  0.00    +0.000 C 
BRANCH  16  21
ATOM     21  C   UNL     1       5.352   3.771  16.505  0.00  0.00    +0.000 C 
BRANCH  21  22
ATOM     22  C   UNL     1       6.585   4.307  15.769  0.00  0.00    +0.000 C 
BRANCH  22  24
ATOM     23  O   UNL     1       7.567   6.450  16.355  0.00  0.00    +0.000 OA
ATOM     24  C   UNL     1       6.657   5.810  15.847  0.00  0.00    +0.000 C 
BRANCH  24  25
ATOM     25  O   UNL     1       5.596   6.406  15.262  0.00  0.00    +0.000 OA
ATOM     26  H   UNL     1       5.805   6.854  14.418  0.00  0.00    +0.000 HD
ENDBRANCH  24  25
ENDBRANCH  22  24
ENDBRANCH  21  22
ENDBRANCH  16  21
ENDBRANCH   1  20
TORSDOF 6
ENDMDL
MODEL 5
REMARK VINA RESULT:      -7.7      1.978      3.574
REMARK  Name = 
REMARK  6 active torsions:
REMARK  status: ('A' for Active; 'I' for Inactive)
REMARK    1  A    between atoms: C_2  and  O_3
REMARK    2  A    between atoms: C_2  and  C_4
REMARK    3  A    between atoms: C_4  and  C_5
REMARK    4  A    between atoms: C_5  and  N_6
REMARK    5  A    between atoms: C_10  and  C_11
REMARK    6  A    between atoms: C_13  and  C_14
REMARK                            x       y       z     vdW  Elec       q    Type
REMARK                         _______ _______ _______ _____ _____    ______ ____
ROOT
ATOM      1  C   UNL     1       2.820   6.191  18.514  0.00  0.00    +0.000 A 
ATOM      2  N   UNL     1       2.102   6.561  19.550  0.00  0.00    +0.000 NA
ATOM      3  C   UNL     1       1.970   7.917  19.358  0.00  0.00    +0.000 A 
ATOM      4  N   UNL     1       2.580   8.372  18.250  0.00  0.00    +0.000 NA
ATOM      5  O   UNL     1       3.148   7.228  17.691  0.00  0.00    +0.000 OA
ENDROOT
BRANCH   3   6
ATOM      6  C   UNL     1       1.206   8.745  20.282  0.00  0.00    +0.000 A 
ATOM      7  C   UNL     1       1.300   8.521  21.663  0.00  0.00    +0.000 A 
ATOM      8  C   UNL     1       0.568   9.297  22.563  0.00  0.00    +0.000 A 
ATOM      9  C   UNL     1      -0.276  10.316  22.102  0.00  0.00    +0.000 A 
ATOM     10  C   UNL     1      -1.016  11.107  22.993  0.00  0.00    +0.000 A 
ATOM     11  C   UNL     1      -1.854  12.118  22.520  0.00  0.00    +0.000 A 
ATOM     12  C   UNL     1      -1.964  12.347  21.152  0.00  0.00    +0.000 A 
ATOM     13  C   UNL     1      -1.234  11.568  20.253  0.00  0.00    +0.000 A 
ATOM     14  C   UNL     1      -0.384  10.551  20.712  0.00  0.00    +0.000 A 
ATOM     15  C   UNL     1       0.360   9.763  19.817  0.00  0.00    +0.000 A 
ENDBRANCH   3   6
BRANCH   1  20
ATOM     16  N   UNL     1       4.715   4.832  17.750  0.00  0.00    +0.000 NA
ATOM     17  C   UNL     1       5.408   4.287  18.929  0.00  0.00    +0.000 C 
ATOM     18  C   UNL     1       4.464   3.252  19.509  0.00  0.00    +0.000 C 
ATOM     19  C   UNL     1       3.087   3.828  19.249  0.00  0.00    +0.000 C 
ATOM     20  C   UNL     1       3.271   4.826  18.098  0.00  0.00    +0.000 C 
BRANCH  16  21
ATOM     21  C   UNL     1       5.046   4.085  16.524  0.00  0.00    +0.000 C 
BRANCH  21  22
ATOM     22  C   UNL     1       5.628   4.982  15.426  0.00  0.00    +0.000 C 
BRANCH  22  24
ATOM     23  O   UNL     1       7.829   4.484  16.322  0.00  0.00    +0.000 OA
ATOM     24  C   UNL     1       7.134   4.932  15.422  0.00  0.00    +0.000 C 
BRANCH  24  25
ATOM     25  O   UNL     1       7.662   5.425  14.281  0.00  0.00    +0.000 OA
ATOM     26  H   UNL     1       7.675   6.402  14.236  0.00  0.00    +0.000 HD
ENDBRANCH  24  25
ENDBRANCH  22  24
ENDBRANCH  21  22
ENDBRANCH  16  21
ENDBRANCH   1  20
TORSDOF 6
ENDMDL
MODEL 6
REMARK VINA RESULT:      -7.6      2.547      4.394
REMARK  Name = 
REMARK  6 active torsions:
REMARK  status: ('A' for Active; 'I' for Inactive)
REMARK    1  A    between atoms: C_2  and  O_3
REMARK    2  A    between atoms: C_2  and  C_4
REMARK    3  A    between atoms: C_4  and  C_5
REMARK    4  A    between atoms: C_5  and  N_6
REMARK    5  A    between atoms: C_10  and  C_11
REMARK    6  A    between atoms: C_13  and  C_14
REMARK                            x       y       z     vdW  Elec       q    Type
REMARK                         _______ _______ _______ _____ _____    ______ ____
ROOT
ATOM      1  C   UNL     1       4.051   5.382  19.062  0.00  0.00    +0.000 A 
ATOM      2  N   UNL     1       3.623   6.622  19.018  0.00  0.00    +0.000 NA
ATOM      3  C   UNL     1       2.507   6.586  19.822  0.00  0.00    +0.000 A 
ATOM      4  N   UNL     1       2.252   5.375  20.345  0.00  0.00    +0.000 NA
ATOM      5  O   UNL     1       3.275   4.573  19.838  0.00  0.00    +0.000 OA
ENDROOT
BRANCH   3   6
ATOM      6  C   UNL     1       1.717   7.783  20.081  0.00  0.00    +0.000 A 
ATOM      7  C   UNL     1       1.541   8.737  19.068  0.00  0.00    +0.000 A 
ATOM      8  C   UNL     1       0.796   9.894  19.300  0.00  0.00    +0.000 A 
ATOM      9  C   UNL     1       0.208  10.123  20.551  0.00  0.00    +0.000 A 
ATOM     10  C   UNL     1      -0.547  11.280  20.799  0.00  0.00    +0.000 A 
ATOM     11  C   UNL     1      -1.125  11.497  22.051  0.00  0.00    +0.000 A 
ATOM     12  C   UNL     1      -0.953  10.563  23.068  0.00  0.00    +0.000 A 
ATOM     13  C   UNL     1      -0.205   9.408  22.836  0.00  0.00    +0.000 A 
ATOM     14  C   UNL     1       0.380   9.172  21.583  0.00  0.00    +0.000 A 
ATOM     15  C   UNL     1       1.132   8.011  21.334  0.00  0.00    +0.000 A 
ENDBRANCH   3   6
BRANCH   1  20
ATOM     16  N   UNL     1       5.410   5.197  17.027  0.00  0.00    +0.000 NA
ATOM     17  C   UNL     1       6.429   6.261  17.045  0.00  0.00    +0.000 C 
ATOM     18  C   UNL     1       7.404   5.868  18.137  0.00  0.00    +0.000 C 
ATOM     19  C   UNL     1       6.531   5.205  19.183  0.00  0.00    +0.000 C 
ATOM     20  C   UNL     1       5.264   4.763  18.440  0.00  0.00    +0.000 C 
BRANCH  16  21
ATOM     21  C   UNL     1       5.763   4.114  16.093  0.00  0.00    +0.000 C 
BRANCH  21  22
ATOM     22  C   UNL     1       5.359   4.427  14.648  0.00  0.00    +0.000 C 
BRANCH  22  24
ATOM     23  O   UNL     1       7.427   5.194  13.631  0.00  0.00    +0.000 OA
ATOM     24  C   UNL     1       6.546   4.352  13.721  0.00  0.00    +0.000 C 
BRANCH  24  25
ATOM     25  O   UNL     1       6.557   3.215  12.993  0.00  0.00    +0.000 OA
ATOM     26  H   UNL     1       6.756   2.410  13.511  0.00  0.00    +0.000 HD
ENDBRANCH  24  25
ENDBRANCH  22  24
ENDBRANCH  21  22
ENDBRANCH  16  21
ENDBRANCH   1  20
TORSDOF 6
ENDMDL
MODEL 7
REMARK VINA RESULT:      -7.6      1.213      2.031
REMARK  Name = 
REMARK  6 active torsions:
REMARK  status: ('A' for Active; 'I' for Inactive)
REMARK    1  A    between atoms: C_2  and  O_3
REMARK    2  A    between atoms: C_2  and  C_4
REMARK    3  A    between atoms: C_4  and  C_5
REMARK    4  A    between atoms: C_5  and  N_6
REMARK    5  A    between atoms: C_10  and  C_11
REMARK    6  A    between atoms: C_13  and  C_14
REMARK                            x       y       z     vdW  Elec       q    Type
REMARK                         _______ _______ _______ _____ _____    ______ ____
ROOT
ATOM      1  C   UNL     1       3.476   6.286  18.819  0.00  0.00    +0.000 A 
ATOM      2  N   UNL     1       2.678   6.915  19.651  0.00  0.00    +0.000 NA
ATOM      3  C   UNL     1       2.239   7.981  18.901  0.00  0.00    +0.000 A 
ATOM      4  N   UNL     1       2.741   8.014  17.655  0.00  0.00    +0.000 NA
ATOM      5  O   UNL     1       3.566   6.891  17.600  0.00  0.00    +0.000 OA
ENDROOT
BRANCH   3   6
ATOM      6  C   UNL     1       1.291   8.950  19.437  0.00  0.00    +0.000 A 
ATOM      7  C   UNL     1       0.707   9.901  18.587  0.00  0.00    +0.000 A 
ATOM      8  C   UNL     1      -0.195  10.843  19.083  0.00  0.00    +0.000 A 
ATOM      9  C   UNL     1      -0.535  10.856  20.442  0.00  0.00    +0.000 A 
ATOM     10  C   UNL     1      -1.442  11.794  20.956  0.00  0.00    +0.000 A 
ATOM     11  C   UNL     1      -1.770  11.797  22.313  0.00  0.00    +0.000 A 
ATOM     12  C   UNL     1      -1.194  10.866  23.170  0.00  0.00    +0.000 A 
ATOM     13  C   UNL     1      -0.289   9.926  22.673  0.00  0.00    +0.000 A 
ATOM     14  C   UNL     1       0.049   9.906  21.312  0.00  0.00    +0.000 A 
ATOM     15  C   UNL     1       0.954   8.963  20.797  0.00  0.00    +0.000 A 
ENDBRANCH   3   6
BRANCH   1  20
ATOM     16  N   UNL     1       4.037   4.108  17.836  0.00  0.00    +0.000 NA
ATOM     17  C   UNL     1       5.243   4.265  17.005  0.00  0.00    +0.000 C 
ATOM     18  C   UNL     1       6.379   4.496  17.982  0.00  0.00    +0.000 C 
ATOM     19  C   UNL     1       5.741   5.292  19.102  0.00  0.00    +0.000 C 
ATOM     20  C   UNL     1       4.236   5.009  19.000  0.00  0.00    +0.000 C 
BRANCH  16  21
ATOM     21  C   UNL     1       3.795   2.700  18.194  0.00  0.00    +0.000 C 
BRANCH  21  22
ATOM     22  C   UNL     1       2.362   2.251  17.887  0.00  0.00    +0.000 C 
BRANCH  22  24
ATOM     23  O   UNL     1       0.889   3.393  19.445  0.00  0.00    +0.000 OA
ATOM     24  C   UNL     1       1.360   3.291  18.322  0.00  0.00    +0.000 C 
BRANCH  24  25
ATOM     25  O   UNL     1       1.039   4.143  17.324  0.00  0.00    +0.000 OA
ATOM     26  H   UNL     1       0.106   4.089  17.037  0.00  0.00    +0.000 HD
ENDBRANCH  24  25
ENDBRANCH  22  24
ENDBRANCH  21  22
ENDBRANCH  16  21
ENDBRANCH   1  20
TORSDOF 6
ENDMDL
MODEL 8
REMARK VINA RESULT:      -7.5      2.326      3.388
REMARK  Name = 
REMARK  6 active torsions:
REMARK  status: ('A' for Active; 'I' for Inactive)
REMARK    1  A    between atoms: C_2  and  O_3
REMARK    2  A    between atoms: C_2  and  C_4
REMARK    3  A    between atoms: C_4  and  C_5
REMARK    4  A    between atoms: C_5  and  N_6
REMARK    5  A    between atoms: C_10  and  C_11
REMARK    6  A    between atoms: C_13  and  C_14
REMARK                            x       y       z     vdW  Elec       q    Type
REMARK                         _______ _______ _______ _____ _____    ______ ____
ROOT
ATOM      1  C   UNL     1       2.646   7.457  18.159  0.00  0.00    +0.000 A 
ATOM      2  N   UNL     1       2.039   7.674  19.304  0.00  0.00    +0.000 NA
ATOM      3  C   UNL     1       1.527   8.940  19.140  0.00  0.00    +0.000 A 
ATOM      4  N   UNL     1       1.802   9.488  17.945  0.00  0.00    +0.000 NA
ATOM      5  O   UNL     1       2.548   8.506  17.293  0.00  0.00    +0.000 OA
ENDROOT
BRANCH   3   6
ATOM      6  C   UNL     1       0.737   9.582  20.183  0.00  0.00    +0.000 A 
ATOM      7  C   UNL     1       0.840   9.138  21.510  0.00  0.00    +0.000 A 
ATOM      8  C   UNL     1       0.085   9.734  22.521  0.00  0.00    +0.000 A 
ATOM      9  C   UNL     1      -0.791  10.787  22.229  0.00  0.00    +0.000 A 
ATOM     10  C   UNL     1      -1.555  11.398  23.235  0.00  0.00    +0.000 A 
ATOM     11  C   UNL     1      -2.425  12.446  22.929  0.00  0.00    +0.000 A 
ATOM     12  C   UNL     1      -2.544  12.892  21.617  0.00  0.00    +0.000 A 
ATOM     13  C   UNL     1      -1.791  12.294  20.606  0.00  0.00    +0.000 A 
ATOM     14  C   UNL     1      -0.908  11.242  20.896  0.00  0.00    +0.000 A 
ATOM     15  C   UNL     1      -0.140  10.634  19.888  0.00  0.00    +0.000 A 
ENDBRANCH   3   6
BRANCH   1  20
ATOM     16  N   UNL     1       4.588   5.991  18.470  0.00  0.00    +0.000 NA
ATOM     17  C   UNL     1       4.227   4.930  19.426  0.00  0.00    +0.000 C 
ATOM     18  C   UNL     1       3.248   4.038  18.688  0.00  0.00    +0.000 C 
ATOM     19  C   UNL     1       2.470   4.998  17.811  0.00  0.00    +0.000 C 
ATOM     20  C   UNL     1       3.363   6.238  17.669  0.00  0.00    +0.000 C 
BRANCH  16  21
ATOM     21  C   UNL     1       5.773   5.631  17.671  0.00  0.00    +0.000 C 
BRANCH  21  22
ATOM     22  C   UNL     1       6.838   4.898  18.495  0.00  0.00    +0.000 C 
BRANCH  22  24
ATOM     23  O   UNL     1       8.166   6.920  18.714  0.00  0.00    +0.000 OA
ATOM     24  C   UNL     1       7.755   5.872  19.190  0.00  0.00    +0.000 C 
BRANCH  24  25
ATOM     25  O   UNL     1       8.073   5.474  20.441  0.00  0.00    +0.000 OA
ATOM     26  H   UNL     1       8.964   5.751  20.733  0.00  0.00    +0.000 HD
ENDBRANCH  24  25
ENDBRANCH  22  24
ENDBRANCH  21  22
ENDBRANCH  16  21
ENDBRANCH   1  20
TORSDOF 6
ENDMDL
MODEL 9
REMARK VINA RESULT:      -7.5      1.017      1.908
REMARK  Name = 
REMARK  6 active torsions:
REMARK  status: ('A' for Active; 'I' for Inactive)
REMARK    1  A    between atoms: C_2  and  O_3
REMARK    2  A    between atoms: C_2  and  C_4
REMARK    3  A    between atoms: C_4  and  C_5
REMARK    4  A    between atoms: C_5  and  N_6
REMARK    5  A    between atoms: C_10  and  C_11
REMARK    6  A    between atoms: C_13  and  C_14
REMARK                            x       y       z     vdW  Elec       q    Type
REMARK                         _______ _______ _______ _____ _____    ______ ____
ROOT
ATOM      1  C   UNL     1       3.074   7.016  18.679  0.00  0.00    +0.000 A 
ATOM      2  N   UNL     1       2.237   7.591  19.512  0.00  0.00    +0.000 NA
ATOM      3  C   UNL     1       1.780   8.667  18.787  0.00  0.00    +0.000 A 
ATOM      4  N   UNL     1       2.309   8.758  17.555  0.00  0.00    +0.000 NA
ATOM      5  O   UNL     1       3.172   7.664  17.483  0.00  0.00    +0.000 OA
ENDROOT
BRANCH   3   6
ATOM      6  C   UNL     1       0.789   9.586  19.332  0.00  0.00    +0.000 A 
ATOM      7  C   UNL     1       0.065  10.424  18.471  0.00  0.00    +0.000 A 
ATOM      8  C   UNL     1      -0.881  11.318  18.974  0.00  0.00    +0.000 A 
ATOM      9  C   UNL     1      -1.125  11.395  20.352  0.00  0.00    +0.000 A 
ATOM     10  C   UNL     1      -2.075  12.286  20.873  0.00  0.00    +0.000 A 
ATOM     11  C   UNL     1      -2.307  12.353  22.248  0.00  0.00    +0.000 A 
ATOM     12  C   UNL     1      -1.591  11.535  23.116  0.00  0.00    +0.000 A 
ATOM     13  C   UNL     1      -0.643  10.643  22.611  0.00  0.00    +0.000 A 
ATOM     14  C   UNL     1      -0.400  10.559  21.232  0.00  0.00    +0.000 A 
ATOM     15  C   UNL     1       0.548   9.663  20.711  0.00  0.00    +0.000 A 
ENDBRANCH   3   6
BRANCH   1  20
ATOM     16  N   UNL     1       3.010   4.563  18.654  0.00  0.00    +0.000 NA
ATOM     17  C   UNL     1       3.262   4.100  17.278  0.00  0.00    +0.000 C 
ATOM     18  C   UNL     1       4.724   4.401  17.013  0.00  0.00    +0.000 C 
ATOM     19  C   UNL     1       4.975   5.688  17.772  0.00  0.00    +0.000 C 
ATOM     20  C   UNL     1       3.871   5.759  18.836  0.00  0.00    +0.000 C 
BRANCH  16  21
ATOM     21  C   UNL     1       3.238   3.495  19.643  0.00  0.00    +0.000 C 
BRANCH  21  22
ATOM     22  C   UNL     1       2.406   2.239  19.357  0.00  0.00    +0.000 C 
BRANCH  22  24
ATOM     23  O   UNL     1       0.157   2.128  18.446  0.00  0.00    +0.000 OA
ATOM     24  C   UNL     1       0.936   2.565  19.281  0.00  0.00    +0.000 C 
BRANCH  24  25
ATOM     25  O   UNL     1       0.542   3.395  20.271  0.00  0.00    +0.000 OA
ATOM     26  H   UNL     1       0.989   3.237  21.126  0.00  0.00    +0.000 HD
ENDBRANCH  24  25
ENDBRANCH  22  24
ENDBRANCH  21  22
ENDBRANCH  16  21
ENDBRANCH   1  20
TORSDOF 6
ENDMDL
