MODEL 1
REMARK VINA RESULT:      -7.3      0.000      0.000
REMARK  Name = 
REMARK  6 active torsions:
REMARK  status: ('A' for Active; 'I' for Inactive)
REMARK    1  A    between atoms: C_1  and  C_2
REMARK    2  A    between atoms: C_2  and  C_3
REMARK    3  A    between atoms: C_3  and  C_4
REMARK    4  A    between atoms: C_8  and  C_9
REMARK    5  A    between atoms: C_9  and  C_11
REMARK    6  A    between atoms: C_18  and  O_19
REMARK                            x       y       z     vdW  Elec       q    Type
REMARK                         _______ _______ _______ _____ _____    ______ ____
ROOT
ATOM      1  C   UNL     1       7.558   7.393  17.841  0.00  0.00    +0.000 A 
ATOM      2  C   UNL     1       8.217   6.730  18.887  0.00  0.00    +0.000 A 
ATOM      3  C   UNL     1       7.941   5.393  19.166  0.00  0.00    +0.000 A 
ATOM      4  C   UNL     1       7.008   4.701  18.396  0.00  0.00    +0.000 A 
ATOM      5  C   UNL     1       6.326   5.340  17.349  0.00  0.00    +0.000 A 
ATOM      6  C   UNL     1       6.585   6.698  17.102  0.00  0.00    +0.000 A 
ENDROOT
BRANCH   5   7
ATOM      7  C   UNL     1       5.345   4.514  16.594  0.00  0.00    +0.000 C 
ATOM      8  O   UNL     1       5.567   4.268  15.410  0.00  0.00    +0.000 OA
BRANCH   7   9
ATOM      9  C   UNL     1       4.096   3.985  17.197  0.00  0.00    +0.000 A 
ATOM     10  C   UNL     1       3.127   4.903  17.633  0.00  0.00    +0.000 A 
ATOM     11  C   UNL     1       1.952   4.451  18.240  0.00  0.00    +0.000 A 
ATOM     12  C   UNL     1       1.747   3.084  18.418  0.00  0.00    +0.000 A 
ATOM     13 CL   UNL     1       0.318   2.527  19.193  0.00  0.00    +0.000 Cl
ATOM     14  C   UNL     1       2.703   2.167  17.982  0.00  0.00    +0.000 A 
ATOM     15  C   UNL     1       3.882   2.614  17.381  0.00  0.00    +0.000 A 
ENDBRANCH   7   9
ENDBRANCH   5   7
BRANCH   6  16
ATOM     16  O   UNL     1       5.907   7.430  16.162  0.00  0.00    +0.000 OA
ATOM     17  H   UNL     1       5.226   7.966  16.606  0.00  0.00    +0.000 HD
ENDBRANCH   6  16
BRANCH   1  18
ATOM     18  C   UNL     1       7.888   8.838  17.544  0.00  0.00    +0.000 C 
BRANCH  18  20
ATOM     19  C   UNL     1       9.318  10.809  18.176  0.00  0.00    +0.000 C 
ATOM     20  C   UNL     1       8.720   9.492  18.647  0.00  0.00    +0.000 C 
ENDBRANCH  18  20
ENDBRANCH   1  18
TORSDOF 5
ENDMDL
MODEL 2
REMARK VINA RESULT:      -7.2      0.157      1.119
REMARK  Name = 
REMARK  6 active torsions:
REMARK  status: ('A' for Active; 'I' for Inactive)
REMARK    1  A    between atoms: C_1  and  C_2
REMARK    2  A    between atoms: C_2  and  C_3
REMARK    3  A    between atoms: C_3  and  C_4
REMARK    4  A    between atoms: C_8  and  C_9
REMARK    5  A    between atoms: C_9  and  C_11
REMARK    6  A    between atoms: C_18  and  O_19
REMARK                            x       y       z     vdW  Elec       q    Type
REMARK                         _______ _______ _______ _____ _____    ______ ____
ROOT
ATOM      1  C   UNL     1       7.552   7.435  17.847  0.00  0.00    +0.000 A 
ATOM      2  C   UNL     1       8.199   6.739  18.879  0.00  0.00    +0.000 A 
ATOM      3  C   UNL     1       7.872   5.413  19.156  0.00  0.00    +0.000 A 
ATOM      4  C   UNL     1       6.901   4.764  18.397  0.00  0.00    +0.000 A 
ATOM      5  C   UNL     1       6.230   5.436  17.364  0.00  0.00    +0.000 A 
ATOM      6  C   UNL     1       6.540   6.783  17.120  0.00  0.00    +0.000 A 
ENDROOT
BRANCH   5   7
ATOM      7  C   UNL     1       5.204   4.655  16.620  0.00  0.00    +0.000 C 
ATOM      8  O   UNL     1       5.358   4.476  15.413  0.00  0.00    +0.000 OA
BRANCH   7   9
ATOM      9  C   UNL     1       3.990   4.092  17.261  0.00  0.00    +0.000 A 
ATOM     10  C   UNL     1       3.894   2.697  17.392  0.00  0.00    +0.000 A 
ATOM     11  C   UNL     1       2.753   2.120  17.956  0.00  0.00    +0.000 A 
ATOM     12  C   UNL     1       1.704   2.934  18.382  0.00  0.00    +0.000 A 
ATOM     13 CL   UNL     1       0.286   2.226  19.046  0.00  0.00    +0.000 Cl
ATOM     14  C   UNL     1       1.796   4.320  18.259  0.00  0.00    +0.000 A 
ATOM     15  C   UNL     1       2.932   4.901  17.689  0.00  0.00    +0.000 A 
ENDBRANCH   7   9
ENDBRANCH   5   7
BRANCH   6  16
ATOM     16  O   UNL     1       5.879   7.547  16.193  0.00  0.00    +0.000 OA
ATOM     17  H   UNL     1       5.732   7.017  15.390  0.00  0.00    +0.000 HD
ENDBRANCH   6  16
BRANCH   1  18
ATOM     18  C   UNL     1       7.936   8.866  17.552  0.00  0.00    +0.000 C 
BRANCH  18  20
ATOM     19  C   UNL     1       9.375  10.818  18.224  0.00  0.00    +0.000 C 
ATOM     20  C   UNL     1       8.765   9.497  18.670  0.00  0.00    +0.000 C 
ENDBRANCH  18  20
ENDBRANCH   1  18
TORSDOF 5
ENDMDL
MODEL 3
REMARK VINA RESULT:      -7.2      3.754      6.292
REMARK  Name = 
REMARK  6 active torsions:
REMARK  status: ('A' for Active; 'I' for Inactive)
REMARK    1  A    between atoms: C_1  and  C_2
REMARK    2  A    between atoms: C_2  and  C_3
REMARK    3  A    between atoms: C_3  and  C_4
REMARK    4  A    between atoms: C_8  and  C_9
REMARK    5  A    between atoms: C_9  and  C_11
REMARK    6  A    between atoms: C_18  and  O_19
REMARK                            x       y       z     vdW  Elec       q    Type
REMARK                         _______ _______ _______ _____ _____    ______ ____
ROOT
ATOM      1  C   UNL     1       2.967   4.535  19.897  0.00  0.00    +0.000 A 
ATOM      2  C   UNL     1       2.398   5.760  19.522  0.00  0.00    +0.000 A 
ATOM      3  C   UNL     1       3.044   6.596  18.613  0.00  0.00    +0.000 A 
ATOM      4  C   UNL     1       4.265   6.211  18.062  0.00  0.00    +0.000 A 
ATOM      5  C   UNL     1       4.864   4.995  18.425  0.00  0.00    +0.000 A 
ATOM      6  C   UNL     1       4.221   4.179  19.370  0.00  0.00    +0.000 A 
ENDROOT
BRANCH   5   7
ATOM      7  C   UNL     1       6.171   4.682  17.786  0.00  0.00    +0.000 C 
ATOM      8  O   UNL     1       7.156   4.518  18.504  0.00  0.00    +0.000 OA
BRANCH   7   9
ATOM      9  C   UNL     1       6.351   4.574  16.316  0.00  0.00    +0.000 A 
ATOM     10  C   UNL     1       5.487   3.728  15.601  0.00  0.00    +0.000 A 
ATOM     11  C   UNL     1       5.643   3.567  14.222  0.00  0.00    +0.000 A 
ATOM     12  C   UNL     1       6.665   4.243  13.557  0.00  0.00    +0.000 A 
ATOM     13 CL   UNL     1       6.879   4.022  11.867  0.00  0.00    +0.000 Cl
ATOM     14  C   UNL     1       7.522   5.089  14.260  0.00  0.00    +0.000 A 
ATOM     15  C   UNL     1       7.375   5.248  15.641  0.00  0.00    +0.000 A 
ENDBRANCH   7   9
ENDBRANCH   5   7
BRANCH   6  16
ATOM     16  O   UNL     1       4.769   3.018  19.852  0.00  0.00    +0.000 OA
ATOM     17  H   UNL     1       5.586   3.230  20.336  0.00  0.00    +0.000 HD
ENDBRANCH   6  16
BRANCH   1  18
ATOM     18  C   UNL     1       2.238   3.635  20.868  0.00  0.00    +0.000 C 
BRANCH  18  20
ATOM     19  C   UNL     1       0.904   2.489  19.069  0.00  0.00    +0.000 C 
ATOM     20  C   UNL     1       0.839   3.254  20.383  0.00  0.00    +0.000 C 
ENDBRANCH  18  20
ENDBRANCH   1  18
TORSDOF 5
ENDMDL
MODEL 4
REMARK VINA RESULT:      -7.0      3.780      6.207
REMARK  Name = 
REMARK  6 active torsions:
REMARK  status: ('A' for Active; 'I' for Inactive)
REMARK    1  A    between atoms: C_1  and  C_2
REMARK    2  A    between atoms: C_2  and  C_3
REMARK    3  A    between atoms: C_3  and  C_4
REMARK    4  A    between atoms: C_8  and  C_9
REMARK    5  A    between atoms: C_9  and  C_11
REMARK    6  A    between atoms: C_18  and  O_19
REMARK                            x       y       z     vdW  Elec       q    Type
REMARK                         _______ _______ _______ _____ _____    ______ ____
ROOT
ATOM      1  C   UNL     1       2.878   4.970  19.730  0.00  0.00    +0.000 A 
ATOM      2  C   UNL     1       2.415   6.211  19.269  0.00  0.00    +0.000 A 
ATOM      3  C   UNL     1       3.143   6.936  18.328  0.00  0.00    +0.000 A 
ATOM      4  C   UNL     1       4.339   6.424  17.829  0.00  0.00    +0.000 A 
ATOM      5  C   UNL     1       4.833   5.189  18.279  0.00  0.00    +0.000 A 
ATOM      6  C   UNL     1       4.110   4.486  19.256  0.00  0.00    +0.000 A 
ENDROOT
BRANCH   5   7
ATOM      7  C   UNL     1       6.123   4.736  17.690  0.00  0.00    +0.000 C 
ATOM      8  O   UNL     1       7.078   4.542  18.440  0.00  0.00    +0.000 OA
BRANCH   7   9
ATOM      9  C   UNL     1       6.321   4.523  16.234  0.00  0.00    +0.000 A 
ATOM     10  C   UNL     1       7.353   5.227  15.593  0.00  0.00    +0.000 A 
ATOM     11  C   UNL     1       7.553   5.086  14.218  0.00  0.00    +0.000 A 
ATOM     12  C   UNL     1       6.718   4.248  13.480  0.00  0.00    +0.000 A 
ATOM     13 CL   UNL     1       6.940   4.096  11.783  0.00  0.00    +0.000 Cl
ATOM     14  C   UNL     1       5.695   3.541  14.111  0.00  0.00    +0.000 A 
ATOM     15  C   UNL     1       5.487   3.685  15.486  0.00  0.00    +0.000 A 
ENDBRANCH   7   9
ENDBRANCH   5   7
BRANCH   6  16
ATOM     16  O   UNL     1       4.555   3.318  19.819  0.00  0.00    +0.000 OA
ATOM     17  H   UNL     1       3.799   2.718  19.946  0.00  0.00    +0.000 HD
ENDBRANCH   6  16
BRANCH   1  18
ATOM     18  C   UNL     1       2.063   4.192  20.737  0.00  0.00    +0.000 C 
BRANCH  18  20
ATOM     19  C   UNL     1       0.868   2.611  19.186  0.00  0.00    +0.000 C 
ATOM     20  C   UNL     1       0.708   3.750  20.182  0.00  0.00    +0.000 C 
ENDBRANCH  18  20
ENDBRANCH   1  18
TORSDOF 5
ENDMDL
MODEL 5
REMARK VINA RESULT:      -6.9      3.787      6.426
REMARK  Name = 
REMARK  6 active torsions:
REMARK  status: ('A' for Active; 'I' for Inactive)
REMARK    1  A    between atoms: C_1  and  C_2
REMARK    2  A    between atoms: C_2  and  C_3
REMARK    3  A    between atoms: C_3  and  C_4
REMARK    4  A    between atoms: C_8  and  C_9
REMARK    5  A    between atoms: C_9  and  C_11
REMARK    6  A    between atoms: C_18  and  O_19
REMARK                            x       y       z     vdW  Elec       q    Type
REMARK                         _______ _______ _______ _____ _____    ______ ____
ROOT
ATOM      1  C   UNL     1       2.339   3.974  18.865  0.00  0.00    +0.000 A 
ATOM      2  C   UNL     1       1.903   5.307  18.908  0.00  0.00    +0.000 A 
ATOM      3  C   UNL     1       2.742   6.342  18.501  0.00  0.00    +0.000 A 
ATOM      4  C   UNL     1       4.025   6.056  18.039  0.00  0.00    +0.000 A 
ATOM      5  C   UNL     1       4.493   4.734  17.993  0.00  0.00    +0.000 A 
ATOM      6  C   UNL     1       3.652   3.702  18.442  0.00  0.00    +0.000 A 
ENDROOT
BRANCH   5   7
ATOM      7  C   UNL     1       5.880   4.537  17.492  0.00  0.00    +0.000 C 
ATOM      8  O   UNL     1       6.797   4.451  18.307  0.00  0.00    +0.000 OA
BRANCH   7   9
ATOM      9  C   UNL     1       6.218   4.455  16.048  0.00  0.00    +0.000 A 
ATOM     10  C   UNL     1       7.312   5.200  15.579  0.00  0.00    +0.000 A 
ATOM     11  C   UNL     1       7.645   5.183  14.222  0.00  0.00    +0.000 A 
ATOM     12  C   UNL     1       6.880   4.430  13.332  0.00  0.00    +0.000 A 
ATOM     13 CL   UNL     1       7.266   4.432  11.657  0.00  0.00    +0.000 Cl
ATOM     14  C   UNL     1       5.796   3.684  13.792  0.00  0.00    +0.000 A 
ATOM     15  C   UNL     1       5.455   3.703  15.148  0.00  0.00    +0.000 A 
ENDBRANCH   7   9
ENDBRANCH   5   7
BRANCH   6  16
ATOM     16  O   UNL     1       4.050   2.392  18.519  0.00  0.00    +0.000 OA
ATOM     17  H   UNL     1       3.351   1.873  18.955  0.00  0.00    +0.000 HD
ENDBRANCH   6  16
BRANCH   1  18
ATOM     18  C   UNL     1       1.405   2.866  19.293  0.00  0.00    +0.000 C 
BRANCH  18  20
ATOM     19  C   UNL     1       2.168   2.694  21.684  0.00  0.00    +0.000 C 
ATOM     20  C   UNL     1       0.992   2.976  20.761  0.00  0.00    +0.000 C 
ENDBRANCH  18  20
ENDBRANCH   1  18
TORSDOF 5
ENDMDL
MODEL 6
REMARK VINA RESULT:      -6.8      4.242      5.972
REMARK  Name = 
REMARK  6 active torsions:
REMARK  status: ('A' for Active; 'I' for Inactive)
REMARK    1  A    between atoms: C_1  and  C_2
REMARK    2  A    between atoms: C_2  and  C_3
REMARK    3  A    between atoms: C_3  and  C_4
REMARK    4  A    between atoms: C_8  and  C_9
REMARK    5  A    between atoms: C_9  and  C_11
REMARK    6  A    between atoms: C_18  and  O_19
REMARK                            x       y       z     vdW  Elec       q    Type
REMARK                         _______ _______ _______ _____ _____    ______ ____
ROOT
ATOM      1  C   UNL     1       0.688   9.820  19.471  0.00  0.00    +0.000 A 
ATOM      2  C   UNL     1       0.457   9.271  20.741  0.00  0.00    +0.000 A 
ATOM      3  C   UNL     1       1.079   8.085  21.126  0.00  0.00    +0.000 A 
ATOM      4  C   UNL     1       1.948   7.439  20.249  0.00  0.00    +0.000 A 
ATOM      5  C   UNL     1       2.192   7.960  18.969  0.00  0.00    +0.000 A 
ATOM      6  C   UNL     1       1.530   9.134  18.578  0.00  0.00    +0.000 A 
ENDROOT
BRANCH   5   7
ATOM      7  C   UNL     1       3.130   7.189  18.107  0.00  0.00    +0.000 C 
ATOM      8  O   UNL     1       3.796   7.795  17.269  0.00  0.00    +0.000 OA
BRANCH   7   9
ATOM      9  C   UNL     1       3.289   5.716  18.195  0.00  0.00    +0.000 A 
ATOM     10  C   UNL     1       2.214   4.906  17.794  0.00  0.00    +0.000 A 
ATOM     11  C   UNL     1       2.305   3.515  17.895  0.00  0.00    +0.000 A 
ATOM     12  C   UNL     1       3.466   2.933  18.403  0.00  0.00    +0.000 A 
ATOM     13 CL   UNL     1       3.570   1.225  18.558  0.00  0.00    +0.000 Cl
ATOM     14  C   UNL     1       4.539   3.732  18.797  0.00  0.00    +0.000 A 
ATOM     15  C   UNL     1       4.450   5.124  18.705  0.00  0.00    +0.000 A 
ENDBRANCH   7   9
ENDBRANCH   5   7
BRANCH   6  16
ATOM     16  O   UNL     1       1.636   9.670  17.320  0.00  0.00    +0.000 OA
ATOM     17  H   UNL     1       1.395  10.612  17.355  0.00  0.00    +0.000 HD
ENDBRANCH   6  16
BRANCH   1  18
ATOM     18  C   UNL     1       0.018  11.118  19.082  0.00  0.00    +0.000 C 
BRANCH  18  20
ATOM     19  C   UNL     1      -1.858  10.203  17.677  0.00  0.00    +0.000 C 
ATOM     20  C   UNL     1      -1.497  10.978  18.936  0.00  0.00    +0.000 C 
ENDBRANCH  18  20
ENDBRANCH   1  18
TORSDOF 5
ENDMDL
MODEL 7
REMARK VINA RESULT:      -6.7      3.573      6.376
REMARK  Name = 
REMARK  6 active torsions:
REMARK  status: ('A' for Active; 'I' for Inactive)
REMARK    1  A    between atoms: C_1  and  C_2
REMARK    2  A    between atoms: C_2  and  C_3
REMARK    3  A    between atoms: C_3  and  C_4
REMARK    4  A    between atoms: C_8  and  C_9
REMARK    5  A    between atoms: C_9  and  C_11
REMARK    6  A    between atoms: C_18  and  O_19
REMARK                            x       y       z     vdW  Elec       q    Type
REMARK                         _______ _______ _______ _____ _____    ______ ____
ROOT
ATOM      1  C   UNL     1       2.210   4.261  20.445  0.00  0.00    +0.000 A 
ATOM      2  C   UNL     1       1.640   5.542  20.401  0.00  0.00    +0.000 A 
ATOM      3  C   UNL     1       2.348   6.616  19.866  0.00  0.00    +0.000 A 
ATOM      4  C   UNL     1       3.632   6.421  19.361  0.00  0.00    +0.000 A 
ATOM      5  C   UNL     1       4.232   5.153  19.400  0.00  0.00    +0.000 A 
ATOM      6  C   UNL     1       3.523   4.086  19.976  0.00  0.00    +0.000 A 
ENDROOT
BRANCH   5   7
ATOM      7  C   UNL     1       5.608   5.052  18.843  0.00  0.00    +0.000 C 
ATOM      8  O   UNL     1       6.565   5.172  19.606  0.00  0.00    +0.000 OA
BRANCH   7   9
ATOM      9  C   UNL     1       5.887   4.830  17.402  0.00  0.00    +0.000 A 
ATOM     10  C   UNL     1       4.840   4.371  16.586  0.00  0.00    +0.000 A 
ATOM     11  C   UNL     1       5.066   4.113  15.231  0.00  0.00    +0.000 A 
ATOM     12  C   UNL     1       6.337   4.306  14.692  0.00  0.00    +0.000 A 
ATOM     13 CL   UNL     1       6.625   3.959  13.034  0.00  0.00    +0.000 Cl
ATOM     14  C   UNL     1       7.379   4.768  15.496  0.00  0.00    +0.000 A 
ATOM     15  C   UNL     1       7.160   5.020  16.853  0.00  0.00    +0.000 A 
ENDBRANCH   7   9
ENDBRANCH   5   7
BRANCH   6  16
ATOM     16  O   UNL     1       4.058   2.834  20.138  0.00  0.00    +0.000 OA
ATOM     17  H   UNL     1       4.684   2.659  19.414  0.00  0.00    +0.000 HD
ENDBRANCH   6  16
BRANCH   1  18
ATOM     18  C   UNL     1       1.416   3.106  21.011  0.00  0.00    +0.000 C 
BRANCH  18  20
ATOM     19  C   UNL     1       1.015   2.796  18.546  0.00  0.00    +0.000 C 
ATOM     20  C   UNL     1       0.591   2.381  19.947  0.00  0.00    +0.000 C 
ENDBRANCH  18  20
ENDBRANCH   1  18
TORSDOF 5
ENDMDL
MODEL 8
REMARK VINA RESULT:      -6.7      3.095      6.847
REMARK  Name = 
REMARK  6 active torsions:
REMARK  status: ('A' for Active; 'I' for Inactive)
REMARK    1  A    between atoms: C_1  and  C_2
REMARK    2  A    between atoms: C_2  and  C_3
REMARK    3  A    between atoms: C_3  and  C_4
REMARK    4  A    between atoms: C_8  and  C_9
REMARK    5  A    between atoms: C_9  and  C_11
REMARK    6  A    between atoms: C_18  and  O_19
REMARK                            x       y       z     vdW  Elec       q    Type
REMARK                         _______ _______ _______ _____ _____    ______ ____
ROOT
ATOM      1  C   UNL     1       2.860   3.569  18.892  0.00  0.00    +0.000 A 
ATOM      2  C   UNL     1       1.969   4.600  18.560  0.00  0.00    +0.000 A 
ATOM      3  C   UNL     1       2.406   5.715  17.847  0.00  0.00    +0.000 A 
ATOM      4  C   UNL     1       3.739   5.807  17.450  0.00  0.00    +0.000 A 
ATOM      5  C   UNL     1       4.656   4.796  17.775  0.00  0.00    +0.000 A 
ATOM      6  C   UNL     1       4.212   3.696  18.527  0.00  0.00    +0.000 A 
ENDROOT
BRANCH   5   7
ATOM      7  C   UNL     1       6.056   4.995  17.312  0.00  0.00    +0.000 C 
ATOM      8  O   UNL     1       6.566   4.141  16.589  0.00  0.00    +0.000 OA
BRANCH   7   9
ATOM      9  C   UNL     1       6.878   6.170  17.694  0.00  0.00    +0.000 A 
ATOM     10  C   UNL     1       7.724   6.055  18.809  0.00  0.00    +0.000 A 
ATOM     11  C   UNL     1       8.489   7.147  19.228  0.00  0.00    +0.000 A 
ATOM     12  C   UNL     1       8.404   8.356  18.538  0.00  0.00    +0.000 A 
ATOM     13 CL   UNL     1       9.319   9.710  19.070  0.00  0.00    +0.000 Cl
ATOM     14  C   UNL     1       7.570   8.475  17.427  0.00  0.00    +0.000 A 
ATOM     15  C   UNL     1       6.798   7.388  17.009  0.00  0.00    +0.000 A 
ENDBRANCH   7   9
ENDBRANCH   5   7
BRANCH   6  16
ATOM     16  O   UNL     1       5.050   2.703  18.967  0.00  0.00    +0.000 OA
ATOM     17  H   UNL     1       5.251   2.852  19.907  0.00  0.00    +0.000 HD
ENDBRANCH   6  16
BRANCH   1  18
ATOM     18  C   UNL     1       2.360   2.359  19.648  0.00  0.00    +0.000 C 
BRANCH  18  20
ATOM     19  C   UNL     1       1.562   2.880  21.976  0.00  0.00    +0.000 C 
ATOM     20  C   UNL     1       1.149   2.673  20.527  0.00  0.00    +0.000 C 
ENDBRANCH  18  20
ENDBRANCH   1  18
TORSDOF 5
ENDMDL
MODEL 9
REMARK VINA RESULT:      -6.6      3.795      6.309
REMARK  Name = 
REMARK  6 active torsions:
REMARK  status: ('A' for Active; 'I' for Inactive)
REMARK    1  A    between atoms: C_1  and  C_2
REMARK    2  A    between atoms: C_2  and  C_3
REMARK    3  A    between atoms: C_3  and  C_4
REMARK    4  A    between atoms: C_8  and  C_9
REMARK    5  A    between atoms: C_9  and  C_11
REMARK    6  A    between atoms: C_18  and  O_19
REMARK                            x       y       z     vdW  Elec       q    Type
REMARK                         _______ _______ _______ _____ _____    ______ ____
ROOT
ATOM      1  C   UNL     1       2.355   4.884  18.700  0.00  0.00    +0.000 A 
ATOM      2  C   UNL     1       2.119   6.264  18.620  0.00  0.00    +0.000 A 
ATOM      3  C   UNL     1       3.093   7.123  18.116  0.00  0.00    +0.000 A 
ATOM      4  C   UNL     1       4.313   6.611  17.679  0.00  0.00    +0.000 A 
ATOM      5  C   UNL     1       4.581   5.236  17.755  0.00  0.00    +0.000 A 
ATOM      6  C   UNL     1       3.606   4.384  18.300  0.00  0.00    +0.000 A 
ENDROOT
BRANCH   5   7
ATOM      7  C   UNL     1       5.917   4.792  17.270  0.00  0.00    +0.000 C 
ATOM      8  O   UNL     1       6.785   4.517  18.098  0.00  0.00    +0.000 OA
BRANCH   7   9
ATOM      9  C   UNL     1       6.262   4.680  15.831  0.00  0.00    +0.000 A 
ATOM     10  C   UNL     1       5.382   3.981  14.989  0.00  0.00    +0.000 A 
ATOM     11  C   UNL     1       5.684   3.818  13.635  0.00  0.00    +0.000 A 
ATOM     12  C   UNL     1       6.867   4.346  13.121  0.00  0.00    +0.000 A 
ATOM     13 CL   UNL     1       7.257   4.121  11.463  0.00  0.00    +0.000 Cl
ATOM     14  C   UNL     1       7.743   5.046  13.951  0.00  0.00    +0.000 A 
ATOM     15  C   UNL     1       7.448   5.205  15.308  0.00  0.00    +0.000 A 
ENDBRANCH   7   9
ENDBRANCH   5   7
BRANCH   6  16
ATOM     16  O   UNL     1       3.810   3.043  18.497  0.00  0.00    +0.000 OA
ATOM     17  H   UNL     1       3.466   2.553  17.729  0.00  0.00    +0.000 HD
ENDBRANCH   6  16
BRANCH   1  18
ATOM     18  C   UNL     1       1.275   3.968  19.230  0.00  0.00    +0.000 C 
BRANCH  18  20
ATOM     19  C   UNL     1       1.796   2.849  21.423  0.00  0.00    +0.000 C 
ATOM     20  C   UNL     1       1.134   4.042  20.751  0.00  0.00    +0.000 C 
ENDBRANCH  18  20
ENDBRANCH   1  18
TORSDOF 5
ENDMDL
