MODEL 1
REMARK VINA RESULT:      -6.9      0.000      0.000
REMARK  Name = 
REMARK  5 active torsions:
REMARK  status: ('A' for Active; 'I' for Inactive)
REMARK    1  A    between atoms: C_1  and  C_2
REMARK    2  A    between atoms: C_6  and  O_7
REMARK    3  A    between atoms: O_7  and  C_8
REMARK    4  A    between atoms: C_8  and  C_9
REMARK    5  A    between atoms: C_14  and  C_15
REMARK                            x       y       z     vdW  Elec       q    Type
REMARK                         _______ _______ _______ _____ _____    ______ ____
ROOT
ATOM      1  C   UNL     1       0.857   2.284  19.262  0.00  0.00    +0.000 C 
ATOM      2  C   UNL     1       1.485   3.650  19.342  0.00  0.00    +0.000 A 
ATOM      3  C   UNL     1       1.188   4.472  20.438  0.00  0.00    +0.000 A 
ATOM      4  C   UNL     1       1.761   5.736  20.551  0.00  0.00    +0.000 A 
ATOM      5  C   UNL     1       2.639   6.198  19.571  0.00  0.00    +0.000 A 
ATOM      6  C   UNL     1       2.943   5.401  18.462  0.00  0.00    +0.000 A 
ATOM      7  C   UNL     1       2.372   4.117  18.341  0.00  0.00    +0.000 A 
ATOM      8  C   UNL     1       2.685   3.242  17.152  0.00  0.00    +0.000 C 
ENDROOT
BRANCH   6   9
ATOM      9  O   UNL     1       3.843   5.765  17.495  0.00  0.00    +0.000 OA
BRANCH   9  10
ATOM     10  C   UNL     1       5.151   6.147  17.934  0.00  0.00    +0.000 C 
BRANCH  10  11
ATOM     11  C   UNL     1       6.197   5.615  17.015  0.00  0.00    +0.000 A 
ATOM     12  N   UNL     1       6.553   6.242  15.849  0.00  0.00    +0.000 NA
ATOM     13  N   UNL     1       7.504   5.499  15.297  0.00  0.00    +0.000 NA
ATOM     14  N   UNL     1       7.666   4.473  16.142  0.00  0.00    +0.000 N 
ATOM     15  N   UNL     1       6.903   4.493  17.247  0.00  0.00    +0.000 NA
ATOM     16  H   UNL     1       8.335   3.729  15.958  0.00  0.00    +0.000 HD
ENDBRANCH  10  11
ENDBRANCH   9  10
ENDBRANCH   6   9
TORSDOF 3
ENDMDL
MODEL 2
REMARK VINA RESULT:      -6.7      1.280      1.565
REMARK  Name = 
REMARK  5 active torsions:
REMARK  status: ('A' for Active; 'I' for Inactive)
REMARK    1  A    between atoms: C_1  and  C_2
REMARK    2  A    between atoms: C_6  and  O_7
REMARK    3  A    between atoms: O_7  and  C_8
REMARK    4  A    between atoms: C_8  and  C_9
REMARK    5  A    between atoms: C_14  and  C_15
REMARK                            x       y       z     vdW  Elec       q    Type
REMARK                         _______ _______ _______ _____ _____    ______ ____
ROOT
ATOM      1  C   UNL     1       1.325   2.873  21.040  0.00  0.00    +0.000 C 
ATOM      2  C   UNL     1       1.973   3.937  20.194  0.00  0.00    +0.000 A 
ATOM      3  C   UNL     1       1.760   5.285  20.515  0.00  0.00    +0.000 A 
ATOM      4  C   UNL     1       2.353   6.295  19.762  0.00  0.00    +0.000 A 
ATOM      5  C   UNL     1       3.169   5.974  18.677  0.00  0.00    +0.000 A 
ATOM      6  C   UNL     1       3.389   4.636  18.331  0.00  0.00    +0.000 A 
ATOM      7  C   UNL     1       2.797   3.606  19.090  0.00  0.00    +0.000 A 
ATOM      8  C   UNL     1       3.019   2.157  18.731  0.00  0.00    +0.000 C 
ENDROOT
BRANCH   6   9
ATOM      9  O   UNL     1       4.228   4.247  17.319  0.00  0.00    +0.000 OA
BRANCH   9  10
ATOM     10  C   UNL     1       5.624   4.517  17.489  0.00  0.00    +0.000 C 
BRANCH  10  11
ATOM     11  C   UNL     1       6.298   4.682  16.170  0.00  0.00    +0.000 A 
ATOM     12  N   UNL     1       5.998   3.910  15.078  0.00  0.00    +0.000 NA
ATOM     13  N   UNL     1       6.778   4.332  14.092  0.00  0.00    +0.000 NA
ATOM     14  N   UNL     1       7.504   5.319  14.632  0.00  0.00    +0.000 N 
ATOM     15  N   UNL     1       7.240   5.609  15.917  0.00  0.00    +0.000 NA
ATOM     16  H   UNL     1       8.206   5.821  14.095  0.00  0.00    +0.000 HD
ENDBRANCH  10  11
ENDBRANCH   9  10
ENDBRANCH   6   9
TORSDOF 3
ENDMDL
MODEL 3
REMARK VINA RESULT:      -6.6      2.060      2.759
REMARK  Name = 
REMARK  5 active torsions:
REMARK  status: ('A' for Active; 'I' for Inactive)
REMARK    1  A    between atoms: C_1  and  C_2
REMARK    2  A    between atoms: C_6  and  O_7
REMARK    3  A    between atoms: O_7  and  C_8
REMARK    4  A    between atoms: C_8  and  C_9
REMARK    5  A    between atoms: C_14  and  C_15
REMARK                            x       y       z     vdW  Elec       q    Type
REMARK                         _______ _______ _______ _____ _____    ______ ____
ROOT
ATOM      1  C   UNL     1       1.638   2.436  21.464  0.00  0.00    +0.000 C 
ATOM      2  C   UNL     1       1.988   3.014  20.119  0.00  0.00    +0.000 A 
ATOM      3  C   UNL     1       0.981   3.628  19.359  0.00  0.00    +0.000 A 
ATOM      4  C   UNL     1       1.271   4.184  18.116  0.00  0.00    +0.000 A 
ATOM      5  C   UNL     1       2.572   4.137  17.613  0.00  0.00    +0.000 A 
ATOM      6  C   UNL     1       3.591   3.522  18.347  0.00  0.00    +0.000 A 
ATOM      7  C   UNL     1       3.308   2.960  19.610  0.00  0.00    +0.000 A 
ATOM      8  C   UNL     1       4.393   2.289  20.416  0.00  0.00    +0.000 C 
ENDROOT
BRANCH   6   9
ATOM      9  O   UNL     1       4.901   3.494  17.943  0.00  0.00    +0.000 OA
BRANCH   9  10
ATOM     10  C   UNL     1       5.454   4.717  17.445  0.00  0.00    +0.000 C 
BRANCH  10  11
ATOM     11  C   UNL     1       6.519   5.228  18.354  0.00  0.00    +0.000 A 
ATOM     12  N   UNL     1       6.571   4.918  19.689  0.00  0.00    +0.000 NA
ATOM     13  N   UNL     1       7.639   5.535  20.178  0.00  0.00    +0.000 NA
ATOM     14  N   UNL     1       8.166   6.183  19.131  0.00  0.00    +0.000 N 
ATOM     15  N   UNL     1       7.535   6.016  17.957  0.00  0.00    +0.000 NA
ATOM     16  H   UNL     1       8.999   6.757  19.223  0.00  0.00    +0.000 HD
ENDBRANCH  10  11
ENDBRANCH   9  10
ENDBRANCH   6   9
TORSDOF 3
ENDMDL
MODEL 4
REMARK VINA RESULT:      -6.6      0.939      2.183
REMARK  Name = 
REMARK  5 active torsions:
REMARK  status: ('A' for Active; 'I' for Inactive)
REMARK    1  A    between atoms: C_1  and  C_2
REMARK    2  A    between atoms: C_6  and  O_7
REMARK    3  A    between atoms: O_7  and  C_8
REMARK    4  A    between atoms: C_8  and  C_9
REMARK    5  A    between atoms: C_14  and  C_15
REMARK                            x       y       z     vdW  Elec       q    Type
REMARK                         _______ _______ _______ _____ _____    ______ ____
ROOT
ATOM      1  C   UNL     1       1.105   3.223  20.866  0.00  0.00    +0.000 C 
ATOM      2  C   UNL     1       2.000   3.232  19.655  0.00  0.00    +0.000 A 
ATOM      3  C   UNL     1       2.200   2.038  18.948  0.00  0.00    +0.000 A 
ATOM      4  C   UNL     1       3.010   2.012  17.816  0.00  0.00    +0.000 A 
ATOM      5  C   UNL     1       3.634   3.179  17.373  0.00  0.00    +0.000 A 
ATOM      6  C   UNL     1       3.458   4.381  18.067  0.00  0.00    +0.000 A 
ATOM      7  C   UNL     1       2.634   4.418  19.212  0.00  0.00    +0.000 A 
ATOM      8  C   UNL     1       2.434   5.704  19.976  0.00  0.00    +0.000 C 
ENDROOT
BRANCH   6   9
ATOM      9  O   UNL     1       3.987   5.575  17.654  0.00  0.00    +0.000 OA
BRANCH   9  10
ATOM     10  C   UNL     1       5.381   5.790  17.902  0.00  0.00    +0.000 C 
BRANCH  10  11
ATOM     11  C   UNL     1       6.186   5.529  16.675  0.00  0.00    +0.000 A 
ATOM     12  N   UNL     1       5.781   5.914  15.423  0.00  0.00    +0.000 NA
ATOM     13  N   UNL     1       6.733   5.527  14.584  0.00  0.00    +0.000 NA
ATOM     14  N   UNL     1       7.648   4.931  15.359  0.00  0.00    +0.000 N 
ATOM     15  N   UNL     1       7.385   4.918  16.676  0.00  0.00    +0.000 NA
ATOM     16  H   UNL     1       8.493   4.522  14.970  0.00  0.00    +0.000 HD
ENDBRANCH  10  11
ENDBRANCH   9  10
ENDBRANCH   6   9
TORSDOF 3
ENDMDL
MODEL 5
REMARK VINA RESULT:      -6.6      1.923      3.411
REMARK  Name = 
REMARK  5 active torsions:
REMARK  status: ('A' for Active; 'I' for Inactive)
REMARK    1  A    between atoms: C_1  and  C_2
REMARK    2  A    between atoms: C_6  and  O_7
REMARK    3  A    between atoms: O_7  and  C_8
REMARK    4  A    between atoms: C_8  and  C_9
REMARK    5  A    between atoms: C_14  and  C_15
REMARK                            x       y       z     vdW  Elec       q    Type
REMARK                         _______ _______ _______ _____ _____    ______ ____
ROOT
ATOM      1  C   UNL     1       2.575   7.655  18.157  0.00  0.00    +0.000 C 
ATOM      2  C   UNL     1       2.958   6.230  17.858  0.00  0.00    +0.000 A 
ATOM      3  C   UNL     1       2.003   5.218  18.033  0.00  0.00    +0.000 A 
ATOM      4  C   UNL     1       2.318   3.891  17.754  0.00  0.00    +0.000 A 
ATOM      5  C   UNL     1       3.592   3.554  17.296  0.00  0.00    +0.000 A 
ATOM      6  C   UNL     1       4.565   4.544  17.123  0.00  0.00    +0.000 A 
ATOM      7  C   UNL     1       4.254   5.892  17.398  0.00  0.00    +0.000 A 
ATOM      8  C   UNL     1       5.290   6.975  17.221  0.00  0.00    +0.000 C 
ENDROOT
BRANCH   6   9
ATOM      9  O   UNL     1       5.814   4.294  16.618  0.00  0.00    +0.000 OA
BRANCH   9  10
ATOM     10  C   UNL     1       5.884   3.608  15.363  0.00  0.00    +0.000 C 
BRANCH  10  11
ATOM     11  C   UNL     1       6.742   4.351  14.397  0.00  0.00    +0.000 A 
ATOM     12  N   UNL     1       6.716   4.119  13.046  0.00  0.00    +0.000 NA
ATOM     13  N   UNL     1       7.594   4.953  12.504  0.00  0.00    +0.000 NA
ATOM     14  N   UNL     1       8.103   5.631  13.540  0.00  0.00    +0.000 N 
ATOM     15  N   UNL     1       7.600   5.326  14.747  0.00  0.00    +0.000 NA
ATOM     16  H   UNL     1       8.821   6.339  13.414  0.00  0.00    +0.000 HD
ENDBRANCH  10  11
ENDBRANCH   9  10
ENDBRANCH   6   9
TORSDOF 3
ENDMDL
MODEL 6
REMARK VINA RESULT:      -6.6      4.203      6.091
REMARK  Name = 
REMARK  5 active torsions:
REMARK  status: ('A' for Active; 'I' for Inactive)
REMARK    1  A    between atoms: C_1  and  C_2
REMARK    2  A    between atoms: C_6  and  O_7
REMARK    3  A    between atoms: O_7  and  C_8
REMARK    4  A    between atoms: C_8  and  C_9
REMARK    5  A    between atoms: C_14  and  C_15
REMARK                            x       y       z     vdW  Elec       q    Type
REMARK                         _______ _______ _______ _____ _____    ______ ____
ROOT
ATOM      1  C   UNL     1       7.396   6.862  17.002  0.00  0.00    +0.000 C 
ATOM      2  C   UNL     1       6.359   5.778  17.129  0.00  0.00    +0.000 A 
ATOM      3  C   UNL     1       5.611   5.416  16.000  0.00  0.00    +0.000 A 
ATOM      4  C   UNL     1       4.653   4.409  16.078  0.00  0.00    +0.000 A 
ATOM      5  C   UNL     1       4.428   3.748  17.285  0.00  0.00    +0.000 A 
ATOM      6  C   UNL     1       5.154   4.097  18.428  0.00  0.00    +0.000 A 
ATOM      7  C   UNL     1       6.131   5.113  18.358  0.00  0.00    +0.000 A 
ATOM      8  C   UNL     1       6.923   5.507  19.581  0.00  0.00    +0.000 C 
ENDROOT
BRANCH   6   9
ATOM      9  O   UNL     1       5.030   3.448  19.629  0.00  0.00    +0.000 OA
BRANCH   9  10
ATOM     10  C   UNL     1       4.189   2.290  19.659  0.00  0.00    +0.000 C 
BRANCH  10  11
ATOM     11  C   UNL     1       2.942   2.557  20.429  0.00  0.00    +0.000 A 
ATOM     12  N   UNL     1       2.865   2.425  21.792  0.00  0.00    +0.000 NA
ATOM     13  N   UNL     1       1.623   2.744  22.132  0.00  0.00    +0.000 NA
ATOM     14  N   UNL     1       1.020   3.043  20.974  0.00  0.00    +0.000 N 
ATOM     15  N   UNL     1       1.788   2.973  19.875  0.00  0.00    +0.000 NA
ATOM     16  H   UNL     1       0.041   3.314  20.936  0.00  0.00    +0.000 HD
ENDBRANCH  10  11
ENDBRANCH   9  10
ENDBRANCH   6   9
TORSDOF 3
ENDMDL
MODEL 7
REMARK VINA RESULT:      -6.5      1.500      1.699
REMARK  Name = 
REMARK  5 active torsions:
REMARK  status: ('A' for Active; 'I' for Inactive)
REMARK    1  A    between atoms: C_1  and  C_2
REMARK    2  A    between atoms: C_6  and  O_7
REMARK    3  A    between atoms: O_7  and  C_8
REMARK    4  A    between atoms: C_8  and  C_9
REMARK    5  A    between atoms: C_14  and  C_15
REMARK                            x       y       z     vdW  Elec       q    Type
REMARK                         _______ _______ _______ _____ _____    ______ ____
ROOT
ATOM      1  C   UNL     1       1.421   2.741  21.501  0.00  0.00    +0.000 C 
ATOM      2  C   UNL     1       2.091   3.780  20.643  0.00  0.00    +0.000 A 
ATOM      3  C   UNL     1       1.648   5.109  20.712  0.00  0.00    +0.000 A 
ATOM      4  C   UNL     1       2.254   6.099  19.943  0.00  0.00    +0.000 A 
ATOM      5  C   UNL     1       3.311   5.776  19.092  0.00  0.00    +0.000 A 
ATOM      6  C   UNL     1       3.765   4.457  18.998  0.00  0.00    +0.000 A 
ATOM      7  C   UNL     1       3.161   3.448  19.777  0.00  0.00    +0.000 A 
ATOM      8  C   UNL     1       3.634   2.017  19.688  0.00  0.00    +0.000 C 
ENDROOT
BRANCH   6   9
ATOM      9  O   UNL     1       4.838   4.080  18.232  0.00  0.00    +0.000 OA
BRANCH   9  10
ATOM     10  C   UNL     1       4.690   4.179  16.811  0.00  0.00    +0.000 C 
BRANCH  10  11
ATOM     11  C   UNL     1       5.908   4.770  16.190  0.00  0.00    +0.000 A 
ATOM     12  N   UNL     1       6.545   5.872  16.701  0.00  0.00    +0.000 NA
ATOM     13  N   UNL     1       7.579   6.111  15.905  0.00  0.00    +0.000 NA
ATOM     14  N   UNL     1       7.512   5.162  14.964  0.00  0.00    +0.000 N 
ATOM     15  N   UNL     1       6.510   4.275  15.093  0.00  0.00    +0.000 NA
ATOM     16  H   UNL     1       8.185   5.113  14.204  0.00  0.00    +0.000 HD
ENDBRANCH  10  11
ENDBRANCH   9  10
ENDBRANCH   6   9
TORSDOF 3
ENDMDL
MODEL 8
REMARK VINA RESULT:      -6.5      1.593      2.035
REMARK  Name = 
REMARK  5 active torsions:
REMARK  status: ('A' for Active; 'I' for Inactive)
REMARK    1  A    between atoms: C_1  and  C_2
REMARK    2  A    between atoms: C_6  and  O_7
REMARK    3  A    between atoms: O_7  and  C_8
REMARK    4  A    between atoms: C_8  and  C_9
REMARK    5  A    between atoms: C_14  and  C_15
REMARK                            x       y       z     vdW  Elec       q    Type
REMARK                         _______ _______ _______ _____ _____    ______ ____
ROOT
ATOM      1  C   UNL     1       1.635   2.488  21.376  0.00  0.00    +0.000 C 
ATOM      2  C   UNL     1       2.077   3.089  20.068  0.00  0.00    +0.000 A 
ATOM      3  C   UNL     1       1.132   3.747  19.268  0.00  0.00    +0.000 A 
ATOM      4  C   UNL     1       1.508   4.325  18.059  0.00  0.00    +0.000 A 
ATOM      5  C   UNL     1       2.834   4.256  17.630  0.00  0.00    +0.000 A 
ATOM      6  C   UNL     1       3.793   3.596  18.406  0.00  0.00    +0.000 A 
ATOM      7  C   UNL     1       3.423   3.011  19.635  0.00  0.00    +0.000 A 
ATOM      8  C   UNL     1       4.442   2.293  20.485  0.00  0.00    +0.000 C 
ENDROOT
BRANCH   6   9
ATOM      9  O   UNL     1       5.123   3.544  18.078  0.00  0.00    +0.000 OA
BRANCH   9  10
ATOM     10  C   UNL     1       5.831   4.787  18.031  0.00  0.00    +0.000 C 
BRANCH  10  11
ATOM     11  C   UNL     1       6.426   5.009  16.682  0.00  0.00    +0.000 A 
ATOM     12  N   UNL     1       5.768   5.674  15.679  0.00  0.00    +0.000 NA
ATOM     13  N   UNL     1       6.588   5.688  14.636  0.00  0.00    +0.000 NA
ATOM     14  N   UNL     1       7.679   5.034  15.053  0.00  0.00    +0.000 N 
ATOM     15  N   UNL     1       7.658   4.606  16.326  0.00  0.00    +0.000 NA
ATOM     16  H   UNL     1       8.477   4.882  14.442  0.00  0.00    +0.000 HD
ENDBRANCH  10  11
ENDBRANCH   9  10
ENDBRANCH   6   9
TORSDOF 3
ENDMDL
MODEL 9
REMARK VINA RESULT:      -6.5      0.875      1.084
REMARK  Name = 
REMARK  5 active torsions:
REMARK  status: ('A' for Active; 'I' for Inactive)
REMARK    1  A    between atoms: C_1  and  C_2
REMARK    2  A    between atoms: C_6  and  O_7
REMARK    3  A    between atoms: O_7  and  C_8
REMARK    4  A    between atoms: C_8  and  C_9
REMARK    5  A    between atoms: C_14  and  C_15
REMARK                            x       y       z     vdW  Elec       q    Type
REMARK                         _______ _______ _______ _____ _____    ______ ____
ROOT
ATOM      1  C   UNL     1       2.131   2.215  19.521  0.00  0.00    +0.000 C 
ATOM      2  C   UNL     1       2.352   3.696  19.363  0.00  0.00    +0.000 A 
ATOM      3  C   UNL     1       1.810   4.570  20.315  0.00  0.00    +0.000 A 
ATOM      4  C   UNL     1       2.005   5.945  20.208  0.00  0.00    +0.000 A 
ATOM      5  C   UNL     1       2.746   6.467  19.147  0.00  0.00    +0.000 A 
ATOM      6  C   UNL     1       3.289   5.616  18.179  0.00  0.00    +0.000 A 
ATOM      7  C   UNL     1       3.101   4.222  18.282  0.00  0.00    +0.000 A 
ATOM      8  C   UNL     1       3.676   3.287  17.246  0.00  0.00    +0.000 C 
ENDROOT
BRANCH   6   9
ATOM      9  O   UNL     1       4.078   6.053  17.147  0.00  0.00    +0.000 OA
BRANCH   9  10
ATOM     10  C   UNL     1       5.331   6.653  17.495  0.00  0.00    +0.000 C 
BRANCH  10  11
ATOM     11  C   UNL     1       6.420   5.636  17.519  0.00  0.00    +0.000 A 
ATOM     12  N   UNL     1       7.126   5.274  16.401  0.00  0.00    +0.000 NA
ATOM     13  N   UNL     1       8.006   4.361  16.791  0.00  0.00    +0.000 NA
ATOM     14  N   UNL     1       7.785   4.215  18.104  0.00  0.00    +0.000 N 
ATOM     15  N   UNL     1       6.828   4.997  18.630  0.00  0.00    +0.000 NA
ATOM     16  H   UNL     1       8.319   3.557  18.665  0.00  0.00    +0.000 HD
ENDBRANCH  10  11
ENDBRANCH   9  10
ENDBRANCH   6   9
TORSDOF 3
ENDMDL
