MODEL 1
REMARK VINA RESULT:      -8.2      0.000      0.000
REMARK  Name = 
REMARK  8 active torsions:
REMARK  status: ('A' for Active; 'I' for Inactive)
REMARK    1  A    between atoms: C_1  and  O_2
REMARK    2  A    between atoms: O_2  and  C_3
REMARK    3  A    between atoms: C_9  and  N_10
REMARK    4  A    between atoms: C_11  and  C_13
REMARK    5  A    between atoms: C_13  and  C_14
REMARK    6  A    between atoms: N_16  and  C_17
REMARK    7  A    between atoms: C_17  and  C_18
REMARK    8  A    between atoms: C_18  and  O_20
REMARK                            x       y       z     vdW  Elec       q    Type
REMARK                         _______ _______ _______ _____ _____    ______ ____
ROOT
ATOM      1  C   UNL     1       3.118   5.943  18.267  0.00  0.00    +0.000 A 
ATOM      2  N   UNL     1       2.503   4.926  18.796  0.00  0.00    +0.000 NA
ATOM      3  N   UNL     1       3.220   3.821  19.172  0.00  0.00    +0.000 N 
ATOM      4  C   UNL     1       4.607   3.745  19.148  0.00  0.00    +0.000 A 
ATOM      5  O   UNL     1       5.238   2.787  19.583  0.00  0.00    +0.000 OA
ATOM      6  C   UNL     1       5.319   4.893  18.558  0.00  0.00    +0.000 A 
ATOM      7  C   UNL     1       6.718   4.868  18.472  0.00  0.00    +0.000 A 
ATOM      8  C   UNL     1       7.395   5.917  17.855  0.00  0.00    +0.000 A 
ATOM      9  C   UNL     1       6.673   6.978  17.315  0.00  0.00    +0.000 A 
ATOM     10  C   UNL     1       5.274   7.012  17.415  0.00  0.00    +0.000 A 
ATOM     11  C   UNL     1       4.593   5.969  18.058  0.00  0.00    +0.000 A 
ENDROOT
BRANCH   1  12
ATOM     12  C   UNL     1       2.250   7.135  17.908  0.00  0.00    +0.000 C 
BRANCH  12  14
ATOM     13  N   UNL     1       1.301   9.227  18.771  0.00  0.00    +0.000 N 
ATOM     14  C   UNL     1       1.943   8.036  19.083  0.00  0.00    +0.000 C 
ATOM     15  O   UNL     1       2.251   7.657  20.211  0.00  0.00    +0.000 OA
ATOM     16  H   UNL     1       0.973   9.379  17.821  0.00  0.00    +0.000 HD
BRANCH  13  23
ATOM     17  C   UNL     1       1.257  11.583  19.463  0.00  0.00    +0.000 A 
ATOM     18  C   UNL     1       0.791  12.586  20.333  0.00  0.00    +0.000 A 
ATOM     19  C   UNL     1       0.040  12.257  21.461  0.00  0.00    +0.000 A 
ATOM     20  C   UNL     1      -0.245  10.927  21.728  0.00  0.00    +0.000 A 
ATOM     21 CL   UNL     1      -1.134  10.514  23.143  0.00  0.00    +0.000 Cl
ATOM     22  C   UNL     1       0.179   9.923  20.858  0.00  0.00    +0.000 A 
ATOM     23  C   UNL     1       0.904  10.231  19.703  0.00  0.00    +0.000 A 
BRANCH  17  25
ATOM     24  C   UNL     1       2.460  13.209  18.215  0.00  0.00    +0.000 C 
ATOM     25  O   UNL     1       2.028  11.851  18.353  0.00  0.00    +0.000 OA
ENDBRANCH  17  25
ENDBRANCH  13  23
ENDBRANCH  12  14
ENDBRANCH   1  12
BRANCH   3  26
ATOM     26  C   UNL     1       2.444   2.635  19.550  0.00  0.00    +0.000 C 
BRANCH  26  27
ATOM     27  C   UNL     1       0.941   2.815  19.409  0.00  0.00    +0.000 C 
ATOM     28  O   UNL     1       0.279   2.260  18.541  0.00  0.00    +0.000 OA
BRANCH  27  29
ATOM     29  O   UNL     1       0.385   3.679  20.291  0.00  0.00    +0.000 OA
ATOM     30  H   UNL     1      -0.583   3.541  20.330  0.00  0.00    +0.000 HD
ENDBRANCH  27  29
ENDBRANCH  26  27
ENDBRANCH   3  26
TORSDOF 7
ENDMDL
MODEL 2
REMARK VINA RESULT:      -8.0      1.792      2.088
REMARK  Name = 
REMARK  8 active torsions:
REMARK  status: ('A' for Active; 'I' for Inactive)
REMARK    1  A    between atoms: C_1  and  O_2
REMARK    2  A    between atoms: O_2  and  C_3
REMARK    3  A    between atoms: C_9  and  N_10
REMARK    4  A    between atoms: C_11  and  C_13
REMARK    5  A    between atoms: C_13  and  C_14
REMARK    6  A    between atoms: N_16  and  C_17
REMARK    7  A    between atoms: C_17  and  C_18
REMARK    8  A    between atoms: C_18  and  O_20
REMARK                            x       y       z     vdW  Elec       q    Type
REMARK                         _______ _______ _______ _____ _____    ______ ____
ROOT
ATOM      1  C   UNL     1       3.430   6.552  17.958  0.00  0.00    +0.000 A 
ATOM      2  N   UNL     1       2.599   5.727  18.523  0.00  0.00    +0.000 NA
ATOM      3  N   UNL     1       3.071   4.578  19.100  0.00  0.00    +0.000 N 
ATOM      4  C   UNL     1       4.419   4.274  19.244  0.00  0.00    +0.000 A 
ATOM      5  O   UNL     1       4.827   3.289  19.854  0.00  0.00    +0.000 OA
ATOM      6  C   UNL     1       5.374   5.203  18.616  0.00  0.00    +0.000 A 
ATOM      7  C   UNL     1       6.749   4.938  18.695  0.00  0.00    +0.000 A 
ATOM      8  C   UNL     1       7.655   5.773  18.047  0.00  0.00    +0.000 A 
ATOM      9  C   UNL     1       7.186   6.859  17.312  0.00  0.00    +0.000 A 
ATOM     10  C   UNL     1       5.812   7.133  17.246  0.00  0.00    +0.000 A 
ATOM     11  C   UNL     1       4.900   6.309  17.918  0.00  0.00    +0.000 A 
ENDROOT
BRANCH   1  12
ATOM     12  C   UNL     1       2.824   7.813  17.371  0.00  0.00    +0.000 C 
BRANCH  12  14
ATOM     13  N   UNL     1       1.306   9.687  17.824  0.00  0.00    +0.000 N 
ATOM     14  C   UNL     1       1.971   8.588  18.350  0.00  0.00    +0.000 C 
ATOM     15  O   UNL     1       1.904   8.193  19.512  0.00  0.00    +0.000 OA
ATOM     16  H   UNL     1       1.326   9.845  16.820  0.00  0.00    +0.000 HD
BRANCH  13  23
ATOM     17  C   UNL     1      -0.951  10.538  18.285  0.00  0.00    +0.000 A 
ATOM     18  C   UNL     1      -1.814  11.337  19.055  0.00  0.00    +0.000 A 
ATOM     19  C   UNL     1      -1.308  12.200  20.027  0.00  0.00    +0.000 A 
ATOM     20  C   UNL     1       0.062  12.272  20.231  0.00  0.00    +0.000 A 
ATOM     21 CL   UNL     1       0.692  13.368  21.397  0.00  0.00    +0.000 Cl
ATOM     22  C   UNL     1       0.929  11.462  19.500  0.00  0.00    +0.000 A 
ATOM     23  C   UNL     1       0.443  10.565  18.544  0.00  0.00    +0.000 A 
BRANCH  17  25
ATOM     24  C   UNL     1      -2.393  10.237  16.420  0.00  0.00    +0.000 C 
ATOM     25  O   UNL     1      -1.396   9.693  17.293  0.00  0.00    +0.000 OA
ENDBRANCH  17  25
ENDBRANCH  13  23
ENDBRANCH  12  14
ENDBRANCH   1  12
BRANCH   3  26
ATOM     26  C   UNL     1       2.066   3.594  19.517  0.00  0.00    +0.000 C 
BRANCH  26  27
ATOM     27  C   UNL     1       1.339   2.931  18.359  0.00  0.00    +0.000 C 
ATOM     28  O   UNL     1       0.347   2.228  18.503  0.00  0.00    +0.000 OA
BRANCH  27  29
ATOM     29  O   UNL     1       1.901   3.136  17.143  0.00  0.00    +0.000 OA
ATOM     30  H   UNL     1       2.613   2.482  16.989  0.00  0.00    +0.000 HD
ENDBRANCH  27  29
ENDBRANCH  26  27
ENDBRANCH   3  26
TORSDOF 7
ENDMDL
MODEL 3
REMARK VINA RESULT:      -8.0      1.758      2.411
REMARK  Name = 
REMARK  8 active torsions:
REMARK  status: ('A' for Active; 'I' for Inactive)
REMARK    1  A    between atoms: C_1  and  O_2
REMARK    2  A    between atoms: O_2  and  C_3
REMARK    3  A    between atoms: C_9  and  N_10
REMARK    4  A    between atoms: C_11  and  C_13
REMARK    5  A    between atoms: C_13  and  C_14
REMARK    6  A    between atoms: N_16  and  C_17
REMARK    7  A    between atoms: C_17  and  C_18
REMARK    8  A    between atoms: C_18  and  O_20
REMARK                            x       y       z     vdW  Elec       q    Type
REMARK                         _______ _______ _______ _____ _____    ______ ____
ROOT
ATOM      1  C   UNL     1       2.964   5.749  18.159  0.00  0.00    +0.000 A 
ATOM      2  N   UNL     1       2.412   4.751  18.783  0.00  0.00    +0.000 NA
ATOM      3  N   UNL     1       3.197   3.746  19.282  0.00  0.00    +0.000 N 
ATOM      4  C   UNL     1       4.587   3.769  19.286  0.00  0.00    +0.000 A 
ATOM      5  O   UNL     1       5.275   2.910  19.828  0.00  0.00    +0.000 OA
ATOM      6  C   UNL     1       5.227   4.899  18.589  0.00  0.00    +0.000 A 
ATOM      7  C   UNL     1       6.626   4.967  18.526  0.00  0.00    +0.000 A 
ATOM      8  C   UNL     1       7.240   5.993  17.812  0.00  0.00    +0.000 A 
ATOM      9  C   UNL     1       6.456   6.937  17.154  0.00  0.00    +0.000 A 
ATOM     10  C   UNL     1       5.057   6.878  17.229  0.00  0.00    +0.000 A 
ATOM     11  C   UNL     1       4.438   5.861  17.968  0.00  0.00    +0.000 A 
ENDROOT
BRANCH   1  12
ATOM     12  C   UNL     1       2.022   6.831  17.664  0.00  0.00    +0.000 C 
BRANCH  12  14
ATOM     13  N   UNL     1       1.604   9.239  17.883  0.00  0.00    +0.000 N 
ATOM     14  C   UNL     1       2.035   8.081  18.515  0.00  0.00    +0.000 C 
ATOM     15  O   UNL     1       2.393   7.990  19.688  0.00  0.00    +0.000 OA
ATOM     16  H   UNL     1       1.203   9.176  16.951  0.00  0.00    +0.000 HD
BRANCH  13  23
ATOM     17  C   UNL     1       0.552  10.779  19.481  0.00  0.00    +0.000 A 
ATOM     18  C   UNL     1       0.526  12.026  20.130  0.00  0.00    +0.000 A 
ATOM     19  C   UNL     1       1.402  13.043  19.753  0.00  0.00    +0.000 A 
ATOM     20  C   UNL     1       2.304  12.821  18.723  0.00  0.00    +0.000 A 
ATOM     21 CL   UNL     1       3.356  14.089  18.225  0.00  0.00    +0.000 Cl
ATOM     22  C   UNL     1       2.366  11.580  18.092  0.00  0.00    +0.000 A 
ATOM     23  C   UNL     1       1.521  10.534  18.476  0.00  0.00    +0.000 A 
BRANCH  17  25
ATOM     24  C   UNL     1      -0.364   9.390  21.178  0.00  0.00    +0.000 C 
ATOM     25  O   UNL     1      -0.311   9.752  19.794  0.00  0.00    +0.000 OA
ENDBRANCH  17  25
ENDBRANCH  13  23
ENDBRANCH  12  14
ENDBRANCH   1  12
BRANCH   3  26
ATOM     26  C   UNL     1       2.500   2.552  19.772  0.00  0.00    +0.000 C 
BRANCH  26  27
ATOM     27  C   UNL     1       1.473   2.842  20.854  0.00  0.00    +0.000 C 
ATOM     28  O   UNL     1       1.656   2.587  22.038  0.00  0.00    +0.000 OA
BRANCH  27  29
ATOM     29  O   UNL     1       0.307   3.368  20.407  0.00  0.00    +0.000 OA
ATOM     30  H   UNL     1       0.460   4.268  20.053  0.00  0.00    +0.000 HD
ENDBRANCH  27  29
ENDBRANCH  26  27
ENDBRANCH   3  26
TORSDOF 7
ENDMDL
MODEL 4
REMARK VINA RESULT:      -7.9      2.569      4.269
REMARK  Name = 
REMARK  8 active torsions:
REMARK  status: ('A' for Active; 'I' for Inactive)
REMARK    1  A    between atoms: C_1  and  O_2
REMARK    2  A    between atoms: O_2  and  C_3
REMARK    3  A    between atoms: C_9  and  N_10
REMARK    4  A    between atoms: C_11  and  C_13
REMARK    5  A    between atoms: C_13  and  C_14
REMARK    6  A    between atoms: N_16  and  C_17
REMARK    7  A    between atoms: C_17  and  C_18
REMARK    8  A    between atoms: C_18  and  O_20
REMARK                            x       y       z     vdW  Elec       q    Type
REMARK                         _______ _______ _______ _____ _____    ______ ____
ROOT
ATOM      1  C   UNL     1       3.093   6.207  18.821  0.00  0.00    +0.000 A 
ATOM      2  N   UNL     1       4.117   6.479  18.068  0.00  0.00    +0.000 NA
ATOM      3  N   UNL     1       4.646   5.503  17.265  0.00  0.00    +0.000 N 
ATOM      4  C   UNL     1       4.083   4.244  17.093  0.00  0.00    +0.000 A 
ATOM      5  O   UNL     1       4.511   3.417  16.293  0.00  0.00    +0.000 OA
ATOM      6  C   UNL     1       2.916   3.924  17.935  0.00  0.00    +0.000 A 
ATOM      7  C   UNL     1       2.320   2.659  17.835  0.00  0.00    +0.000 A 
ATOM      8  C   UNL     1       1.260   2.324  18.674  0.00  0.00    +0.000 A 
ATOM      9  C   UNL     1       0.811   3.245  19.617  0.00  0.00    +0.000 A 
ATOM     10  C   UNL     1       1.397   4.516  19.706  0.00  0.00    +0.000 A 
ATOM     11  C   UNL     1       2.447   4.865  18.845  0.00  0.00    +0.000 A 
ENDROOT
BRANCH   1  12
ATOM     12  C   UNL     1       2.555   7.355  19.655  0.00  0.00    +0.000 C 
BRANCH  12  14
ATOM     13  N   UNL     1       0.917   9.182  19.581  0.00  0.00    +0.000 N 
ATOM     14  C   UNL     1       1.783   8.378  18.852  0.00  0.00    +0.000 C 
ATOM     15  O   UNL     1       1.984   8.447  17.640  0.00  0.00    +0.000 OA
ATOM     16  H   UNL     1       0.929   9.130  20.596  0.00  0.00    +0.000 HD
BRANCH  13  23
ATOM     17  C   UNL     1       0.423  11.571  19.303  0.00  0.00    +0.000 A 
ATOM     18  C   UNL     1      -0.337  12.594  18.708  0.00  0.00    +0.000 A 
ATOM     19  C   UNL     1      -1.449  12.290  17.923  0.00  0.00    +0.000 A 
ATOM     20  C   UNL     1      -1.810  10.964  17.734  0.00  0.00    +0.000 A 
ATOM     21 CL   UNL     1      -3.207  10.587  16.803  0.00  0.00    +0.000 Cl
ATOM     22  C   UNL     1      -1.047   9.937  18.288  0.00  0.00    +0.000 A 
ATOM     23  C   UNL     1       0.091  10.216  19.050  0.00  0.00    +0.000 A 
BRANCH  17  25
ATOM     24  C   UNL     1       2.093  13.120  19.981  0.00  0.00    +0.000 C 
ATOM     25  O   UNL     1       1.511  11.818  20.111  0.00  0.00    +0.000 OA
ENDBRANCH  17  25
ENDBRANCH  13  23
ENDBRANCH  12  14
ENDBRANCH   1  12
BRANCH   3  26
ATOM     26  C   UNL     1       5.925   5.810  16.616  0.00  0.00    +0.000 C 
BRANCH  26  27
ATOM     27  C   UNL     1       7.138   5.327  17.394  0.00  0.00    +0.000 C 
ATOM     28  O   UNL     1       7.924   4.494  16.961  0.00  0.00    +0.000 OA
BRANCH  27  29
ATOM     29  O   UNL     1       7.267   5.856  18.635  0.00  0.00    +0.000 OA
ATOM     30  H   UNL     1       8.078   5.512  19.062  0.00  0.00    +0.000 HD
ENDBRANCH  27  29
ENDBRANCH  26  27
ENDBRANCH   3  26
TORSDOF 7
ENDMDL
MODEL 5
REMARK VINA RESULT:      -7.9      2.252      2.449
REMARK  Name = 
REMARK  8 active torsions:
REMARK  status: ('A' for Active; 'I' for Inactive)
REMARK    1  A    between atoms: C_1  and  O_2
REMARK    2  A    between atoms: O_2  and  C_3
REMARK    3  A    between atoms: C_9  and  N_10
REMARK    4  A    between atoms: C_11  and  C_13
REMARK    5  A    between atoms: C_13  and  C_14
REMARK    6  A    between atoms: N_16  and  C_17
REMARK    7  A    between atoms: C_17  and  C_18
REMARK    8  A    between atoms: C_18  and  O_20
REMARK                            x       y       z     vdW  Elec       q    Type
REMARK                         _______ _______ _______ _____ _____    ______ ____
ROOT
ATOM      1  C   UNL     1       3.381   6.442  17.781  0.00  0.00    +0.000 A 
ATOM      2  N   UNL     1       2.566   5.831  18.590  0.00  0.00    +0.000 NA
ATOM      3  N   UNL     1       2.520   4.462  18.599  0.00  0.00    +0.000 N 
ATOM      4  C   UNL     1       3.387   3.646  17.881  0.00  0.00    +0.000 A 
ATOM      5  O   UNL     1       3.398   2.423  17.979  0.00  0.00    +0.000 OA
ATOM      6  C   UNL     1       4.321   4.324  16.966  0.00  0.00    +0.000 A 
ATOM      7  C   UNL     1       5.201   3.559  16.187  0.00  0.00    +0.000 A 
ATOM      8  C   UNL     1       6.040   4.186  15.269  0.00  0.00    +0.000 A 
ATOM      9  C   UNL     1       5.987   5.570  15.122  0.00  0.00    +0.000 A 
ATOM     10  C   UNL     1       5.118   6.337  15.913  0.00  0.00    +0.000 A 
ATOM     11  C   UNL     1       4.291   5.710  16.855  0.00  0.00    +0.000 A 
ENDROOT
BRANCH   1  12
ATOM     12  C   UNL     1       3.387   7.957  17.859  0.00  0.00    +0.000 C 
BRANCH  12  14
ATOM     13  N   UNL     1       1.497   9.517  17.728  0.00  0.00    +0.000 N 
ATOM     14  C   UNL     1       2.135   8.537  18.477  0.00  0.00    +0.000 C 
ATOM     15  O   UNL     1       1.759   8.100  19.563  0.00  0.00    +0.000 OA
ATOM     16  H   UNL     1       1.819   9.707  16.783  0.00  0.00    +0.000 HD
BRANCH  13  23
ATOM     17  C   UNL     1       0.392  11.406  18.842  0.00  0.00    +0.000 A 
ATOM     18  C   UNL     1      -0.778  12.132  19.129  0.00  0.00    +0.000 A 
ATOM     19  C   UNL     1      -2.028  11.650  18.743  0.00  0.00    +0.000 A 
ATOM     20  C   UNL     1      -2.116  10.439  18.072  0.00  0.00    +0.000 A 
ATOM     21 CL   UNL     1      -3.660   9.820  17.634  0.00  0.00    +0.000 Cl
ATOM     22  C   UNL     1      -0.964   9.724  17.749  0.00  0.00    +0.000 A 
ATOM     23  C   UNL     1       0.303  10.204  18.096  0.00  0.00    +0.000 A 
BRANCH  17  25
ATOM     24  C   UNL     1       1.685  12.722  20.340  0.00  0.00    +0.000 C 
ATOM     25  O   UNL     1       1.647  11.822  19.227  0.00  0.00    +0.000 OA
ENDBRANCH  17  25
ENDBRANCH  13  23
ENDBRANCH  12  14
ENDBRANCH   1  12
BRANCH   3  26
ATOM     26  C   UNL     1       1.431   3.849  19.367  0.00  0.00    +0.000 C 
BRANCH  26  27
ATOM     27  C   UNL     1       1.682   3.812  20.866  0.00  0.00    +0.000 C 
ATOM     28  O   UNL     1       1.274   2.915  21.592  0.00  0.00    +0.000 OA
BRANCH  27  29
ATOM     29  O   UNL     1       2.358   4.879  21.356  0.00  0.00    +0.000 OA
ATOM     30  H   UNL     1       3.260   4.907  20.975  0.00  0.00    +0.000 HD
ENDBRANCH  27  29
ENDBRANCH  26  27
ENDBRANCH   3  26
TORSDOF 7
ENDMDL
MODEL 6
REMARK VINA RESULT:      -7.8      2.713      4.564
REMARK  Name = 
REMARK  8 active torsions:
REMARK  status: ('A' for Active; 'I' for Inactive)
REMARK    1  A    between atoms: C_1  and  O_2
REMARK    2  A    between atoms: O_2  and  C_3
REMARK    3  A    between atoms: C_9  and  N_10
REMARK    4  A    between atoms: C_11  and  C_13
REMARK    5  A    between atoms: C_13  and  C_14
REMARK    6  A    between atoms: N_16  and  C_17
REMARK    7  A    between atoms: C_17  and  C_18
REMARK    8  A    between atoms: C_18  and  O_20
REMARK                            x       y       z     vdW  Elec       q    Type
REMARK                         _______ _______ _______ _____ _____    ______ ____
ROOT
ATOM      1  C   UNL     1       2.873   6.438  18.755  0.00  0.00    +0.000 A 
ATOM      2  N   UNL     1       3.857   6.870  18.022  0.00  0.00    +0.000 NA
ATOM      3  N   UNL     1       4.526   5.998  17.204  0.00  0.00    +0.000 N 
ATOM      4  C   UNL     1       4.147   4.678  16.993  0.00  0.00    +0.000 A 
ATOM      5  O   UNL     1       4.695   3.940  16.180  0.00  0.00    +0.000 OA
ATOM      6  C   UNL     1       3.028   4.176  17.810  0.00  0.00    +0.000 A 
ATOM      7  C   UNL     1       2.616   2.843  17.671  0.00  0.00    +0.000 A 
ATOM      8  C   UNL     1       1.605   2.341  18.487  0.00  0.00    +0.000 A 
ATOM      9  C   UNL     1       1.021   3.165  19.445  0.00  0.00    +0.000 A 
ATOM     10  C   UNL     1       1.422   4.503  19.574  0.00  0.00    +0.000 A 
ATOM     11  C   UNL     1       2.422   5.017  18.737  0.00  0.00    +0.000 A 
ENDROOT
BRANCH   1  12
ATOM     12  C   UNL     1       2.171   7.477  19.608  0.00  0.00    +0.000 C 
BRANCH  12  14
ATOM     13  N   UNL     1       1.097   9.684  19.582  0.00  0.00    +0.000 N 
ATOM     14  C   UNL     1       1.766   8.717  18.843  0.00  0.00    +0.000 C 
ATOM     15  O   UNL     1       2.069   8.799  17.654  0.00  0.00    +0.000 OA
ATOM     16  H   UNL     1       1.018   9.572  20.589  0.00  0.00    +0.000 HD
BRANCH  13  23
ATOM     17  C   UNL     1      -0.691  11.024  18.563  0.00  0.00    +0.000 A 
ATOM     18  C   UNL     1      -1.191  12.274  18.156  0.00  0.00    +0.000 A 
ATOM     19  C   UNL     1      -0.387  13.412  18.203  0.00  0.00    +0.000 A 
ATOM     20  C   UNL     1       0.921  13.307  18.652  0.00  0.00    +0.000 A 
ATOM     21 CL   UNL     1       1.930  14.701  18.670  0.00  0.00    +0.000 Cl
ATOM     22  C   UNL     1       1.422  12.083  19.092  0.00  0.00    +0.000 A 
ATOM     23  C   UNL     1       0.624  10.934  19.086  0.00  0.00    +0.000 A 
BRANCH  17  25
ATOM     24  C   UNL     1      -2.706   9.977  17.862  0.00  0.00    +0.000 C 
ATOM     25  O   UNL     1      -1.432   9.865  18.507  0.00  0.00    +0.000 OA
ENDBRANCH  17  25
ENDBRANCH  13  23
ENDBRANCH  12  14
ENDBRANCH   1  12
BRANCH   3  26
ATOM     26  C   UNL     1       5.756   6.498  16.581  0.00  0.00    +0.000 C 
BRANCH  26  27
ATOM     27  C   UNL     1       7.027   6.025  17.267  0.00  0.00    +0.000 C 
ATOM     28  O   UNL     1       7.516   6.591  18.237  0.00  0.00    +0.000 OA
BRANCH  27  29
ATOM     29  O   UNL     1       7.616   4.947  16.695  0.00  0.00    +0.000 OA
ATOM     30  H   UNL     1       8.149   5.228  15.924  0.00  0.00    +0.000 HD
ENDBRANCH  27  29
ENDBRANCH  26  27
ENDBRANCH   3  26
TORSDOF 7
ENDMDL
MODEL 7
REMARK VINA RESULT:      -7.8      2.577      4.364
REMARK  Name = 
REMARK  8 active torsions:
REMARK  status: ('A' for Active; 'I' for Inactive)
REMARK    1  A    between atoms: C_1  and  O_2
REMARK    2  A    between atoms: O_2  and  C_3
REMARK    3  A    between atoms: C_9  and  N_10
REMARK    4  A    between atoms: C_11  and  C_13
REMARK    5  A    between atoms: C_13  and  C_14
REMARK    6  A    between atoms: N_16  and  C_17
REMARK    7  A    between atoms: C_17  and  C_18
REMARK    8  A    between atoms: C_18  and  O_20
REMARK                            x       y       z     vdW  Elec       q    Type
REMARK                         _______ _______ _______ _____ _____    ______ ____
ROOT
ATOM      1  C   UNL     1       2.914   6.268  18.321  0.00  0.00    +0.000 A 
ATOM      2  N   UNL     1       4.129   6.450  17.894  0.00  0.00    +0.000 NA
ATOM      3  N   UNL     1       5.125   5.605  18.305  0.00  0.00    +0.000 N 
ATOM      4  C   UNL     1       4.914   4.460  19.065  0.00  0.00    +0.000 A 
ATOM      5  O   UNL     1       5.803   3.659  19.339  0.00  0.00    +0.000 OA
ATOM      6  C   UNL     1       3.541   4.236  19.549  0.00  0.00    +0.000 A 
ATOM      7  C   UNL     1       3.265   3.118  20.349  0.00  0.00    +0.000 A 
ATOM      8  C   UNL     1       1.986   2.934  20.868  0.00  0.00    +0.000 A 
ATOM      9  C   UNL     1       0.993   3.873  20.599  0.00  0.00    +0.000 A 
ATOM     10  C   UNL     1       1.265   4.983  19.786  0.00  0.00    +0.000 A 
ATOM     11  C   UNL     1       2.545   5.157  19.242  0.00  0.00    +0.000 A 
ENDROOT
BRANCH   1  12
ATOM     12  C   UNL     1       1.870   7.233  17.792  0.00  0.00    +0.000 C 
BRANCH  12  14
ATOM     13  N   UNL     1       1.560   9.668  17.774  0.00  0.00    +0.000 N 
ATOM     14  C   UNL     1       1.818   8.543  18.546  0.00  0.00    +0.000 C 
ATOM     15  O   UNL     1       1.979   8.526  19.765  0.00  0.00    +0.000 OA
ATOM     16  H   UNL     1       1.309   9.551  16.796  0.00  0.00    +0.000 HD
BRANCH  13  23
ATOM     17  C   UNL     1       0.270  11.422  18.910  0.00  0.00    +0.000 A 
ATOM     18  C   UNL     1       0.199  12.712  19.464  0.00  0.00    +0.000 A 
ATOM     19  C   UNL     1       1.260  13.607  19.323  0.00  0.00    +0.000 A 
ATOM     20  C   UNL     1       2.393  13.218  18.625  0.00  0.00    +0.000 A 
ATOM     21 CL   UNL     1       3.685  14.334  18.411  0.00  0.00    +0.000 Cl
ATOM     22  C   UNL     1       2.494  11.931  18.099  0.00  0.00    +0.000 A 
ATOM     23  C   UNL     1       1.457  11.006  18.256  0.00  0.00    +0.000 A 
BRANCH  17  25
ATOM     24  C   UNL     1      -2.004  10.931  18.420  0.00  0.00    +0.000 C 
ATOM     25  O   UNL     1      -0.761  10.512  18.994  0.00  0.00    +0.000 OA
ENDBRANCH  17  25
ENDBRANCH  13  23
ENDBRANCH  12  14
ENDBRANCH   1  12
BRANCH   3  26
ATOM     26  C   UNL     1       6.498   5.997  17.968  0.00  0.00    +0.000 C 
BRANCH  26  27
ATOM     27  C   UNL     1       6.986   5.441  16.640  0.00  0.00    +0.000 C 
ATOM     28  O   UNL     1       7.854   4.583  16.552  0.00  0.00    +0.000 OA
BRANCH  27  29
ATOM     29  O   UNL     1       6.420   6.003  15.545  0.00  0.00    +0.000 OA
ATOM     30  H   UNL     1       5.456   6.104  15.681  0.00  0.00    +0.000 HD
ENDBRANCH  27  29
ENDBRANCH  26  27
ENDBRANCH   3  26
TORSDOF 7
ENDMDL
MODEL 8
REMARK VINA RESULT:      -7.8      1.943      3.876
REMARK  Name = 
REMARK  8 active torsions:
REMARK  status: ('A' for Active; 'I' for Inactive)
REMARK    1  A    between atoms: C_1  and  O_2
REMARK    2  A    between atoms: O_2  and  C_3
REMARK    3  A    between atoms: C_9  and  N_10
REMARK    4  A    between atoms: C_11  and  C_13
REMARK    5  A    between atoms: C_13  and  C_14
REMARK    6  A    between atoms: N_16  and  C_17
REMARK    7  A    between atoms: C_17  and  C_18
REMARK    8  A    between atoms: C_18  and  O_20
REMARK                            x       y       z     vdW  Elec       q    Type
REMARK                         _______ _______ _______ _____ _____    ______ ____
ROOT
ATOM      1  C   UNL     1       3.281   6.336  18.009  0.00  0.00    +0.000 A 
ATOM      2  N   UNL     1       4.522   6.727  18.020  0.00  0.00    +0.000 NA
ATOM      3  N   UNL     1       5.519   5.809  18.218  0.00  0.00    +0.000 N 
ATOM      4  C   UNL     1       5.315   4.435  18.286  0.00  0.00    +0.000 A 
ATOM      5  O   UNL     1       6.229   3.620  18.362  0.00  0.00    +0.000 OA
ATOM      6  C   UNL     1       3.914   3.977  18.266  0.00  0.00    +0.000 A 
ATOM      7  C   UNL     1       3.636   2.607  18.364  0.00  0.00    +0.000 A 
ATOM      8  C   UNL     1       2.315   2.169  18.415  0.00  0.00    +0.000 A 
ATOM      9  C   UNL     1       1.279   3.100  18.382  0.00  0.00    +0.000 A 
ATOM     10  C   UNL     1       1.558   4.470  18.268  0.00  0.00    +0.000 A 
ATOM     11  C   UNL     1       2.886   4.911  18.191  0.00  0.00    +0.000 A 
ENDROOT
BRANCH   1  12
ATOM     12  C   UNL     1       2.245   7.414  17.754  0.00  0.00    +0.000 C 
BRANCH  12  14
ATOM     13  N   UNL     1       1.324   9.465  18.738  0.00  0.00    +0.000 N 
ATOM     14  C   UNL     1       1.900   8.226  18.983  0.00  0.00    +0.000 C 
ATOM     15  O   UNL     1       2.124   7.740  20.090  0.00  0.00    +0.000 OA
ATOM     16  H   UNL     1       1.060   9.711  17.788  0.00  0.00    +0.000 HD
BRANCH  13  23
ATOM     17  C   UNL     1       1.231  11.774  19.570  0.00  0.00    +0.000 A 
ATOM     18  C   UNL     1       0.747  12.713  20.499  0.00  0.00    +0.000 A 
ATOM     19  C   UNL     1       0.007  12.302  21.607  0.00  0.00    +0.000 A 
ATOM     20  C   UNL     1      -0.249  10.952  21.795  0.00  0.00    +0.000 A 
ATOM     21 CL   UNL     1      -1.125  10.437  23.184  0.00  0.00    +0.000 Cl
ATOM     22  C   UNL     1       0.193  10.011  20.865  0.00  0.00    +0.000 A 
ATOM     23  C   UNL     1       0.909  10.403  19.729  0.00  0.00    +0.000 A 
BRANCH  17  25
ATOM     24  C   UNL     1       2.181  13.530  18.280  0.00  0.00    +0.000 C 
ATOM     25  O   UNL     1       1.993  12.124  18.477  0.00  0.00    +0.000 OA
ENDBRANCH  17  25
ENDBRANCH  13  23
ENDBRANCH  12  14
ENDBRANCH   1  12
BRANCH   3  26
ATOM     26  C   UNL     1       6.866   6.344  18.442  0.00  0.00    +0.000 C 
BRANCH  26  27
ATOM     27  C   UNL     1       7.450   7.060  17.235  0.00  0.00    +0.000 C 
ATOM     28  O   UNL     1       7.775   8.240  17.248  0.00  0.00    +0.000 OA
BRANCH  27  29
ATOM     29  O   UNL     1       7.542   6.304  16.114  0.00  0.00    +0.000 OA
ATOM     30  H   UNL     1       6.677   6.278  15.656  0.00  0.00    +0.000 HD
ENDBRANCH  27  29
ENDBRANCH  26  27
ENDBRANCH   3  26
TORSDOF 7
ENDMDL
MODEL 9
REMARK VINA RESULT:      -7.8      1.711      2.096
REMARK  Name = 
REMARK  8 active torsions:
REMARK  status: ('A' for Active; 'I' for Inactive)
REMARK    1  A    between atoms: C_1  and  O_2
REMARK    2  A    between atoms: O_2  and  C_3
REMARK    3  A    between atoms: C_9  and  N_10
REMARK    4  A    between atoms: C_11  and  C_13
REMARK    5  A    between atoms: C_13  and  C_14
REMARK    6  A    between atoms: N_16  and  C_17
REMARK    7  A    between atoms: C_17  and  C_18
REMARK    8  A    between atoms: C_18  and  O_20
REMARK                            x       y       z     vdW  Elec       q    Type
REMARK                         _______ _______ _______ _____ _____    ______ ____
ROOT
ATOM      1  C   UNL     1       3.151   5.945  18.029  0.00  0.00    +0.000 A 
ATOM      2  N   UNL     1       2.537   4.962  18.619  0.00  0.00    +0.000 NA
ATOM      3  N   UNL     1       3.267   3.956  19.195  0.00  0.00    +0.000 N 
ATOM      4  C   UNL     1       4.652   3.964  19.312  0.00  0.00    +0.000 A 
ATOM      5  O   UNL     1       5.282   3.105  19.920  0.00  0.00    +0.000 OA
ATOM      6  C   UNL     1       5.361   5.076  18.655  0.00  0.00    +0.000 A 
ATOM      7  C   UNL     1       6.761   5.127  18.706  0.00  0.00    +0.000 A 
ATOM      8  C   UNL     1       7.443   6.136  18.030  0.00  0.00    +0.000 A 
ATOM      9  C   UNL     1       6.728   7.079  17.297  0.00  0.00    +0.000 A 
ATOM     10  C   UNL     1       5.326   7.037  17.258  0.00  0.00    +0.000 A 
ATOM     11  C   UNL     1       4.636   6.037  17.958  0.00  0.00    +0.000 A 
ENDROOT
BRANCH   1  12
ATOM     12  C   UNL     1       2.265   7.029  17.444  0.00  0.00    +0.000 C 
BRANCH  12  14
ATOM     13  N   UNL     1       1.328   9.255  17.880  0.00  0.00    +0.000 N 
ATOM     14  C   UNL     1       1.919   8.125  18.428  0.00  0.00    +0.000 C 
ATOM     15  O   UNL     1       2.155   7.940  19.620  0.00  0.00    +0.000 OA
ATOM     16  H   UNL     1       1.055   9.247  16.901  0.00  0.00    +0.000 HD
BRANCH  13  23
ATOM     17  C   UNL     1      -0.476  10.645  18.800  0.00  0.00    +0.000 A 
ATOM     18  C   UNL     1      -0.890  11.734  19.587  0.00  0.00    +0.000 A 
ATOM     19  C   UNL     1       0.043  12.622  20.122  0.00  0.00    +0.000 A 
ATOM     20  C   UNL     1       1.393  12.428  19.870  0.00  0.00    +0.000 A 
ATOM     21 CL   UNL     1       2.545  13.545  20.491  0.00  0.00    +0.000 Cl
ATOM     22  C   UNL     1       1.823  11.333  19.121  0.00  0.00    +0.000 A 
ATOM     23  C   UNL     1       0.908  10.411  18.602  0.00  0.00    +0.000 A 
BRANCH  17  25
ATOM     24  C   UNL     1      -2.083  10.255  17.093  0.00  0.00    +0.000 C 
ATOM     25  O   UNL     1      -1.358   9.758  18.223  0.00  0.00    +0.000 OA
ENDBRANCH  17  25
ENDBRANCH  13  23
ENDBRANCH  12  14
ENDBRANCH   1  12
BRANCH   3  26
ATOM     26  C   UNL     1       2.517   2.777  19.643  0.00  0.00    +0.000 C 
BRANCH  26  27
ATOM     27  C   UNL     1       1.564   3.057  20.793  0.00  0.00    +0.000 C 
ATOM     28  O   UNL     1       1.777   2.697  21.943  0.00  0.00    +0.000 OA
BRANCH  27  29
ATOM     29  O   UNL     1       0.423   3.700  20.443  0.00  0.00    +0.000 OA
ATOM     30  H   UNL     1      -0.209   3.067  20.045  0.00  0.00    +0.000 HD
ENDBRANCH  27  29
ENDBRANCH  26  27
ENDBRANCH   3  26
TORSDOF 7
ENDMDL
