MODEL 1
REMARK VINA RESULT:      -8.4      0.000      0.000
REMARK  Name = 
REMARK  5 active torsions:
REMARK  status: ('A' for Active; 'I' for Inactive)
REMARK    1  A    between atoms: C_2  and  C_20
REMARK    2  A    between atoms: N_3  and  C_4
REMARK    3  A    between atoms: C_8  and  S_9
REMARK    4  A    between atoms: S_9  and  N_12
REMARK    5  A    between atoms: C_25  and  N_26
REMARK                            x       y       z     vdW  Elec       q    Type
REMARK                         _______ _______ _______ _____ _____    ______ ____
ROOT
ATOM      1  O   UNL     1       4.984   7.703  17.896  0.00  0.00    +0.000 OA
ATOM      2  C   UNL     1       4.256   6.832  17.433  0.00  0.00    +0.000 C 
ATOM      3  N   UNL     1       2.897   6.727  17.741  0.00  0.00    +0.000 N 
ATOM      4  H   UNL     1       2.479   5.814  17.599  0.00  0.00    +0.000 HD
ENDROOT
BRANCH   3   5
ATOM      5  C   UNL     1       2.252   7.580  18.671  0.00  0.00    +0.000 A 
ATOM      6  C   UNL     1       2.268   7.202  20.017  0.00  0.00    +0.000 A 
ATOM      7  C   UNL     1       1.631   7.985  20.982  0.00  0.00    +0.000 A 
ATOM      8  C   UNL     1       0.917   9.121  20.600  0.00  0.00    +0.000 A 
ATOM      9  C   UNL     1       0.873   9.503  19.249  0.00  0.00    +0.000 A 
ATOM     10  C   UNL     1       1.555   8.739  18.284  0.00  0.00    +0.000 A 
BRANCH   9  11
ATOM     11  S   UNL     1      -0.323  10.762  18.772  0.00  0.00    +0.000 S 
ATOM     12  O   UNL     1      -0.925  10.293  17.530  0.00  0.00    +0.000 OA
ATOM     13  O   UNL     1      -1.153  10.994  19.934  0.00  0.00    +0.000 OA
BRANCH  11  14
ATOM     14  N   UNL     1       0.501  12.178  18.439  0.00  0.00    +0.000 NA
ATOM     15  C   UNL     1      -0.204  13.465  18.289  0.00  0.00    +0.000 C 
ATOM     16  C   UNL     1      -0.262  14.168  19.632  0.00  0.00    +0.000 C 
ATOM     17  C   UNL     1       1.103  14.235  20.316  0.00  0.00    +0.000 C 
ATOM     18  F   UNL     1       1.792  15.270  19.749  0.00  0.00    +0.000 F 
ATOM     19  C   UNL     1       1.972  12.984  20.203  0.00  0.00    +0.000 C 
ATOM     20  C   UNL     1       1.908  12.366  18.823  0.00  0.00    +0.000 C 
ENDBRANCH  11  14
ENDBRANCH   9  11
ENDBRANCH   3   5
BRANCH   2  21
ATOM     21  C   UNL     1       4.787   5.776  16.505  0.00  0.00    +0.000 A 
ATOM     22  C   UNL     1       5.556   6.193  15.403  0.00  0.00    +0.000 A 
ATOM     23  C   UNL     1       6.199   5.250  14.605  0.00  0.00    +0.000 A 
ATOM     24  C   UNL     1       6.041   3.913  14.931  0.00  0.00    +0.000 A 
ATOM     25  N   UNL     1       5.296   3.477  15.971  0.00  0.00    +0.000 NA
ATOM     26  C   UNL     1       4.650   4.395  16.741  0.00  0.00    +0.000 A 
BRANCH  26  27
ATOM     27  N   UNL     1       3.872   3.891  17.765  0.00  0.00    +0.000 N 
ATOM     28  C   UNL     1       4.489   3.430  19.006  0.00  0.00    +0.000 C 
ATOM     29  C   UNL     1       3.495   3.758  20.132  0.00  0.00    +0.000 C 
ATOM     30  C   UNL     1       2.097   3.209  19.847  0.00  0.00    +0.000 C 
ATOM     31  C   UNL     1       1.604   3.402  18.417  0.00  0.00    +0.000 C 
ATOM     32  C   UNL     1       2.697   3.107  17.390  0.00  0.00    +0.000 C 
ATOM     33  C   UNL     1       1.586   2.029  20.642  0.00  0.00    +0.000 C 
ATOM     34  C   UNL     1       1.063   3.405  20.934  0.00  0.00    +0.000 C 
ENDBRANCH  26  27
ENDBRANCH   2  21
TORSDOF 5
ENDMDL
MODEL 2
REMARK VINA RESULT:      -8.2      1.229      1.582
REMARK  Name = 
REMARK  5 active torsions:
REMARK  status: ('A' for Active; 'I' for Inactive)
REMARK    1  A    between atoms: C_2  and  C_20
REMARK    2  A    between atoms: N_3  and  C_4
REMARK    3  A    between atoms: C_8  and  S_9
REMARK    4  A    between atoms: S_9  and  N_12
REMARK    5  A    between atoms: C_25  and  N_26
REMARK                            x       y       z     vdW  Elec       q    Type
REMARK                         _______ _______ _______ _____ _____    ______ ____
ROOT
ATOM      1  O   UNL     1       5.055   7.713  17.793  0.00  0.00    +0.000 OA
ATOM      2  C   UNL     1       4.328   6.812  17.388  0.00  0.00    +0.000 C 
ATOM      3  N   UNL     1       2.989   6.680  17.767  0.00  0.00    +0.000 N 
ATOM      4  H   UNL     1       2.589   5.754  17.667  0.00  0.00    +0.000 HD
ENDROOT
BRANCH   3   5
ATOM      5  C   UNL     1       2.370   7.539  18.709  0.00  0.00    +0.000 A 
ATOM      6  C   UNL     1       2.096   7.020  19.978  0.00  0.00    +0.000 A 
ATOM      7  C   UNL     1       1.466   7.805  20.945  0.00  0.00    +0.000 A 
ATOM      8  C   UNL     1       1.045   9.098  20.631  0.00  0.00    +0.000 A 
ATOM      9  C   UNL     1       1.293   9.627  19.354  0.00  0.00    +0.000 A 
ATOM     10  C   UNL     1       1.971   8.851  18.395  0.00  0.00    +0.000 A 
BRANCH   9  11
ATOM     11  S   UNL     1       0.443  11.147  18.896  0.00  0.00    +0.000 S 
ATOM     12  O   UNL     1       1.452  12.001  18.282  0.00  0.00    +0.000 OA
ATOM     13  O   UNL     1      -0.724  10.748  18.139  0.00  0.00    +0.000 OA
BRANCH  11  14
ATOM     14  N   UNL     1      -0.085  11.901  20.293  0.00  0.00    +0.000 NA
ATOM     15  C   UNL     1       0.628  13.061  20.860  0.00  0.00    +0.000 C 
ATOM     16  C   UNL     1       0.034  14.341  20.303  0.00  0.00    +0.000 C 
ATOM     17  C   UNL     1      -1.490  14.376  20.419  0.00  0.00    +0.000 C 
ATOM     18  F   UNL     1      -1.792  14.736  21.702  0.00  0.00    +0.000 F 
ATOM     19  C   UNL     1      -2.215  13.065  20.124  0.00  0.00    +0.000 C 
ATOM     20  C   UNL     1      -1.495  11.868  20.706  0.00  0.00    +0.000 C 
ENDBRANCH  11  14
ENDBRANCH   9  11
ENDBRANCH   3   5
BRANCH   2  21
ATOM     21  C   UNL     1       4.839   5.748  16.458  0.00  0.00    +0.000 A 
ATOM     22  C   UNL     1       5.623   6.151  15.362  0.00  0.00    +0.000 A 
ATOM     23  C   UNL     1       6.248   5.197  14.563  0.00  0.00    +0.000 A 
ATOM     24  C   UNL     1       6.058   3.863  14.883  0.00  0.00    +0.000 A 
ATOM     25  N   UNL     1       5.298   3.440  15.917  0.00  0.00    +0.000 NA
ATOM     26  C   UNL     1       4.669   4.370  16.687  0.00  0.00    +0.000 A 
BRANCH  26  27
ATOM     27  N   UNL     1       3.874   3.880  17.705  0.00  0.00    +0.000 N 
ATOM     28  C   UNL     1       4.477   3.341  18.922  0.00  0.00    +0.000 C 
ATOM     29  C   UNL     1       3.518   3.691  20.072  0.00  0.00    +0.000 C 
ATOM     30  C   UNL     1       2.086   3.237  19.789  0.00  0.00    +0.000 C 
ATOM     31  C   UNL     1       1.588   3.507  18.373  0.00  0.00    +0.000 C 
ATOM     32  C   UNL     1       2.650   3.181  17.322  0.00  0.00    +0.000 C 
ATOM     33  C   UNL     1       1.514   2.064  20.552  0.00  0.00    +0.000 C 
ATOM     34  C   UNL     1       1.079   3.459  20.896  0.00  0.00    +0.000 C 
ENDBRANCH  26  27
ENDBRANCH   2  21
TORSDOF 5
ENDMDL
MODEL 3
REMARK VINA RESULT:      -8.0      3.679     10.091
REMARK  Name = 
REMARK  5 active torsions:
REMARK  status: ('A' for Active; 'I' for Inactive)
REMARK    1  A    between atoms: C_2  and  C_20
REMARK    2  A    between atoms: N_3  and  C_4
REMARK    3  A    between atoms: C_8  and  S_9
REMARK    4  A    between atoms: S_9  and  N_12
REMARK    5  A    between atoms: C_25  and  N_26
REMARK                            x       y       z     vdW  Elec       q    Type
REMARK                         _______ _______ _______ _____ _____    ______ ____
ROOT
ATOM      1  O   UNL     1       1.533  11.459  21.551  0.00  0.00    +0.000 OA
ATOM      2  C   UNL     1       0.358  11.183  21.333  0.00  0.00    +0.000 C 
ATOM      3  N   UNL     1      -0.040  10.156  20.473  0.00  0.00    +0.000 N 
ATOM      4  H   UNL     1      -0.979  10.229  20.100  0.00  0.00    +0.000 HD
ENDROOT
BRANCH   3   5
ATOM      5  C   UNL     1       0.882   9.383  19.723  0.00  0.00    +0.000 A 
ATOM      6  C   UNL     1       1.170   9.802  18.420  0.00  0.00    +0.000 A 
ATOM      7  C   UNL     1       2.050   9.073  17.619  0.00  0.00    +0.000 A 
ATOM      8  C   UNL     1       2.601   7.881  18.090  0.00  0.00    +0.000 A 
ATOM      9  C   UNL     1       2.303   7.434  19.388  0.00  0.00    +0.000 A 
ATOM     10  C   UNL     1       1.454   8.195  20.212  0.00  0.00    +0.000 A 
BRANCH   9  11
ATOM     11  S   UNL     1       2.760   5.746  19.819  0.00  0.00    +0.000 S 
ATOM     12  O   UNL     1       4.216   5.704  19.787  0.00  0.00    +0.000 OA
ATOM     13  O   UNL     1       2.055   5.436  21.044  0.00  0.00    +0.000 OA
BRANCH  11  14
ATOM     14  N   UNL     1       2.191   4.721  18.626  0.00  0.00    +0.000 NA
ATOM     15  C   UNL     1       2.993   4.412  17.428  0.00  0.00    +0.000 C 
ATOM     16  C   UNL     1       3.822   3.167  17.682  0.00  0.00    +0.000 C 
ATOM     17  C   UNL     1       2.988   2.014  18.239  0.00  0.00    +0.000 C 
ATOM     18  F   UNL     1       2.345   1.430  17.183  0.00  0.00    +0.000 F 
ATOM     19  C   UNL     1       1.929   2.389  19.273  0.00  0.00    +0.000 C 
ATOM     20  C   UNL     1       1.205   3.669  18.913  0.00  0.00    +0.000 C 
ENDBRANCH  11  14
ENDBRANCH   9  11
ENDBRANCH   3   5
BRANCH   2  21
ATOM     21  C   UNL     1      -0.761  11.962  21.964  0.00  0.00    +0.000 A 
ATOM     22  C   UNL     1      -1.655  11.271  22.803  0.00  0.00    +0.000 A 
ATOM     23  C   UNL     1      -2.612  11.973  23.532  0.00  0.00    +0.000 A 
ATOM     24  C   UNL     1      -2.650  13.350  23.388  0.00  0.00    +0.000 A 
ATOM     25  N   UNL     1      -1.819  14.043  22.579  0.00  0.00    +0.000 NA
ATOM     26  C   UNL     1      -0.897  13.358  21.850  0.00  0.00    +0.000 A 
BRANCH  26  27
ATOM     27  N   UNL     1      -0.101  14.114  21.010  0.00  0.00    +0.000 N 
ATOM     28  C   UNL     1       0.944  14.977  21.557  0.00  0.00    +0.000 C 
ATOM     29  C   UNL     1       2.094  14.964  20.538  0.00  0.00    +0.000 C 
ATOM     30  C   UNL     1       1.620  15.315  19.128  0.00  0.00    +0.000 C 
ATOM     31  C   UNL     1       0.314  14.655  18.698  0.00  0.00    +0.000 C 
ATOM     32  C   UNL     1      -0.730  14.673  19.815  0.00  0.00    +0.000 C 
ATOM     33  C   UNL     1       1.991  16.655  18.532  0.00  0.00    +0.000 C 
ATOM     34  C   UNL     1       2.691  15.413  18.063  0.00  0.00    +0.000 C 
ENDBRANCH  26  27
ENDBRANCH   2  21
TORSDOF 5
ENDMDL
MODEL 4
REMARK VINA RESULT:      -7.9      2.479      4.631
REMARK  Name = 
REMARK  5 active torsions:
REMARK  status: ('A' for Active; 'I' for Inactive)
REMARK    1  A    between atoms: C_2  and  C_20
REMARK    2  A    between atoms: N_3  and  C_4
REMARK    3  A    between atoms: C_8  and  S_9
REMARK    4  A    between atoms: S_9  and  N_12
REMARK    5  A    between atoms: C_25  and  N_26
REMARK                            x       y       z     vdW  Elec       q    Type
REMARK                         _______ _______ _______ _____ _____    ______ ____
ROOT
ATOM      1  O   UNL     1       1.662   5.599  18.229  0.00  0.00    +0.000 OA
ATOM      2  C   UNL     1       2.086   5.692  19.375  0.00  0.00    +0.000 C 
ATOM      3  N   UNL     1       2.209   6.909  20.050  0.00  0.00    +0.000 N 
ATOM      4  H   UNL     1       2.866   6.925  20.822  0.00  0.00    +0.000 HD
ENDROOT
BRANCH   3   5
ATOM      5  C   UNL     1       1.917   8.156  19.442  0.00  0.00    +0.000 A 
ATOM      6  C   UNL     1       2.430   8.390  18.163  0.00  0.00    +0.000 A 
ATOM      7  C   UNL     1       2.201   9.606  17.517  0.00  0.00    +0.000 A 
ATOM      8  C   UNL     1       1.510  10.626  18.173  0.00  0.00    +0.000 A 
ATOM      9  C   UNL     1       1.008  10.416  19.468  0.00  0.00    +0.000 A 
ATOM     10  C   UNL     1       1.199   9.172  20.098  0.00  0.00    +0.000 A 
BRANCH   9  11
ATOM     11  S   UNL     1       0.432  11.853  20.387  0.00  0.00    +0.000 S 
ATOM     12  O   UNL     1       1.359  12.016  21.499  0.00  0.00    +0.000 OA
ATOM     13  O   UNL     1       0.271  12.916  19.419  0.00  0.00    +0.000 OA
BRANCH  11  14
ATOM     14  N   UNL     1      -1.076  11.506  21.024  0.00  0.00    +0.000 NA
ATOM     15  C   UNL     1      -1.266  11.254  22.464  0.00  0.00    +0.000 C 
ATOM     16  C   UNL     1      -1.602  12.557  23.165  0.00  0.00    +0.000 C 
ATOM     17  C   UNL     1      -2.729  13.320  22.470  0.00  0.00    +0.000 C 
ATOM     18  F   UNL     1      -3.908  12.748  22.860  0.00  0.00    +0.000 F 
ATOM     19  C   UNL     1      -2.699  13.318  20.944  0.00  0.00    +0.000 C 
ATOM     20  C   UNL     1      -2.314  11.967  20.380  0.00  0.00    +0.000 C 
ENDBRANCH  11  14
ENDBRANCH   9  11
ENDBRANCH   3   5
BRANCH   2  21
ATOM     21  C   UNL     1       2.539   4.483  20.145  0.00  0.00    +0.000 A 
ATOM     22  C   UNL     1       1.825   4.134  21.306  0.00  0.00    +0.000 A 
ATOM     23  C   UNL     1       2.106   2.940  21.965  0.00  0.00    +0.000 A 
ATOM     24  C   UNL     1       3.105   2.135  21.444  0.00  0.00    +0.000 A 
ATOM     25  N   UNL     1       3.822   2.447  20.342  0.00  0.00    +0.000 NA
ATOM     26  C   UNL     1       3.564   3.623  19.707  0.00  0.00    +0.000 A 
BRANCH  26  27
ATOM     27  N   UNL     1       4.354   3.909  18.611  0.00  0.00    +0.000 N 
ATOM     28  C   UNL     1       4.385   3.004  17.464  0.00  0.00    +0.000 C 
ATOM     29  C   UNL     1       4.566   3.888  16.219  0.00  0.00    +0.000 C 
ATOM     30  C   UNL     1       5.763   4.829  16.349  0.00  0.00    +0.000 C 
ATOM     31  C   UNL     1       5.908   5.513  17.704  0.00  0.00    +0.000 C 
ATOM     32  C   UNL     1       5.642   4.550  18.862  0.00  0.00    +0.000 C 
ATOM     33  C   UNL     1       7.006   4.568  15.528  0.00  0.00    +0.000 C 
ATOM     34  C   UNL     1       6.081   5.684  15.141  0.00  0.00    +0.000 C 
ENDBRANCH  26  27
ENDBRANCH   2  21
TORSDOF 5
ENDMDL
MODEL 5
REMARK VINA RESULT:      -7.9      2.105      4.401
REMARK  Name = 
REMARK  5 active torsions:
REMARK  status: ('A' for Active; 'I' for Inactive)
REMARK    1  A    between atoms: C_2  and  C_20
REMARK    2  A    between atoms: N_3  and  C_4
REMARK    3  A    between atoms: C_8  and  S_9
REMARK    4  A    between atoms: S_9  and  N_12
REMARK    5  A    between atoms: C_25  and  N_26
REMARK                            x       y       z     vdW  Elec       q    Type
REMARK                         _______ _______ _______ _____ _____    ______ ____
ROOT
ATOM      1  O   UNL     1       1.817   5.688  18.289  0.00  0.00    +0.000 OA
ATOM      2  C   UNL     1       2.135   5.696  19.473  0.00  0.00    +0.000 C 
ATOM      3  N   UNL     1       2.109   6.846  20.265  0.00  0.00    +0.000 N 
ATOM      4  H   UNL     1       2.696   6.830  21.091  0.00  0.00    +0.000 HD
ENDROOT
BRANCH   3   5
ATOM      5  C   UNL     1       1.775   8.124  19.751  0.00  0.00    +0.000 A 
ATOM      6  C   UNL     1       2.155   8.414  18.437  0.00  0.00    +0.000 A 
ATOM      7  C   UNL     1       1.879   9.663  17.877  0.00  0.00    +0.000 A 
ATOM      8  C   UNL     1       1.277  10.657  18.649  0.00  0.00    +0.000 A 
ATOM      9  C   UNL     1       0.910  10.390  19.978  0.00  0.00    +0.000 A 
ATOM     10  C   UNL     1       1.146   9.115  20.525  0.00  0.00    +0.000 A 
BRANCH   9  11
ATOM     11  S   UNL     1       0.455  11.786  21.020  0.00  0.00    +0.000 S 
ATOM     12  O   UNL     1      -0.030  11.213  22.269  0.00  0.00    +0.000 OA
ATOM     13  O   UNL     1       1.596  12.675  21.028  0.00  0.00    +0.000 OA
BRANCH  11  14
ATOM     14  N   UNL     1      -0.820  12.594  20.298  0.00  0.00    +0.000 NA
ATOM     15  C   UNL     1      -2.216  12.355  20.707  0.00  0.00    +0.000 C 
ATOM     16  C   UNL     1      -2.600  13.341  21.795  0.00  0.00    +0.000 C 
ATOM     17  C   UNL     1      -2.255  14.782  21.424  0.00  0.00    +0.000 C 
ATOM     18  F   UNL     1      -3.242  15.237  20.595  0.00  0.00    +0.000 F 
ATOM     19  C   UNL     1      -0.921  14.991  20.711  0.00  0.00    +0.000 C 
ATOM     20  C   UNL     1      -0.649  13.917  19.680  0.00  0.00    +0.000 C 
ENDBRANCH  11  14
ENDBRANCH   9  11
ENDBRANCH   3   5
BRANCH   2  21
ATOM     21  C   UNL     1       2.613   4.451  20.165  0.00  0.00    +0.000 A 
ATOM     22  C   UNL     1       1.932   4.038  21.325  0.00  0.00    +0.000 A 
ATOM     23  C   UNL     1       2.234   2.812  21.913  0.00  0.00    +0.000 A 
ATOM     24  C   UNL     1       3.223   2.041  21.324  0.00  0.00    +0.000 A 
ATOM     25  N   UNL     1       3.908   2.413  20.221  0.00  0.00    +0.000 NA
ATOM     26  C   UNL     1       3.629   3.620  19.656  0.00  0.00    +0.000 A 
BRANCH  26  27
ATOM     27  N   UNL     1       4.388   3.966  18.555  0.00  0.00    +0.000 N 
ATOM     28  C   UNL     1       4.431   3.097  17.381  0.00  0.00    +0.000 C 
ATOM     29  C   UNL     1       4.558   4.023  16.161  0.00  0.00    +0.000 C 
ATOM     30  C   UNL     1       5.723   5.004  16.298  0.00  0.00    +0.000 C 
ATOM     31  C   UNL     1       5.866   5.652  17.671  0.00  0.00    +0.000 C 
ATOM     32  C   UNL     1       5.657   4.646  18.803  0.00  0.00    +0.000 C 
ATOM     33  C   UNL     1       6.959   4.812  15.449  0.00  0.00    +0.000 C 
ATOM     34  C   UNL     1       5.987   5.904  15.111  0.00  0.00    +0.000 C 
ENDBRANCH  26  27
ENDBRANCH   2  21
TORSDOF 5
ENDMDL
MODEL 6
REMARK VINA RESULT:      -7.9      1.645      4.104
REMARK  Name = 
REMARK  5 active torsions:
REMARK  status: ('A' for Active; 'I' for Inactive)
REMARK    1  A    between atoms: C_2  and  C_20
REMARK    2  A    between atoms: N_3  and  C_4
REMARK    3  A    between atoms: C_8  and  S_9
REMARK    4  A    between atoms: S_9  and  N_12
REMARK    5  A    between atoms: C_25  and  N_26
REMARK                            x       y       z     vdW  Elec       q    Type
REMARK                         _______ _______ _______ _____ _____    ______ ____
ROOT
ATOM      1  O   UNL     1       1.659   5.555  18.290  0.00  0.00    +0.000 OA
ATOM      2  C   UNL     1       2.090   5.621  19.436  0.00  0.00    +0.000 C 
ATOM      3  N   UNL     1       2.169   6.817  20.156  0.00  0.00    +0.000 N 
ATOM      4  H   UNL     1       2.833   6.830  20.922  0.00  0.00    +0.000 HD
ENDROOT
BRANCH   3   5
ATOM      5  C   UNL     1       1.821   8.072  19.598  0.00  0.00    +0.000 A 
ATOM      6  C   UNL     1       2.392   8.417  18.368  0.00  0.00    +0.000 A 
ATOM      7  C   UNL     1       2.110   9.649  17.776  0.00  0.00    +0.000 A 
ATOM      8  C   UNL     1       1.306  10.576  18.439  0.00  0.00    +0.000 A 
ATOM      9  C   UNL     1       0.744  10.255  19.686  0.00  0.00    +0.000 A 
ATOM     10  C   UNL     1       0.990   8.993  20.259  0.00  0.00    +0.000 A 
BRANCH   9  11
ATOM     11  S   UNL     1       0.005  11.590  20.641  0.00  0.00    +0.000 S 
ATOM     12  O   UNL     1      -1.422  11.551  20.348  0.00  0.00    +0.000 OA
ATOM     13  O   UNL     1       0.467  11.419  22.002  0.00  0.00    +0.000 OA
BRANCH  11  14
ATOM     14  N   UNL     1       0.605  13.045  20.074  0.00  0.00    +0.000 NA
ATOM     15  C   UNL     1      -0.237  13.979  19.304  0.00  0.00    +0.000 C 
ATOM     16  C   UNL     1      -0.896  14.964  20.250  0.00  0.00    +0.000 C 
ATOM     17  C   UNL     1       0.104  15.608  21.210  0.00  0.00    +0.000 C 
ATOM     18  F   UNL     1       0.735  16.610  20.528  0.00  0.00    +0.000 F 
ATOM     19  C   UNL     1       1.181  14.686  21.777  0.00  0.00    +0.000 C 
ATOM     20  C   UNL     1       1.723  13.732  20.734  0.00  0.00    +0.000 C 
ENDBRANCH  11  14
ENDBRANCH   9  11
ENDBRANCH   3   5
BRANCH   2  21
ATOM     21  C   UNL     1       2.599   4.404  20.155  0.00  0.00    +0.000 A 
ATOM     22  C   UNL     1       1.920   3.992  21.316  0.00  0.00    +0.000 A 
ATOM     23  C   UNL     1       2.255   2.787  21.929  0.00  0.00    +0.000 A 
ATOM     24  C   UNL     1       3.271   2.035  21.363  0.00  0.00    +0.000 A 
ATOM     25  N   UNL     1       3.955   2.409  20.259  0.00  0.00    +0.000 NA
ATOM     26  C   UNL     1       3.644   3.596  19.670  0.00  0.00    +0.000 A 
BRANCH  26  27
ATOM     27  N   UNL     1       4.402   3.945  18.569  0.00  0.00    +0.000 N 
ATOM     28  C   UNL     1       4.444   3.080  17.393  0.00  0.00    +0.000 C 
ATOM     29  C   UNL     1       4.569   4.009  16.174  0.00  0.00    +0.000 C 
ATOM     30  C   UNL     1       5.734   4.989  16.314  0.00  0.00    +0.000 C 
ATOM     31  C   UNL     1       5.879   5.634  17.688  0.00  0.00    +0.000 C 
ATOM     32  C   UNL     1       5.671   4.626  18.818  0.00  0.00    +0.000 C 
ATOM     33  C   UNL     1       6.969   4.801  15.463  0.00  0.00    +0.000 C 
ATOM     34  C   UNL     1       5.997   5.893  15.129  0.00  0.00    +0.000 C 
ENDBRANCH  26  27
ENDBRANCH   2  21
TORSDOF 5
ENDMDL
MODEL 7
REMARK VINA RESULT:      -7.8      3.762      9.851
REMARK  Name = 
REMARK  5 active torsions:
REMARK  status: ('A' for Active; 'I' for Inactive)
REMARK    1  A    between atoms: C_2  and  C_20
REMARK    2  A    between atoms: N_3  and  C_4
REMARK    3  A    between atoms: C_8  and  S_9
REMARK    4  A    between atoms: S_9  and  N_12
REMARK    5  A    between atoms: C_25  and  N_26
REMARK                            x       y       z     vdW  Elec       q    Type
REMARK                         _______ _______ _______ _____ _____    ______ ____
ROOT
ATOM      1  O   UNL     1       1.490  10.346  22.242  0.00  0.00    +0.000 OA
ATOM      2  C   UNL     1       0.475  10.593  21.601  0.00  0.00    +0.000 C 
ATOM      3  N   UNL     1       0.166   9.973  20.387  0.00  0.00    +0.000 N 
ATOM      4  H   UNL     1      -0.480  10.472  19.786  0.00  0.00    +0.000 HD
ENDROOT
BRANCH   3   5
ATOM      5  C   UNL     1       1.035   9.050  19.754  0.00  0.00    +0.000 A 
ATOM      6  C   UNL     1       1.593   9.420  18.526  0.00  0.00    +0.000 A 
ATOM      7  C   UNL     1       2.438   8.547  17.839  0.00  0.00    +0.000 A 
ATOM      8  C   UNL     1       2.682   7.269  18.342  0.00  0.00    +0.000 A 
ATOM      9  C   UNL     1       2.111   6.873  19.563  0.00  0.00    +0.000 A 
ATOM     10  C   UNL     1       1.298   7.772  20.278  0.00  0.00    +0.000 A 
BRANCH   9  11
ATOM     11  S   UNL     1       2.179   5.126  19.993  0.00  0.00    +0.000 S 
ATOM     12  O   UNL     1       2.868   5.055  21.276  0.00  0.00    +0.000 OA
ATOM     13  O   UNL     1       0.828   4.625  19.871  0.00  0.00    +0.000 OA
BRANCH  11  14
ATOM     14  N   UNL     1       3.124   4.336  18.861  0.00  0.00    +0.000 NA
ATOM     15  C   UNL     1       4.412   3.718  19.226  0.00  0.00    +0.000 C 
ATOM     16  C   UNL     1       4.186   2.267  19.606  0.00  0.00    +0.000 C 
ATOM     17  C   UNL     1       3.358   1.513  18.566  0.00  0.00    +0.000 C 
ATOM     18  F   UNL     1       4.203   1.166  17.549  0.00  0.00    +0.000 F 
ATOM     19  C   UNL     1       2.189   2.280  17.954  0.00  0.00    +0.000 C 
ATOM     20  C   UNL     1       2.543   3.722  17.659  0.00  0.00    +0.000 C 
ENDBRANCH  11  14
ENDBRANCH   9  11
ENDBRANCH   3   5
BRANCH   2  21
ATOM     21  C   UNL     1      -0.517  11.621  22.067  0.00  0.00    +0.000 A 
ATOM     22  C   UNL     1      -1.544  11.202  22.932  0.00  0.00    +0.000 A 
ATOM     23  C   UNL     1      -2.392  12.141  23.514  0.00  0.00    +0.000 A 
ATOM     24  C   UNL     1      -2.191  13.475  23.200  0.00  0.00    +0.000 A 
ATOM     25  N   UNL     1      -1.227  13.911  22.360  0.00  0.00    +0.000 NA
ATOM     26  C   UNL     1      -0.409  12.994  21.774  0.00  0.00    +0.000 A 
BRANCH  26  27
ATOM     27  N   UNL     1       0.532  13.493  20.895  0.00  0.00    +0.000 N 
ATOM     28  C   UNL     1       1.579  14.398  21.364  0.00  0.00    +0.000 C 
ATOM     29  C   UNL     1       2.829  14.089  20.524  0.00  0.00    +0.000 C 
ATOM     30  C   UNL     1       2.542  14.134  19.023  0.00  0.00    +0.000 C 
ATOM     31  C   UNL     1       1.240  13.467  18.591  0.00  0.00    +0.000 C 
ATOM     32  C   UNL     1       0.086  13.798  19.537  0.00  0.00    +0.000 C 
ATOM     33  C   UNL     1       3.083  15.279  18.198  0.00  0.00    +0.000 C 
ATOM     34  C   UNL     1       3.727  13.927  18.105  0.00  0.00    +0.000 C 
ENDBRANCH  26  27
ENDBRANCH   2  21
TORSDOF 5
ENDMDL
MODEL 8
REMARK VINA RESULT:      -7.8      2.476      4.518
REMARK  Name = 
REMARK  5 active torsions:
REMARK  status: ('A' for Active; 'I' for Inactive)
REMARK    1  A    between atoms: C_2  and  C_20
REMARK    2  A    between atoms: N_3  and  C_4
REMARK    3  A    between atoms: C_8  and  S_9
REMARK    4  A    between atoms: S_9  and  N_12
REMARK    5  A    between atoms: C_25  and  N_26
REMARK                            x       y       z     vdW  Elec       q    Type
REMARK                         _______ _______ _______ _____ _____    ______ ____
ROOT
ATOM      1  O   UNL     1       2.147   6.604  21.116  0.00  0.00    +0.000 OA
ATOM      2  C   UNL     1       2.027   6.137  19.989  0.00  0.00    +0.000 C 
ATOM      3  N   UNL     1       1.802   6.921  18.855  0.00  0.00    +0.000 N 
ATOM      4  H   UNL     1       1.384   6.446  18.063  0.00  0.00    +0.000 HD
ENDROOT
BRANCH   3   5
ATOM      5  C   UNL     1       1.623   8.326  18.917  0.00  0.00    +0.000 A 
ATOM      6  C   UNL     1       2.178   9.097  17.891  0.00  0.00    +0.000 A 
ATOM      7  C   UNL     1       2.060  10.487  17.905  0.00  0.00    +0.000 A 
ATOM      8  C   UNL     1       1.440  11.126  18.980  0.00  0.00    +0.000 A 
ATOM      9  C   UNL     1       0.897  10.368  20.030  0.00  0.00    +0.000 A 
ATOM     10  C   UNL     1       0.976   8.963  19.991  0.00  0.00    +0.000 A 
BRANCH   9  11
ATOM     11  S   UNL     1       0.419  11.237  21.533  0.00  0.00    +0.000 S 
ATOM     12  O   UNL     1       0.647  10.302  22.627  0.00  0.00    +0.000 OA
ATOM     13  O   UNL     1       1.118  12.504  21.508  0.00  0.00    +0.000 OA
BRANCH  11  14
ATOM     14  N   UNL     1      -1.222  11.555  21.463  0.00  0.00    +0.000 NA
ATOM     15  C   UNL     1      -1.993  11.897  22.672  0.00  0.00    +0.000 C 
ATOM     16  C   UNL     1      -2.015  13.404  22.849  0.00  0.00    +0.000 C 
ATOM     17  C   UNL     1      -2.424  14.135  21.571  0.00  0.00    +0.000 C 
ATOM     18  F   UNL     1      -3.787  14.075  21.487  0.00  0.00    +0.000 F 
ATOM     19  C   UNL     1      -1.857  13.577  20.267  0.00  0.00    +0.000 C 
ATOM     20  C   UNL     1      -1.862  12.063  20.242  0.00  0.00    +0.000 C 
ENDBRANCH  11  14
ENDBRANCH   9  11
ENDBRANCH   3   5
BRANCH   2  21
ATOM     21  C   UNL     1       2.088   4.656  19.743  0.00  0.00    +0.000 A 
ATOM     22  C   UNL     1       1.047   3.859  20.253  0.00  0.00    +0.000 A 
ATOM     23  C   UNL     1       0.975   2.508  19.920  0.00  0.00    +0.000 A 
ATOM     24  C   UNL     1       1.959   1.994  19.093  0.00  0.00    +0.000 A 
ATOM     25  N   UNL     1       2.982   2.726  18.599  0.00  0.00    +0.000 NA
ATOM     26  C   UNL     1       3.067   4.041  18.939  0.00  0.00    +0.000 A 
BRANCH  26  27
ATOM     27  N   UNL     1       4.154   4.730  18.438  0.00  0.00    +0.000 N 
ATOM     28  C   UNL     1       4.180   5.161  17.042  0.00  0.00    +0.000 C 
ATOM     29  C   UNL     1       4.940   6.497  17.014  0.00  0.00    +0.000 C 
ATOM     30  C   UNL     1       6.303   6.401  17.700  0.00  0.00    +0.000 C 
ATOM     31  C   UNL     1       6.314   5.630  19.016  0.00  0.00    +0.000 C 
ATOM     32  C   UNL     1       5.474   4.355  18.940  0.00  0.00    +0.000 C 
ATOM     33  C   UNL     1       7.560   6.429  16.860  0.00  0.00    +0.000 C 
ATOM     34  C   UNL     1       7.168   7.641  17.653  0.00  0.00    +0.000 C 
ENDBRANCH  26  27
ENDBRANCH   2  21
TORSDOF 5
ENDMDL
MODEL 9
REMARK VINA RESULT:      -7.7      0.593      1.100
REMARK  Name = 
REMARK  5 active torsions:
REMARK  status: ('A' for Active; 'I' for Inactive)
REMARK    1  A    between atoms: C_2  and  C_20
REMARK    2  A    between atoms: N_3  and  C_4
REMARK    3  A    between atoms: C_8  and  S_9
REMARK    4  A    between atoms: S_9  and  N_12
REMARK    5  A    between atoms: C_25  and  N_26
REMARK                            x       y       z     vdW  Elec       q    Type
REMARK                         _______ _______ _______ _____ _____    ______ ____
ROOT
ATOM      1  O   UNL     1       4.909   7.799  17.873  0.00  0.00    +0.000 OA
ATOM      2  C   UNL     1       4.194   6.889  17.468  0.00  0.00    +0.000 C 
ATOM      3  N   UNL     1       2.862   6.730  17.859  0.00  0.00    +0.000 N 
ATOM      4  H   UNL     1       2.477   5.798  17.757  0.00  0.00    +0.000 HD
ENDROOT
BRANCH   3   5
ATOM      5  C   UNL     1       2.237   7.572  18.813  0.00  0.00    +0.000 A 
ATOM      6  C   UNL     1       2.155   7.110  20.130  0.00  0.00    +0.000 A 
ATOM      7  C   UNL     1       1.530   7.879  21.114  0.00  0.00    +0.000 A 
ATOM      8  C   UNL     1       0.925   9.090  20.775  0.00  0.00    +0.000 A 
ATOM      9  C   UNL     1       0.978   9.557  19.452  0.00  0.00    +0.000 A 
ATOM     10  C   UNL     1       1.650   8.803  18.471  0.00  0.00    +0.000 A 
BRANCH   9  11
ATOM     11  S   UNL     1      -0.093  10.933  19.004  0.00  0.00    +0.000 S 
ATOM     12  O   UNL     1       0.171  11.206  17.597  0.00  0.00    +0.000 OA
ATOM     13  O   UNL     1      -1.426  10.565  19.430  0.00  0.00    +0.000 OA
BRANCH  11  14
ATOM     14  N   UNL     1       0.374  12.278  19.883  0.00  0.00    +0.000 NA
ATOM     15  C   UNL     1       1.796  12.601  20.101  0.00  0.00    +0.000 C 
ATOM     16  C   UNL     1       2.278  13.527  18.999  0.00  0.00    +0.000 C 
ATOM     17  C   UNL     1       1.349  14.722  18.792  0.00  0.00    +0.000 C 
ATOM     18  F   UNL     1       1.646  15.640  19.761  0.00  0.00    +0.000 F 
ATOM     19  C   UNL     1      -0.147  14.431  18.875  0.00  0.00    +0.000 C 
ATOM     20  C   UNL     1      -0.482  13.467  19.993  0.00  0.00    +0.000 C 
ENDBRANCH  11  14
ENDBRANCH   9  11
ENDBRANCH   3   5
BRANCH   2  21
ATOM     21  C   UNL     1       4.716   5.840  16.527  0.00  0.00    +0.000 A 
ATOM     22  C   UNL     1       5.468   6.265  15.417  0.00  0.00    +0.000 A 
ATOM     23  C   UNL     1       6.103   5.329  14.604  0.00  0.00    +0.000 A 
ATOM     24  C   UNL     1       5.953   3.989  14.924  0.00  0.00    +0.000 A 
ATOM     25  N   UNL     1       5.224   3.545  15.972  0.00  0.00    +0.000 NA
ATOM     26  C   UNL     1       4.586   4.457  16.756  0.00  0.00    +0.000 A 
BRANCH  26  27
ATOM     27  N   UNL     1       3.824   3.944  17.787  0.00  0.00    +0.000 N 
ATOM     28  C   UNL     1       4.462   3.437  19.000  0.00  0.00    +0.000 C 
ATOM     29  C   UNL     1       3.506   3.759  20.160  0.00  0.00    +0.000 C 
ATOM     30  C   UNL     1       2.089   3.250  19.899  0.00  0.00    +0.000 C 
ATOM     31  C   UNL     1       1.563   3.490  18.488  0.00  0.00    +0.000 C 
ATOM     32  C   UNL     1       2.622   3.197  17.425  0.00  0.00    +0.000 C 
ATOM     33  C   UNL     1       1.571   2.062  20.678  0.00  0.00    +0.000 C 
ATOM     34  C   UNL     1       1.089   3.441  21.018  0.00  0.00    +0.000 C 
ENDBRANCH  26  27
ENDBRANCH   2  21
TORSDOF 5
ENDMDL
