MODEL 1
REMARK VINA RESULT:      -7.6      0.000      0.000
REMARK  Name = 
REMARK  9 active torsions:
REMARK  status: ('A' for Active; 'I' for Inactive)
REMARK    1  A    between atoms: C_1  and  C_2
REMARK    2  A    between atoms: C_2  and  O_3
REMARK    3  A    between atoms: O_3  and  C_4
REMARK    4  A    between atoms: C_4  and  C_6
REMARK    5  A    between atoms: C_6  and  C_7
REMARK    6  A    between atoms: C_7  and  C_8
REMARK    7  A    between atoms: C_18  and  C_20
REMARK    8  A    between atoms: C_20  and  C_21
REMARK    9  A    between atoms: C_21  and  C_22
REMARK                            x       y       z     vdW  Elec       q    Type
REMARK                         _______ _______ _______ _____ _____    ______ ____
ROOT
ATOM      1  C   UNL     1       4.329   4.660  18.602  0.00  0.00    +0.000 C 
ATOM      2  C   UNL     1       4.900   4.465  17.151  0.00  0.00    +0.000 C 
ATOM      3  C   UNL     1       6.394   4.693  16.886  0.00  0.00    +0.000 C 
ATOM      4  N   UNL     1       6.980   5.690  17.766  0.00  0.00    +0.000 N 
ATOM      5  C   UNL     1       7.640   6.810  17.254  0.00  0.00    +0.000 C 
ATOM      6  O   UNL     1       7.723   7.036  16.046  0.00  0.00    +0.000 OA
ATOM      7  C   UNL     1       6.675   5.471  19.169  0.00  0.00    +0.000 C 
ATOM      8  C   UNL     1       5.176   5.720  19.368  0.00  0.00    +0.000 C 
ENDROOT
BRANCH   1   9
ATOM      9  C   UNL     1       4.299   3.434  19.542  0.00  0.00    +0.000 C 
ATOM     10  O   UNL     1       5.316   2.985  20.068  0.00  0.00    +0.000 OA
BRANCH   9  11
ATOM     11  O   UNL     1       3.083   2.851  19.692  0.00  0.00    +0.000 OA
BRANCH  11  13
ATOM     12  C   UNL     1       1.320   3.282  21.375  0.00  0.00    +0.000 C 
ATOM     13  C   UNL     1       2.679   2.675  21.070  0.00  0.00    +0.000 C 
ENDBRANCH  11  13
ENDBRANCH   9  11
ENDBRANCH   1   9
BRANCH   1  14
ATOM     14  C   UNL     1       2.839   5.075  18.340  0.00  0.00    +0.000 C 
BRANCH  14  15
ATOM     15  C   UNL     1       2.341   6.439  18.734  0.00  0.00    +0.000 A 
ATOM     16  C   UNL     1       1.948   6.704  20.050  0.00  0.00    +0.000 A 
ATOM     17  C   UNL     1       1.435   7.955  20.392  0.00  0.00    +0.000 A 
ATOM     18  C   UNL     1       1.339   8.954  19.426  0.00  0.00    +0.000 A 
ATOM     19 CL   UNL     1       0.639  10.472  19.833  0.00  0.00    +0.000 Cl
ATOM     20  C   UNL     1       1.795   8.728  18.130  0.00  0.00    +0.000 A 
ATOM     21  C   UNL     1       2.298   7.473  17.786  0.00  0.00    +0.000 A 
ENDBRANCH  14  15
ENDBRANCH   1  14
BRANCH   5  22
ATOM     22  C   UNL     1       8.292   7.731  18.275  0.00  0.00    +0.000 C 
BRANCH  22  23
ATOM     23  C   UNL     1       7.988   9.218  18.088  0.00  0.00    +0.000 C 
BRANCH  23  24
ATOM     24  C   UNL     1       9.060  10.090  18.688  0.00  0.00    +0.000 A 
ATOM     25  C   UNL     1       9.983  10.757  17.886  0.00  0.00    +0.000 A 
ATOM     26  N   UNL     1      10.953  11.565  18.378  0.00  0.00    +0.000 NA
ATOM     27  C   UNL     1      10.962  11.698  19.720  0.00  0.00    +0.000 A 
ATOM     28  C   UNL     1      10.049  11.053  20.534  0.00  0.00    +0.000 A 
ATOM     29  N   UNL     1       9.081  10.246  20.041  0.00  0.00    +0.000 NA
ENDBRANCH  23  24
ENDBRANCH  22  23
ENDBRANCH   5  22
TORSDOF 8
ENDMDL
MODEL 2
REMARK VINA RESULT:      -7.4      0.562      1.283
REMARK  Name = 
REMARK  9 active torsions:
REMARK  status: ('A' for Active; 'I' for Inactive)
REMARK    1  A    between atoms: C_1  and  C_2
REMARK    2  A    between atoms: C_2  and  O_3
REMARK    3  A    between atoms: O_3  and  C_4
REMARK    4  A    between atoms: C_4  and  C_6
REMARK    5  A    between atoms: C_6  and  C_7
REMARK    6  A    between atoms: C_7  and  C_8
REMARK    7  A    between atoms: C_18  and  C_20
REMARK    8  A    between atoms: C_20  and  C_21
REMARK    9  A    between atoms: C_21  and  C_22
REMARK                            x       y       z     vdW  Elec       q    Type
REMARK                         _______ _______ _______ _____ _____    ______ ____
ROOT
ATOM      1  C   UNL     1       4.311   4.783  18.453  0.00  0.00    +0.000 C 
ATOM      2  C   UNL     1       4.952   4.595  17.031  0.00  0.00    +0.000 C 
ATOM      3  C   UNL     1       6.458   4.815  16.842  0.00  0.00    +0.000 C 
ATOM      4  N   UNL     1       7.007   5.802  17.757  0.00  0.00    +0.000 N 
ATOM      5  C   UNL     1       7.698   6.921  17.286  0.00  0.00    +0.000 C 
ATOM      6  O   UNL     1       7.842   7.155  16.086  0.00  0.00    +0.000 OA
ATOM      7  C   UNL     1       6.631   5.575  19.141  0.00  0.00    +0.000 C 
ATOM      8  C   UNL     1       5.126   5.832  19.268  0.00  0.00    +0.000 C 
ENDROOT
BRANCH   1   9
ATOM      9  C   UNL     1       4.227   3.551  19.382  0.00  0.00    +0.000 C 
ATOM     10  O   UNL     1       5.225   3.038  19.883  0.00  0.00    +0.000 OA
BRANCH   9  11
ATOM     11  O   UNL     1       2.982   3.039  19.551  0.00  0.00    +0.000 OA
BRANCH  11  13
ATOM     12  C   UNL     1       2.065   3.516  21.800  0.00  0.00    +0.000 C 
ATOM     13  C   UNL     1       2.735   2.513  20.876  0.00  0.00    +0.000 C 
ENDBRANCH  11  13
ENDBRANCH   9  11
ENDBRANCH   1   9
BRANCH   1  14
ATOM     14  C   UNL     1       2.838   5.210  18.121  0.00  0.00    +0.000 C 
BRANCH  14  15
ATOM     15  C   UNL     1       2.290   6.523  18.612  0.00  0.00    +0.000 A 
ATOM     16  C   UNL     1       2.090   7.589  17.731  0.00  0.00    +0.000 A 
ATOM     17  C   UNL     1       1.636   8.819  18.206  0.00  0.00    +0.000 A 
ATOM     18  C   UNL     1       1.353   8.978  19.561  0.00  0.00    +0.000 A 
ATOM     19 CL   UNL     1       0.862  10.516  20.156  0.00  0.00    +0.000 Cl
ATOM     20  C   UNL     1       1.476   7.904  20.438  0.00  0.00    +0.000 A 
ATOM     21  C   UNL     1       1.941   6.677  19.964  0.00  0.00    +0.000 A 
ENDBRANCH  14  15
ENDBRANCH   1  14
BRANCH   5  22
ATOM     22  C   UNL     1       8.305   7.831  18.344  0.00  0.00    +0.000 C 
BRANCH  22  23
ATOM     23  C   UNL     1       7.973   9.315  18.184  0.00  0.00    +0.000 C 
BRANCH  23  24
ATOM     24  C   UNL     1       9.086  10.196  18.691  0.00  0.00    +0.000 A 
ATOM     25  C   UNL     1       9.245  10.449  20.051  0.00  0.00    +0.000 A 
ATOM     26  N   UNL     1      10.239  11.220  20.557  0.00  0.00    +0.000 NA
ATOM     27  C   UNL     1      11.091  11.726  19.642  0.00  0.00    +0.000 A 
ATOM     28  C   UNL     1      10.957  11.480  18.288  0.00  0.00    +0.000 A 
ATOM     29  N   UNL     1       9.964  10.710  17.786  0.00  0.00    +0.000 NA
ENDBRANCH  23  24
ENDBRANCH  22  23
ENDBRANCH   5  22
TORSDOF 8
ENDMDL
MODEL 3
REMARK VINA RESULT:      -7.3      3.823      7.949
REMARK  Name = 
REMARK  9 active torsions:
REMARK  status: ('A' for Active; 'I' for Inactive)
REMARK    1  A    between atoms: C_1  and  C_2
REMARK    2  A    between atoms: C_2  and  O_3
REMARK    3  A    between atoms: O_3  and  C_4
REMARK    4  A    between atoms: C_4  and  C_6
REMARK    5  A    between atoms: C_6  and  C_7
REMARK    6  A    between atoms: C_7  and  C_8
REMARK    7  A    between atoms: C_18  and  C_20
REMARK    8  A    between atoms: C_20  and  C_21
REMARK    9  A    between atoms: C_21  and  C_22
REMARK                            x       y       z     vdW  Elec       q    Type
REMARK                         _______ _______ _______ _____ _____    ______ ____
ROOT
ATOM      1  C   UNL     1       5.954   4.920  17.041  0.00  0.00    +0.000 C 
ATOM      2  C   UNL     1       5.111   6.073  16.385  0.00  0.00    +0.000 C 
ATOM      3  C   UNL     1       4.320   7.036  17.279  0.00  0.00    +0.000 C 
ATOM      4  N   UNL     1       3.864   6.420  18.514  0.00  0.00    +0.000 N 
ATOM      5  C   UNL     1       2.511   6.412  18.864  0.00  0.00    +0.000 C 
ATOM      6  O   UNL     1       1.636   6.881  18.136  0.00  0.00    +0.000 OA
ATOM      7  C   UNL     1       4.914   5.712  19.225  0.00  0.00    +0.000 C 
ATOM      8  C   UNL     1       5.305   4.489  18.390  0.00  0.00    +0.000 C 
ENDROOT
BRANCH   1   9
ATOM      9  C   UNL     1       7.430   5.209  17.395  0.00  0.00    +0.000 C 
ATOM     10  O   UNL     1       8.145   4.380  17.955  0.00  0.00    +0.000 OA
BRANCH   9  11
ATOM     11  O   UNL     1       7.859   6.464  17.104  0.00  0.00    +0.000 OA
BRANCH  11  13
ATOM     12  C   UNL     1       8.028   8.792  17.926  0.00  0.00    +0.000 C 
ATOM     13  C   UNL     1       8.036   7.310  18.264  0.00  0.00    +0.000 C 
ENDBRANCH  11  13
ENDBRANCH   9  11
ENDBRANCH   1   9
BRANCH   1  14
ATOM     14  C   UNL     1       5.957   3.812  15.930  0.00  0.00    +0.000 C 
BRANCH  14  15
ATOM     15  C   UNL     1       6.403   4.131  14.528  0.00  0.00    +0.000 A 
ATOM     16  C   UNL     1       7.487   4.983  14.299  0.00  0.00    +0.000 A 
ATOM     17  C   UNL     1       7.856   5.318  12.997  0.00  0.00    +0.000 A 
ATOM     18  C   UNL     1       7.159   4.779  11.918  0.00  0.00    +0.000 A 
ATOM     19 CL   UNL     1       7.569   5.250  10.315  0.00  0.00    +0.000 Cl
ATOM     20  C   UNL     1       6.125   3.872  12.128  0.00  0.00    +0.000 A 
ATOM     21  C   UNL     1       5.749   3.546  13.432  0.00  0.00    +0.000 A 
ENDBRANCH  14  15
ENDBRANCH   1  14
BRANCH   5  22
ATOM     22  C   UNL     1       2.173   5.821  20.225  0.00  0.00    +0.000 C 
BRANCH  22  23
ATOM     23  C   UNL     1       1.334   4.543  20.180  0.00  0.00    +0.000 C 
BRANCH  23  24
ATOM     24  C   UNL     1       2.091   3.395  19.563  0.00  0.00    +0.000 A 
ATOM     25  C   UNL     1       1.880   3.019  18.239  0.00  0.00    +0.000 A 
ATOM     26  N   UNL     1       2.548   2.006  17.635  0.00  0.00    +0.000 NA
ATOM     27  C   UNL     1       3.459   1.381  18.408  0.00  0.00    +0.000 A 
ATOM     28  C   UNL     1       3.691   1.745  19.722  0.00  0.00    +0.000 A 
ATOM     29  N   UNL     1       3.023   2.756  20.323  0.00  0.00    +0.000 NA
ENDBRANCH  23  24
ENDBRANCH  22  23
ENDBRANCH   5  22
TORSDOF 8
ENDMDL
MODEL 4
REMARK VINA RESULT:      -7.1      1.022      1.670
REMARK  Name = 
REMARK  9 active torsions:
REMARK  status: ('A' for Active; 'I' for Inactive)
REMARK    1  A    between atoms: C_1  and  C_2
REMARK    2  A    between atoms: C_2  and  O_3
REMARK    3  A    between atoms: O_3  and  C_4
REMARK    4  A    between atoms: C_4  and  C_6
REMARK    5  A    between atoms: C_6  and  C_7
REMARK    6  A    between atoms: C_7  and  C_8
REMARK    7  A    between atoms: C_18  and  C_20
REMARK    8  A    between atoms: C_20  and  C_21
REMARK    9  A    between atoms: C_21  and  C_22
REMARK                            x       y       z     vdW  Elec       q    Type
REMARK                         _______ _______ _______ _____ _____    ______ ____
ROOT
ATOM      1  C   UNL     1       4.042   5.097  18.530  0.00  0.00    +0.000 C 
ATOM      2  C   UNL     1       4.684   4.733  17.143  0.00  0.00    +0.000 C 
ATOM      3  C   UNL     1       6.206   4.812  16.967  0.00  0.00    +0.000 C 
ATOM      4  N   UNL     1       6.822   5.826  17.805  0.00  0.00    +0.000 N 
ATOM      5  C   UNL     1       7.611   6.840  17.254  0.00  0.00    +0.000 C 
ATOM      6  O   UNL     1       7.790   6.956  16.041  0.00  0.00    +0.000 OA
ATOM      7  C   UNL     1       6.410   5.753  19.196  0.00  0.00    +0.000 C 
ATOM      8  C   UNL     1       4.931   6.142  19.268  0.00  0.00    +0.000 C 
ENDROOT
BRANCH   1   9
ATOM      9  C   UNL     1       3.843   3.961  19.559  0.00  0.00    +0.000 C 
ATOM     10  O   UNL     1       3.130   4.093  20.552  0.00  0.00    +0.000 OA
BRANCH   9  11
ATOM     11  O   UNL     1       4.562   2.835  19.322  0.00  0.00    +0.000 OA
BRANCH  11  13
ATOM     12  C   UNL     1       2.786   1.778  17.960  0.00  0.00    +0.000 C 
ATOM     13  C   UNL     1       3.755   1.651  19.124  0.00  0.00    +0.000 C 
ENDBRANCH  11  13
ENDBRANCH   9  11
ENDBRANCH   1   9
BRANCH   1  14
ATOM     14  C   UNL     1       2.615   5.612  18.132  0.00  0.00    +0.000 C 
BRANCH  14  15
ATOM     15  C   UNL     1       2.129   6.959  18.592  0.00  0.00    +0.000 A 
ATOM     16  C   UNL     1       2.005   8.021  17.691  0.00  0.00    +0.000 A 
ATOM     17  C   UNL     1       1.609   9.281  18.139  0.00  0.00    +0.000 A 
ATOM     18  C   UNL     1       1.308   9.477  19.485  0.00  0.00    +0.000 A 
ATOM     19 CL   UNL     1       0.890  11.048  20.048  0.00  0.00    +0.000 Cl
ATOM     20  C   UNL     1       1.355   8.412  20.380  0.00  0.00    +0.000 A 
ATOM     21  C   UNL     1       1.762   7.154  19.934  0.00  0.00    +0.000 A 
ENDBRANCH  14  15
ENDBRANCH   1  14
BRANCH   5  22
ATOM     22  C   UNL     1       8.277   7.786  18.243  0.00  0.00    +0.000 C 
BRANCH  22  23
ATOM     23  C   UNL     1       7.967   9.268  18.026  0.00  0.00    +0.000 C 
BRANCH  23  24
ATOM     24  C   UNL     1       9.033  10.156  18.612  0.00  0.00    +0.000 A 
ATOM     25  C   UNL     1       9.129  10.360  19.986  0.00  0.00    +0.000 A 
ATOM     26  N   UNL     1      10.080  11.136  20.562  0.00  0.00    +0.000 NA
ATOM     27  C   UNL     1      10.955  11.699  19.704  0.00  0.00    +0.000 A 
ATOM     28  C   UNL     1      10.884  11.501  18.337  0.00  0.00    +0.000 A 
ATOM     29  N   UNL     1       9.934  10.727  17.765  0.00  0.00    +0.000 NA
ENDBRANCH  23  24
ENDBRANCH  22  23
ENDBRANCH   5  22
TORSDOF 8
ENDMDL
MODEL 5
REMARK VINA RESULT:      -6.9      4.134      7.244
REMARK  Name = 
REMARK  9 active torsions:
REMARK  status: ('A' for Active; 'I' for Inactive)
REMARK    1  A    between atoms: C_1  and  C_2
REMARK    2  A    between atoms: C_2  and  O_3
REMARK    3  A    between atoms: O_3  and  C_4
REMARK    4  A    between atoms: C_4  and  C_6
REMARK    5  A    between atoms: C_6  and  C_7
REMARK    6  A    between atoms: C_7  and  C_8
REMARK    7  A    between atoms: C_18  and  C_20
REMARK    8  A    between atoms: C_20  and  C_21
REMARK    9  A    between atoms: C_21  and  C_22
REMARK                            x       y       z     vdW  Elec       q    Type
REMARK                         _______ _______ _______ _____ _____    ______ ____
ROOT
ATOM      1  C   UNL     1       0.372  10.350  19.700  0.00  0.00    +0.000 C 
ATOM      2  C   UNL     1       0.470   9.365  20.920  0.00  0.00    +0.000 C 
ATOM      3  C   UNL     1       1.605   8.334  20.974  0.00  0.00    +0.000 C 
ATOM      4  N   UNL     1       2.039   7.900  19.657  0.00  0.00    +0.000 N 
ATOM      5  C   UNL     1       2.041   6.547  19.304  0.00  0.00    +0.000 C 
ATOM      6  O   UNL     1       1.639   5.664  20.062  0.00  0.00    +0.000 OA
ATOM      7  C   UNL     1       2.308   8.999  18.747  0.00  0.00    +0.000 C 
ATOM      8  C   UNL     1       0.974   9.681  18.428  0.00  0.00    +0.000 C 
ENDROOT
BRANCH   1   9
ATOM      9  C   UNL     1       1.098  11.711  19.804  0.00  0.00    +0.000 C 
ATOM     10  O   UNL     1       1.469  12.176  20.879  0.00  0.00    +0.000 OA
BRANCH   9  11
ATOM     11  O   UNL     1       1.235  12.382  18.632  0.00  0.00    +0.000 OA
BRANCH  11  13
ATOM     12  C   UNL     1       2.443  14.531  18.413  0.00  0.00    +0.000 C 
ATOM     13  C   UNL     1       2.525  13.015  18.464  0.00  0.00    +0.000 C 
ENDBRANCH  11  13
ENDBRANCH   9  11
ENDBRANCH   1   9
BRANCH   1  14
ATOM     14  C   UNL     1      -1.165  10.654  19.617  0.00  0.00    +0.000 C 
BRANCH  14  15
ATOM     15  C   UNL     1      -1.896  10.564  18.305  0.00  0.00    +0.000 A 
ATOM     16  C   UNL     1      -2.667   9.442  17.990  0.00  0.00    +0.000 A 
ATOM     17  C   UNL     1      -3.293   9.344  16.747  0.00  0.00    +0.000 A 
ATOM     18  C   UNL     1      -3.173  10.382  15.826  0.00  0.00    +0.000 A 
ATOM     19 CL   UNL     1      -3.886  10.228  14.268  0.00  0.00    +0.000 Cl
ATOM     20  C   UNL     1      -2.471  11.538  16.154  0.00  0.00    +0.000 A 
ATOM     21  C   UNL     1      -1.835  11.630  17.392  0.00  0.00    +0.000 A 
ENDBRANCH  14  15
ENDBRANCH   1  14
BRANCH   5  22
ATOM     22  C   UNL     1       2.606   6.212  17.931  0.00  0.00    +0.000 C 
BRANCH  22  23
ATOM     23  C   UNL     1       3.556   5.014  17.902  0.00  0.00    +0.000 C 
BRANCH  23  24
ATOM     24  C   UNL     1       4.981   5.421  18.175  0.00  0.00    +0.000 A 
ATOM     25  C   UNL     1       5.620   5.063  19.360  0.00  0.00    +0.000 A 
ATOM     26  N   UNL     1       6.904   5.390  19.644  0.00  0.00    +0.000 NA
ATOM     27  C   UNL     1       7.543   6.087  18.681  0.00  0.00    +0.000 A 
ATOM     28  C   UNL     1       6.931   6.443  17.494  0.00  0.00    +0.000 A 
ATOM     29  N   UNL     1       5.649   6.115  17.213  0.00  0.00    +0.000 NA
ENDBRANCH  23  24
ENDBRANCH  22  23
ENDBRANCH   5  22
TORSDOF 8
ENDMDL
MODEL 6
REMARK VINA RESULT:      -6.8      0.677      1.121
REMARK  Name = 
REMARK  9 active torsions:
REMARK  status: ('A' for Active; 'I' for Inactive)
REMARK    1  A    between atoms: C_1  and  C_2
REMARK    2  A    between atoms: C_2  and  O_3
REMARK    3  A    between atoms: O_3  and  C_4
REMARK    4  A    between atoms: C_4  and  C_6
REMARK    5  A    between atoms: C_6  and  C_7
REMARK    6  A    between atoms: C_7  and  C_8
REMARK    7  A    between atoms: C_18  and  C_20
REMARK    8  A    between atoms: C_20  and  C_21
REMARK    9  A    between atoms: C_21  and  C_22
REMARK                            x       y       z     vdW  Elec       q    Type
REMARK                         _______ _______ _______ _____ _____    ______ ____
ROOT
ATOM      1  C   UNL     1       4.467   4.721  18.368  0.00  0.00    +0.000 C 
ATOM      2  C   UNL     1       5.092   4.633  16.928  0.00  0.00    +0.000 C 
ATOM      3  C   UNL     1       6.588   4.906  16.733  0.00  0.00    +0.000 C 
ATOM      4  N   UNL     1       7.123   5.852  17.697  0.00  0.00    +0.000 N 
ATOM      5  C   UNL     1       7.777   7.016  17.283  0.00  0.00    +0.000 C 
ATOM      6  O   UNL     1       7.897   7.323  16.097  0.00  0.00    +0.000 OA
ATOM      7  C   UNL     1       6.775   5.536  19.070  0.00  0.00    +0.000 C 
ATOM      8  C   UNL     1       5.265   5.743  19.232  0.00  0.00    +0.000 C 
ENDROOT
BRANCH   1   9
ATOM      9  C   UNL     1       4.430   3.435  19.224  0.00  0.00    +0.000 C 
ATOM     10  O   UNL     1       4.990   3.357  20.315  0.00  0.00    +0.000 OA
BRANCH   9  11
ATOM     11  O   UNL     1       3.792   2.381  18.655  0.00  0.00    +0.000 OA
BRANCH  11  13
ATOM     12  C   UNL     1       1.362   2.353  19.127  0.00  0.00    +0.000 C 
ATOM     13  C   UNL     1       2.741   1.816  19.473  0.00  0.00    +0.000 C 
ENDBRANCH  11  13
ENDBRANCH   9  11
ENDBRANCH   1   9
BRANCH   1  14
ATOM     14  C   UNL     1       2.978   5.125  18.080  0.00  0.00    +0.000 C 
BRANCH  14  15
ATOM     15  C   UNL     1       2.410   6.403  18.635  0.00  0.00    +0.000 A 
ATOM     16  C   UNL     1       2.281   7.539  17.829  0.00  0.00    +0.000 A 
ATOM     17  C   UNL     1       1.807   8.734  18.368  0.00  0.00    +0.000 A 
ATOM     18  C   UNL     1       1.431   8.791  19.708  0.00  0.00    +0.000 A 
ATOM     19 CL   UNL     1       0.915  10.284  20.388  0.00  0.00    +0.000 Cl
ATOM     20  C   UNL     1       1.483   7.650  20.504  0.00  0.00    +0.000 A 
ATOM     21  C   UNL     1       1.969   6.457  19.967  0.00  0.00    +0.000 A 
ENDBRANCH  14  15
ENDBRANCH   1  14
BRANCH   5  22
ATOM     22  C   UNL     1       8.375   7.879  18.385  0.00  0.00    +0.000 C 
BRANCH  22  23
ATOM     23  C   UNL     1       8.028   9.366  18.298  0.00  0.00    +0.000 C 
BRANCH  23  24
ATOM     24  C   UNL     1       9.153  10.235  18.800  0.00  0.00    +0.000 A 
ATOM     25  C   UNL     1      10.065  10.814  17.923  0.00  0.00    +0.000 A 
ATOM     26  N   UNL     1      11.082  11.616  18.324  0.00  0.00    +0.000 NA
ATOM     27  C   UNL     1      11.147  11.834  19.653  0.00  0.00    +0.000 A 
ATOM     28  C   UNL     1      10.245  11.277  20.541  0.00  0.00    +0.000 A 
ATOM     29  N   UNL     1       9.232  10.477  20.138  0.00  0.00    +0.000 NA
ENDBRANCH  23  24
ENDBRANCH  22  23
ENDBRANCH   5  22
TORSDOF 8
ENDMDL
MODEL 7
REMARK VINA RESULT:      -6.7      4.926      8.308
REMARK  Name = 
REMARK  9 active torsions:
REMARK  status: ('A' for Active; 'I' for Inactive)
REMARK    1  A    between atoms: C_1  and  C_2
REMARK    2  A    between atoms: C_2  and  O_3
REMARK    3  A    between atoms: O_3  and  C_4
REMARK    4  A    between atoms: C_4  and  C_6
REMARK    5  A    between atoms: C_6  and  C_7
REMARK    6  A    between atoms: C_7  and  C_8
REMARK    7  A    between atoms: C_18  and  C_20
REMARK    8  A    between atoms: C_20  and  C_21
REMARK    9  A    between atoms: C_21  and  C_22
REMARK                            x       y       z     vdW  Elec       q    Type
REMARK                         _______ _______ _______ _____ _____    ______ ____
ROOT
ATOM      1  C   UNL     1      -0.036  10.640  19.446  0.00  0.00    +0.000 C 
ATOM      2  C   UNL     1       0.111   9.825  20.782  0.00  0.00    +0.000 C 
ATOM      3  C   UNL     1       1.331   8.918  20.986  0.00  0.00    +0.000 C 
ATOM      4  N   UNL     1       1.844   8.367  19.742  0.00  0.00    +0.000 N 
ATOM      5  C   UNL     1       1.977   6.988  19.561  0.00  0.00    +0.000 C 
ATOM      6  O   UNL     1       1.632   6.171  20.414  0.00  0.00    +0.000 OA
ATOM      7  C   UNL     1       2.041   9.367  18.708  0.00  0.00    +0.000 C 
ATOM      8  C   UNL     1       0.663   9.879  18.280  0.00  0.00    +0.000 C 
ENDROOT
BRANCH   1   9
ATOM      9  C   UNL     1       0.561  12.064  19.394  0.00  0.00    +0.000 C 
ATOM     10  O   UNL     1       0.408  12.805  18.425  0.00  0.00    +0.000 OA
BRANCH   9  11
ATOM     11  O   UNL     1       1.320  12.411  20.464  0.00  0.00    +0.000 OA
BRANCH  11  13
ATOM     12  C   UNL     1      -0.345  13.297  22.066  0.00  0.00    +0.000 C 
ATOM     13  C   UNL     1       0.847  13.583  21.168  0.00  0.00    +0.000 C 
ENDBRANCH  11  13
ENDBRANCH   9  11
ENDBRANCH   1   9
BRANCH   1  14
ATOM     14  C   UNL     1      -1.591  10.788  19.296  0.00  0.00    +0.000 C 
BRANCH  14  15
ATOM     15  C   UNL     1      -2.253  10.606  17.957  0.00  0.00    +0.000 A 
ATOM     16  C   UNL     1      -1.789   9.645  17.054  0.00  0.00    +0.000 A 
ATOM     17  C   UNL     1      -2.374   9.524  15.793  0.00  0.00    +0.000 A 
ATOM     18  C   UNL     1      -3.443  10.345  15.442  0.00  0.00    +0.000 A 
ATOM     19 CL   UNL     1      -4.114  10.243  13.861  0.00  0.00    +0.000 Cl
ATOM     20  C   UNL     1      -3.964  11.255  16.357  0.00  0.00    +0.000 A 
ATOM     21  C   UNL     1      -3.371  11.384  17.614  0.00  0.00    +0.000 A 
ENDBRANCH  14  15
ENDBRANCH   1  14
BRANCH   5  22
ATOM     22  C   UNL     1       2.613   6.541  18.252  0.00  0.00    +0.000 C 
BRANCH  22  23
ATOM     23  C   UNL     1       3.936   5.790  18.403  0.00  0.00    +0.000 C 
BRANCH  23  24
ATOM     24  C   UNL     1       3.731   4.298  18.463  0.00  0.00    +0.000 A 
ATOM     25  C   UNL     1       4.377   3.518  19.419  0.00  0.00    +0.000 A 
ATOM     26  N   UNL     1       4.212   2.176  19.523  0.00  0.00    +0.000 NA
ATOM     27  C   UNL     1       3.355   1.634  18.634  0.00  0.00    +0.000 A 
ATOM     28  C   UNL     1       2.696   2.392  17.684  0.00  0.00    +0.000 A 
ATOM     29  N   UNL     1       2.862   3.731  17.581  0.00  0.00    +0.000 NA
ENDBRANCH  23  24
ENDBRANCH  22  23
ENDBRANCH   5  22
TORSDOF 8
ENDMDL
MODEL 8
REMARK VINA RESULT:      -6.7      4.914      8.277
REMARK  Name = 
REMARK  9 active torsions:
REMARK  status: ('A' for Active; 'I' for Inactive)
REMARK    1  A    between atoms: C_1  and  C_2
REMARK    2  A    between atoms: C_2  and  O_3
REMARK    3  A    between atoms: O_3  and  C_4
REMARK    4  A    between atoms: C_4  and  C_6
REMARK    5  A    between atoms: C_6  and  C_7
REMARK    6  A    between atoms: C_7  and  C_8
REMARK    7  A    between atoms: C_18  and  C_20
REMARK    8  A    between atoms: C_20  and  C_21
REMARK    9  A    between atoms: C_21  and  C_22
REMARK                            x       y       z     vdW  Elec       q    Type
REMARK                         _______ _______ _______ _____ _____    ______ ____
ROOT
ATOM      1  C   UNL     1       0.223  10.511  19.873  0.00  0.00    +0.000 C 
ATOM      2  C   UNL     1       0.243   9.547  21.114  0.00  0.00    +0.000 C 
ATOM      3  C   UNL     1       1.361   8.506  21.247  0.00  0.00    +0.000 C 
ATOM      4  N   UNL     1       1.862   8.043  19.963  0.00  0.00    +0.000 N 
ATOM      5  C   UNL     1       1.867   6.685  19.634  0.00  0.00    +0.000 C 
ATOM      6  O   UNL     1       1.414   5.819  20.384  0.00  0.00    +0.000 OA
ATOM      7  C   UNL     1       2.192   9.123  19.051  0.00  0.00    +0.000 C 
ATOM      8  C   UNL     1       0.885   9.814  18.647  0.00  0.00    +0.000 C 
ENDROOT
BRANCH   1   9
ATOM      9  C   UNL     1       0.957  11.866  19.993  0.00  0.00    +0.000 C 
ATOM     10  O   UNL     1       1.313  12.325  21.076  0.00  0.00    +0.000 OA
BRANCH   9  11
ATOM     11  O   UNL     1       1.121  12.539  18.826  0.00  0.00    +0.000 OA
BRANCH  11  13
ATOM     12  C   UNL     1       1.853  14.900  18.695  0.00  0.00    +0.000 C 
ATOM     13  C   UNL     1       0.704  13.923  18.879  0.00  0.00    +0.000 C 
ENDBRANCH  11  13
ENDBRANCH   9  11
ENDBRANCH   1   9
BRANCH   1  14
ATOM     14  C   UNL     1      -1.304  10.830  19.701  0.00  0.00    +0.000 C 
BRANCH  14  15
ATOM     15  C   UNL     1      -1.975  10.675  18.363  0.00  0.00    +0.000 A 
ATOM     16  C   UNL     1      -2.674   9.508  18.044  0.00  0.00    +0.000 A 
ATOM     17  C   UNL     1      -3.243   9.352  16.780  0.00  0.00    +0.000 A 
ATOM     18  C   UNL     1      -3.138  10.374  15.840  0.00  0.00    +0.000 A 
ATOM     19 CL   UNL     1      -3.777  10.151  14.259  0.00  0.00    +0.000 Cl
ATOM     20  C   UNL     1      -2.509  11.572  16.168  0.00  0.00    +0.000 A 
ATOM     21  C   UNL     1      -1.930  11.723  17.429  0.00  0.00    +0.000 A 
ENDBRANCH  14  15
ENDBRANCH   1  14
BRANCH   5  22
ATOM     22  C   UNL     1       2.502   6.318  18.301  0.00  0.00    +0.000 C 
BRANCH  22  23
ATOM     23  C   UNL     1       3.863   5.630  18.404  0.00  0.00    +0.000 C 
BRANCH  23  24
ATOM     24  C   UNL     1       3.728   4.133  18.514  0.00  0.00    +0.000 A 
ATOM     25  C   UNL     1       2.947   3.409  17.617  0.00  0.00    +0.000 A 
ATOM     26  N   UNL     1       2.808   2.062  17.665  0.00  0.00    +0.000 NA
ATOM     27  C   UNL     1       3.500   1.451  18.649  0.00  0.00    +0.000 A 
ATOM     28  C   UNL     1       4.289   2.149  19.544  0.00  0.00    +0.000 A 
ATOM     29  N   UNL     1       4.426   3.494  19.494  0.00  0.00    +0.000 NA
ENDBRANCH  23  24
ENDBRANCH  22  23
ENDBRANCH   5  22
TORSDOF 8
ENDMDL
MODEL 9
REMARK VINA RESULT:      -6.6      3.391      6.963
REMARK  Name = 
REMARK  9 active torsions:
REMARK  status: ('A' for Active; 'I' for Inactive)
REMARK    1  A    between atoms: C_1  and  C_2
REMARK    2  A    between atoms: C_2  and  O_3
REMARK    3  A    between atoms: O_3  and  C_4
REMARK    4  A    between atoms: C_4  and  C_6
REMARK    5  A    between atoms: C_6  and  C_7
REMARK    6  A    between atoms: C_7  and  C_8
REMARK    7  A    between atoms: C_18  and  C_20
REMARK    8  A    between atoms: C_20  and  C_21
REMARK    9  A    between atoms: C_21  and  C_22
REMARK                            x       y       z     vdW  Elec       q    Type
REMARK                         _______ _______ _______ _____ _____    ______ ____
ROOT
ATOM      1  C   UNL     1       5.408   4.691  16.841  0.00  0.00    +0.000 C 
ATOM      2  C   UNL     1       5.097   3.223  17.309  0.00  0.00    +0.000 C 
ATOM      3  C   UNL     1       3.672   2.849  17.735  0.00  0.00    +0.000 C 
ATOM      4  N   UNL     1       2.943   3.963  18.317  0.00  0.00    +0.000 N 
ATOM      5  C   UNL     1       2.382   3.874  19.594  0.00  0.00    +0.000 C 
ATOM      6  O   UNL     1       2.510   2.878  20.307  0.00  0.00    +0.000 OA
ATOM      7  C   UNL     1       3.000   5.172  17.514  0.00  0.00    +0.000 C 
ATOM      8  C   UNL     1       4.442   5.689  17.547  0.00  0.00    +0.000 C 
ENDROOT
BRANCH   1   9
ATOM      9  C   UNL     1       5.274   5.018  15.337  0.00  0.00    +0.000 C 
ATOM     10  O   UNL     1       5.196   6.173  14.921  0.00  0.00    +0.000 OA
BRANCH   9  11
ATOM     11  O   UNL     1       5.183   3.941  14.517  0.00  0.00    +0.000 OA
BRANCH  11  13
ATOM     12  C   UNL     1       5.791   3.377  12.185  0.00  0.00    +0.000 C 
ATOM     13  C   UNL     1       6.259   3.839  13.556  0.00  0.00    +0.000 C 
ENDBRANCH  11  13
ENDBRANCH   9  11
ENDBRANCH   1   9
BRANCH   1  14
ATOM     14  C   UNL     1       6.922   4.866  17.217  0.00  0.00    +0.000 C 
BRANCH  14  15
ATOM     15  C   UNL     1       7.440   6.186  17.718  0.00  0.00    +0.000 A 
ATOM     16  C   UNL     1       7.247   7.358  16.980  0.00  0.00    +0.000 A 
ATOM     17  C   UNL     1       7.782   8.566  17.426  0.00  0.00    +0.000 A 
ATOM     18  C   UNL     1       8.488   8.613  18.626  0.00  0.00    +0.000 A 
ATOM     19 CL   UNL     1       9.208  10.089  19.137  0.00  0.00    +0.000 Cl
ATOM     20  C   UNL     1       8.624   7.470  19.409  0.00  0.00    +0.000 A 
ATOM     21  C   UNL     1       8.099   6.259  18.957  0.00  0.00    +0.000 A 
ENDBRANCH  14  15
ENDBRANCH   1  14
BRANCH   5  22
ATOM     22  C   UNL     1       1.563   5.072  20.054  0.00  0.00    +0.000 C 
BRANCH  22  23
ATOM     23  C   UNL     1       2.383   6.237  20.610  0.00  0.00    +0.000 C 
BRANCH  23  24
ATOM     24  C   UNL     1       1.739   7.568  20.314  0.00  0.00    +0.000 A 
ATOM     25  C   UNL     1       0.927   8.202  21.251  0.00  0.00    +0.000 A 
ATOM     26  N   UNL     1       0.341   9.405  21.039  0.00  0.00    +0.000 NA
ATOM     27  C   UNL     1       0.609   9.969  19.843  0.00  0.00    +0.000 A 
ATOM     28  C   UNL     1       1.420   9.361  18.903  0.00  0.00    +0.000 A 
ATOM     29  N   UNL     1       2.004   8.160  19.117  0.00  0.00    +0.000 NA
ENDBRANCH  23  24
ENDBRANCH  22  23
ENDBRANCH   5  22
TORSDOF 8
ENDMDL
