MODEL 1
REMARK VINA RESULT:      -7.8      0.000      0.000
REMARK  Name = 
REMARK  8 active torsions:
REMARK  status: ('A' for Active; 'I' for Inactive)
REMARK    1  A    between atoms: C_1  and  C_2
REMARK    2  A    between atoms: C_2  and  C_3
REMARK    3  A    between atoms: C_3  and  C_4
REMARK    4  A    between atoms: C_4  and  C_5
REMARK    5  A    between atoms: C_5  and  C_6
REMARK    6  A    between atoms: C_6  and  C_7
REMARK    7  A    between atoms: C_7  and  C_8
REMARK    8  A    between atoms: C_8  and  N_9
REMARK                            x       y       z     vdW  Elec       q    Type
REMARK                         _______ _______ _______ _____ _____    ______ ____
ROOT
ATOM      1  N   UNL     1       5.922   4.780  15.699  0.00  0.00    +0.000 N 
ATOM      2  C   UNL     1       7.155   5.371  15.685  0.00  0.00    +0.000 A 
ATOM      3  N   UNL     1       7.604   5.600  16.892  0.00  0.00    +0.000 NA
ATOM      4  C   UNL     1       6.618   5.127  17.735  0.00  0.00    +0.000 A 
ATOM      5  C   UNL     1       6.603   5.117  19.146  0.00  0.00    +0.000 A 
ATOM      6  N   UNL     1       7.670   5.573  19.900  0.00  0.00    +0.000 N 
ATOM      7  N   UNL     1       5.521   4.635  19.797  0.00  0.00    +0.000 NA
ATOM      8  C   UNL     1       4.489   4.117  19.113  0.00  0.00    +0.000 A 
ATOM      9  C   UNL     1       3.429   3.606  19.844  0.00  0.00    +0.000 A 
ATOM     10  C   UNL     1       2.313   3.027  19.233  0.00  0.00    +0.000 A 
ATOM     11  C   UNL     1       2.246   2.951  17.850  0.00  0.00    +0.000 A 
ATOM     12  C   UNL     1       3.292   3.454  17.076  0.00  0.00    +0.000 A 
ATOM     13  C   UNL     1       4.417   4.049  17.698  0.00  0.00    +0.000 A 
ATOM     14  C   UNL     1       5.536   4.600  17.013  0.00  0.00    +0.000 A 
ATOM     15  H   UNL     1       8.344   6.138  19.400  0.00  0.00    +0.000 HD
ATOM     16  H   UNL     1       7.467   5.753  20.871  0.00  0.00    +0.000 HD
ENDROOT
BRANCH   1  17
ATOM     17  C   UNL     1       5.194   4.458  14.484  0.00  0.00    +0.000 C 
BRANCH  17  18
ATOM     18  C   UNL     1       6.037   3.656  13.494  0.00  0.00    +0.000 C 
BRANCH  18  19
ATOM     19  C   UNL     1       5.574   3.850  12.050  0.00  0.00    +0.000 C 
BRANCH  19  20
ATOM     20  C   UNL     1       4.984   2.548  11.503  0.00  0.00    +0.000 C 
BRANCH  20  21
ATOM     21  C   UNL     1       3.584   2.754  10.929  0.00  0.00    +0.000 C 
BRANCH  21  22
ATOM     22  C   UNL     1       3.434   4.163  10.354  0.00  0.00    +0.000 C 
BRANCH  22  24
ATOM     23  C   UNL     1       2.009   5.380   8.673  0.00  0.00    +0.000 C 
ATOM     24  C   UNL     1       2.820   4.126   8.955  0.00  0.00    +0.000 C 
ENDBRANCH  22  24
ENDBRANCH  21  22
ENDBRANCH  20  21
ENDBRANCH  19  20
ENDBRANCH  18  19
ENDBRANCH  17  18
ENDBRANCH   1  17
TORSDOF 7
ENDMDL
MODEL 2
REMARK VINA RESULT:      -7.8      3.792      5.786
REMARK  Name = 
REMARK  8 active torsions:
REMARK  status: ('A' for Active; 'I' for Inactive)
REMARK    1  A    between atoms: C_1  and  C_2
REMARK    2  A    between atoms: C_2  and  C_3
REMARK    3  A    between atoms: C_3  and  C_4
REMARK    4  A    between atoms: C_4  and  C_5
REMARK    5  A    between atoms: C_5  and  C_6
REMARK    6  A    between atoms: C_6  and  C_7
REMARK    7  A    between atoms: C_7  and  C_8
REMARK    8  A    between atoms: C_8  and  N_9
REMARK                            x       y       z     vdW  Elec       q    Type
REMARK                         _______ _______ _______ _____ _____    ______ ____
ROOT
ATOM      1  N   UNL     1       3.582   3.514  17.708  0.00  0.00    +0.000 N 
ATOM      2  C   UNL     1       3.724   2.201  18.065  0.00  0.00    +0.000 A 
ATOM      3  N   UNL     1       3.306   1.975  19.283  0.00  0.00    +0.000 NA
ATOM      4  C   UNL     1       2.863   3.200  19.741  0.00  0.00    +0.000 A 
ATOM      5  C   UNL     1       2.300   3.514  20.996  0.00  0.00    +0.000 A 
ATOM      6  N   UNL     1       2.069   2.552  21.964  0.00  0.00    +0.000 N 
ATOM      7  N   UNL     1       1.954   4.791  21.271  0.00  0.00    +0.000 NA
ATOM      8  C   UNL     1       2.093   5.749  20.341  0.00  0.00    +0.000 A 
ATOM      9  C   UNL     1       1.684   7.030  20.676  0.00  0.00    +0.000 A 
ATOM     10  C   UNL     1       1.766   8.097  19.777  0.00  0.00    +0.000 A 
ATOM     11  C   UNL     1       2.269   7.888  18.501  0.00  0.00    +0.000 A 
ATOM     12  C   UNL     1       2.692   6.613  18.123  0.00  0.00    +0.000 A 
ATOM     13  C   UNL     1       2.616   5.536  19.040  0.00  0.00    +0.000 A 
ATOM     14  C   UNL     1       3.024   4.199  18.769  0.00  0.00    +0.000 A 
ATOM     15  H   UNL     1       2.551   1.673  21.826  0.00  0.00    +0.000 HD
ATOM     16  H   UNL     1       1.901   2.907  22.894  0.00  0.00    +0.000 HD
ENDROOT
BRANCH   1  17
ATOM     17  C   UNL     1       4.008   4.025  16.417  0.00  0.00    +0.000 C 
BRANCH  17  18
ATOM     18  C   UNL     1       5.473   3.710  16.120  0.00  0.00    +0.000 C 
BRANCH  18  19
ATOM     19  C   UNL     1       6.235   4.933  15.609  0.00  0.00    +0.000 C 
BRANCH  19  20
ATOM     20  C   UNL     1       5.437   6.210  15.886  0.00  0.00    +0.000 C 
BRANCH  20  21
ATOM     21  C   UNL     1       6.000   6.988  17.072  0.00  0.00    +0.000 C 
BRANCH  21  22
ATOM     22  C   UNL     1       7.466   6.627  17.314  0.00  0.00    +0.000 C 
BRANCH  22  24
ATOM     23  C   UNL     1       6.532   5.406  19.307  0.00  0.00    +0.000 C 
ATOM     24  C   UNL     1       7.701   6.211  18.765  0.00  0.00    +0.000 C 
ENDBRANCH  22  24
ENDBRANCH  21  22
ENDBRANCH  20  21
ENDBRANCH  19  20
ENDBRANCH  18  19
ENDBRANCH  17  18
ENDBRANCH   1  17
TORSDOF 7
ENDMDL
MODEL 3
REMARK VINA RESULT:      -7.6      2.406      6.375
REMARK  Name = 
REMARK  8 active torsions:
REMARK  status: ('A' for Active; 'I' for Inactive)
REMARK    1  A    between atoms: C_1  and  C_2
REMARK    2  A    between atoms: C_2  and  C_3
REMARK    3  A    between atoms: C_3  and  C_4
REMARK    4  A    between atoms: C_4  and  C_5
REMARK    5  A    between atoms: C_5  and  C_6
REMARK    6  A    between atoms: C_6  and  C_7
REMARK    7  A    between atoms: C_7  and  C_8
REMARK    8  A    between atoms: C_8  and  N_9
REMARK                            x       y       z     vdW  Elec       q    Type
REMARK                         _______ _______ _______ _____ _____    ______ ____
ROOT
ATOM      1  N   UNL     1       4.773   3.767  18.179  0.00  0.00    +0.000 N 
ATOM      2  C   UNL     1       4.976   4.218  19.454  0.00  0.00    +0.000 A 
ATOM      3  N   UNL     1       5.936   5.105  19.514  0.00  0.00    +0.000 NA
ATOM      4  C   UNL     1       6.376   5.243  18.213  0.00  0.00    +0.000 A 
ATOM      5  C   UNL     1       7.392   6.087  17.718  0.00  0.00    +0.000 A 
ATOM      6  N   UNL     1       8.084   6.967  18.532  0.00  0.00    +0.000 N 
ATOM      7  N   UNL     1       7.702   6.056  16.403  0.00  0.00    +0.000 NA
ATOM      8  C   UNL     1       7.014   5.271  15.560  0.00  0.00    +0.000 A 
ATOM      9  C   UNL     1       7.359   5.316  14.218  0.00  0.00    +0.000 A 
ATOM     10  C   UNL     1       6.695   4.554  13.252  0.00  0.00    +0.000 A 
ATOM     11  C   UNL     1       5.652   3.720  13.629  0.00  0.00    +0.000 A 
ATOM     12  C   UNL     1       5.273   3.644  14.969  0.00  0.00    +0.000 A 
ATOM     13  C   UNL     1       5.955   4.411  15.947  0.00  0.00    +0.000 A 
ATOM     14  C   UNL     1       5.661   4.409  17.339  0.00  0.00    +0.000 A 
ATOM     15  H   UNL     1       8.002   6.795  19.526  0.00  0.00    +0.000 HD
ATOM     16  H   UNL     1       8.939   7.334  18.142  0.00  0.00    +0.000 HD
ENDROOT
BRANCH   1  17
ATOM     17  C   UNL     1       3.787   2.751  17.856  0.00  0.00    +0.000 C 
BRANCH  17  18
ATOM     18  C   UNL     1       2.472   3.351  17.361  0.00  0.00    +0.000 C 
BRANCH  18  19
ATOM     19  C   UNL     1       1.284   2.938  18.231  0.00  0.00    +0.000 C 
BRANCH  19  20
ATOM     20  C   UNL     1       1.766   2.132  19.439  0.00  0.00    +0.000 C 
BRANCH  20  21
ATOM     21  C   UNL     1       1.439   2.830  20.757  0.00  0.00    +0.000 C 
BRANCH  21  22
ATOM     22  C   UNL     1       0.962   4.262  20.511  0.00  0.00    +0.000 C 
BRANCH  22  24
ATOM     23  C   UNL     1       2.098   6.427  19.913  0.00  0.00    +0.000 C 
ATOM     24  C   UNL     1       2.034   5.277  20.904  0.00  0.00    +0.000 C 
ENDBRANCH  22  24
ENDBRANCH  21  22
ENDBRANCH  20  21
ENDBRANCH  19  20
ENDBRANCH  18  19
ENDBRANCH  17  18
ENDBRANCH   1  17
TORSDOF 7
ENDMDL
MODEL 4
REMARK VINA RESULT:      -7.6      3.979      6.329
REMARK  Name = 
REMARK  8 active torsions:
REMARK  status: ('A' for Active; 'I' for Inactive)
REMARK    1  A    between atoms: C_1  and  C_2
REMARK    2  A    between atoms: C_2  and  C_3
REMARK    3  A    between atoms: C_3  and  C_4
REMARK    4  A    between atoms: C_4  and  C_5
REMARK    5  A    between atoms: C_5  and  C_6
REMARK    6  A    between atoms: C_6  and  C_7
REMARK    7  A    between atoms: C_7  and  C_8
REMARK    8  A    between atoms: C_8  and  N_9
REMARK                            x       y       z     vdW  Elec       q    Type
REMARK                         _______ _______ _______ _____ _____    ______ ____
ROOT
ATOM      1  N   UNL     1       3.534   3.386  17.753  0.00  0.00    +0.000 N 
ATOM      2  C   UNL     1       3.540   2.077  18.149  0.00  0.00    +0.000 A 
ATOM      3  N   UNL     1       3.021   1.922  19.340  0.00  0.00    +0.000 NA
ATOM      4  C   UNL     1       2.653   3.192  19.736  0.00  0.00    +0.000 A 
ATOM      5  C   UNL     1       2.032   3.588  20.940  0.00  0.00    +0.000 A 
ATOM      6  N   UNL     1       1.656   2.677  21.912  0.00  0.00    +0.000 N 
ATOM      7  N   UNL     1       1.777   4.897  21.159  0.00  0.00    +0.000 NA
ATOM      8  C   UNL     1       2.060   5.812  20.219  0.00  0.00    +0.000 A 
ATOM      9  C   UNL     1       1.738   7.132  20.495  0.00  0.00    +0.000 A 
ATOM     10  C   UNL     1       1.970   8.162  19.579  0.00  0.00    +0.000 A 
ATOM     11  C   UNL     1       2.541   7.874  18.347  0.00  0.00    +0.000 A 
ATOM     12  C   UNL     1       2.881   6.559  18.030  0.00  0.00    +0.000 A 
ATOM     13  C   UNL     1       2.652   5.519  18.965  0.00  0.00    +0.000 A 
ATOM     14  C   UNL     1       2.963   4.146  18.755  0.00  0.00    +0.000 A 
ATOM     15  H   UNL     1       2.071   1.758  21.829  0.00  0.00    +0.000 HD
ATOM     16  H   UNL     1       1.455   3.071  22.819  0.00  0.00    +0.000 HD
ENDROOT
BRANCH   1  17
ATOM     17  C   UNL     1       4.089   3.822  16.484  0.00  0.00    +0.000 C 
BRANCH  17  18
ATOM     18  C   UNL     1       5.573   4.171  16.585  0.00  0.00    +0.000 C 
BRANCH  18  19
ATOM     19  C   UNL     1       5.864   5.600  16.126  0.00  0.00    +0.000 C 
BRANCH  19  20
ATOM     20  C   UNL     1       7.128   6.129  16.808  0.00  0.00    +0.000 C 
BRANCH  20  21
ATOM     21  C   UNL     1       6.903   7.501  17.439  0.00  0.00    +0.000 C 
BRANCH  21  22
ATOM     22  C   UNL     1       8.158   7.975  18.172  0.00  0.00    +0.000 C 
BRANCH  22  24
ATOM     23  C   UNL     1       9.256  10.029  19.127  0.00  0.00    +0.000 C 
ATOM     24  C   UNL     1       8.331   9.488  18.050  0.00  0.00    +0.000 C 
ENDBRANCH  22  24
ENDBRANCH  21  22
ENDBRANCH  20  21
ENDBRANCH  19  20
ENDBRANCH  18  19
ENDBRANCH  17  18
ENDBRANCH   1  17
TORSDOF 7
ENDMDL
MODEL 5
REMARK VINA RESULT:      -7.5      2.097      2.930
REMARK  Name = 
REMARK  8 active torsions:
REMARK  status: ('A' for Active; 'I' for Inactive)
REMARK    1  A    between atoms: C_1  and  C_2
REMARK    2  A    between atoms: C_2  and  C_3
REMARK    3  A    between atoms: C_3  and  C_4
REMARK    4  A    between atoms: C_4  and  C_5
REMARK    5  A    between atoms: C_5  and  C_6
REMARK    6  A    between atoms: C_6  and  C_7
REMARK    7  A    between atoms: C_7  and  C_8
REMARK    8  A    between atoms: C_8  and  N_9
REMARK                            x       y       z     vdW  Elec       q    Type
REMARK                         _______ _______ _______ _____ _____    ______ ____
ROOT
ATOM      1  N   UNL     1       4.563   5.218  16.884  0.00  0.00    +0.000 N 
ATOM      2  C   UNL     1       4.841   6.545  16.704  0.00  0.00    +0.000 A 
ATOM      3  N   UNL     1       4.136   7.307  17.499  0.00  0.00    +0.000 NA
ATOM      4  C   UNL     1       3.364   6.433  18.239  0.00  0.00    +0.000 A 
ATOM      5  C   UNL     1       2.432   6.733  19.254  0.00  0.00    +0.000 A 
ATOM      6  N   UNL     1       2.199   8.027  19.686  0.00  0.00    +0.000 N 
ATOM      7  N   UNL     1       1.745   5.730  19.846  0.00  0.00    +0.000 NA
ATOM      8  C   UNL     1       1.984   4.453  19.512  0.00  0.00    +0.000 A 
ATOM      9  C   UNL     1       1.271   3.472  20.184  0.00  0.00    +0.000 A 
ATOM     10  C   UNL     1       1.456   2.110  19.930  0.00  0.00    +0.000 A 
ATOM     11  C   UNL     1       2.379   1.706  18.976  0.00  0.00    +0.000 A 
ATOM     12  C   UNL     1       3.117   2.660  18.276  0.00  0.00    +0.000 A 
ATOM     13  C   UNL     1       2.921   4.040  18.531  0.00  0.00    +0.000 A 
ATOM     14  C   UNL     1       3.609   5.100  17.876  0.00  0.00    +0.000 A 
ATOM     15  H   UNL     1       2.538   8.757  19.071  0.00  0.00    +0.000 HD
ATOM     16  H   UNL     1       1.356   8.159  20.224  0.00  0.00    +0.000 HD
ENDROOT
BRANCH   1  17
ATOM     17  C   UNL     1       5.190   4.173  16.095  0.00  0.00    +0.000 C 
BRANCH  17  18
ATOM     18  C   UNL     1       6.617   4.530  15.683  0.00  0.00    +0.000 C 
BRANCH  18  19
ATOM     19  C   UNL     1       6.739   4.784  14.180  0.00  0.00    +0.000 C 
BRANCH  19  20
ATOM     20  C   UNL     1       5.674   3.990  13.420  0.00  0.00    +0.000 C 
BRANCH  20  21
ATOM     21  C   UNL     1       6.280   3.157  12.293  0.00  0.00    +0.000 C 
BRANCH  21  22
ATOM     22  C   UNL     1       5.186   2.569  11.401  0.00  0.00    +0.000 C 
BRANCH  22  24
ATOM     23  C   UNL     1       3.307   3.591  10.076  0.00  0.00    +0.000 C 
ATOM     24  C   UNL     1       3.914   3.413  11.457  0.00  0.00    +0.000 C 
ENDBRANCH  22  24
ENDBRANCH  21  22
ENDBRANCH  20  21
ENDBRANCH  19  20
ENDBRANCH  18  19
ENDBRANCH  17  18
ENDBRANCH   1  17
TORSDOF 7
ENDMDL
MODEL 6
REMARK VINA RESULT:      -7.5      2.665      4.251
REMARK  Name = 
REMARK  8 active torsions:
REMARK  status: ('A' for Active; 'I' for Inactive)
REMARK    1  A    between atoms: C_1  and  C_2
REMARK    2  A    between atoms: C_2  and  C_3
REMARK    3  A    between atoms: C_3  and  C_4
REMARK    4  A    between atoms: C_4  and  C_5
REMARK    5  A    between atoms: C_5  and  C_6
REMARK    6  A    between atoms: C_6  and  C_7
REMARK    7  A    between atoms: C_7  and  C_8
REMARK    8  A    between atoms: C_8  and  N_9
REMARK                            x       y       z     vdW  Elec       q    Type
REMARK                         _______ _______ _______ _____ _____    ______ ____
ROOT
ATOM      1  N   UNL     1       3.836   3.725  17.841  0.00  0.00    +0.000 N 
ATOM      2  C   UNL     1       3.972   2.438  18.284  0.00  0.00    +0.000 A 
ATOM      3  N   UNL     1       3.462   2.274  19.477  0.00  0.00    +0.000 NA
ATOM      4  C   UNL     1       2.963   3.513  19.826  0.00  0.00    +0.000 A 
ATOM      5  C   UNL     1       2.297   3.886  21.012  0.00  0.00    +0.000 A 
ATOM      6  N   UNL     1       2.007   2.976  22.014  0.00  0.00    +0.000 N 
ATOM      7  N   UNL     1       1.908   5.169  21.183  0.00  0.00    +0.000 NA
ATOM      8  C   UNL     1       2.103   6.074  20.212  0.00  0.00    +0.000 A 
ATOM      9  C   UNL     1       1.647   7.363  20.438  0.00  0.00    +0.000 A 
ATOM     10  C   UNL     1       1.781   8.378  19.487  0.00  0.00    +0.000 A 
ATOM     11  C   UNL     1       2.388   8.107  18.269  0.00  0.00    +0.000 A 
ATOM     12  C   UNL     1       2.862   6.823  18.001  0.00  0.00    +0.000 A 
ATOM     13  C   UNL     1       2.732   5.798  18.971  0.00  0.00    +0.000 A 
ATOM     14  C   UNL     1       3.183   4.458  18.812  0.00  0.00    +0.000 A 
ATOM     15  H   UNL     1       2.514   2.101  21.966  0.00  0.00    +0.000 HD
ATOM     16  H   UNL     1       1.760   3.380  22.906  0.00  0.00    +0.000 HD
ENDROOT
BRANCH   1  17
ATOM     17  C   UNL     1       4.354   4.170  16.559  0.00  0.00    +0.000 C 
BRANCH  17  18
ATOM     18  C   UNL     1       5.632   4.995  16.701  0.00  0.00    +0.000 C 
BRANCH  18  19
ATOM     19  C   UNL     1       6.774   4.444  15.847  0.00  0.00    +0.000 C 
BRANCH  19  20
ATOM     20  C   UNL     1       6.217   3.712  14.624  0.00  0.00    +0.000 C 
BRANCH  20  21
ATOM     21  C   UNL     1       6.459   4.491  13.334  0.00  0.00    +0.000 C 
BRANCH  21  22
ATOM     22  C   UNL     1       6.646   3.541  12.150  0.00  0.00    +0.000 C 
BRANCH  22  24
ATOM     23  C   UNL     1       4.269   3.352  11.346  0.00  0.00    +0.000 C 
ATOM     24  C   UNL     1       5.438   2.621  11.984  0.00  0.00    +0.000 C 
ENDBRANCH  22  24
ENDBRANCH  21  22
ENDBRANCH  20  21
ENDBRANCH  19  20
ENDBRANCH  18  19
ENDBRANCH  17  18
ENDBRANCH   1  17
TORSDOF 7
ENDMDL
MODEL 7
REMARK VINA RESULT:      -7.5      3.550      5.693
REMARK  Name = 
REMARK  8 active torsions:
REMARK  status: ('A' for Active; 'I' for Inactive)
REMARK    1  A    between atoms: C_1  and  C_2
REMARK    2  A    between atoms: C_2  and  C_3
REMARK    3  A    between atoms: C_3  and  C_4
REMARK    4  A    between atoms: C_4  and  C_5
REMARK    5  A    between atoms: C_5  and  C_6
REMARK    6  A    between atoms: C_6  and  C_7
REMARK    7  A    between atoms: C_7  and  C_8
REMARK    8  A    between atoms: C_8  and  N_9
REMARK                            x       y       z     vdW  Elec       q    Type
REMARK                         _______ _______ _______ _____ _____    ______ ____
ROOT
ATOM      1  N   UNL     1       3.699   3.599  17.722  0.00  0.00    +0.000 N 
ATOM      2  C   UNL     1       3.801   2.307  18.157  0.00  0.00    +0.000 A 
ATOM      3  N   UNL     1       3.334   2.158  19.369  0.00  0.00    +0.000 NA
ATOM      4  C   UNL     1       2.899   3.414  19.741  0.00  0.00    +0.000 A 
ATOM      5  C   UNL     1       2.296   3.809  20.954  0.00  0.00    +0.000 A 
ATOM      6  N   UNL     1       2.011   2.908  21.965  0.00  0.00    +0.000 N 
ATOM      7  N   UNL     1       1.966   5.105  21.143  0.00  0.00    +0.000 NA
ATOM      8  C   UNL     1       2.157   6.006  20.166  0.00  0.00    +0.000 A 
ATOM      9  C   UNL     1       1.762   7.311  20.414  0.00  0.00    +0.000 A 
ATOM     10  C   UNL     1       1.897   8.324  19.460  0.00  0.00    +0.000 A 
ATOM     11  C   UNL     1       2.443   8.033  18.218  0.00  0.00    +0.000 A 
ATOM     12  C   UNL     1       2.855   6.732  17.928  0.00  0.00    +0.000 A 
ATOM     13  C   UNL     1       2.724   5.710  18.901  0.00  0.00    +0.000 A 
ATOM     14  C   UNL     1       3.115   4.353  18.721  0.00  0.00    +0.000 A 
ATOM     15  H   UNL     1       2.481   2.014  21.895  0.00  0.00    +0.000 HD
ATOM     16  H   UNL     1       1.816   3.317  22.866  0.00  0.00    +0.000 HD
ENDROOT
BRANCH   1  17
ATOM     17  C   UNL     1       4.182   4.028  16.422  0.00  0.00    +0.000 C 
BRANCH  17  18
ATOM     18  C   UNL     1       5.520   3.387  16.056  0.00  0.00    +0.000 C 
BRANCH  18  19
ATOM     19  C   UNL     1       6.311   4.230  15.056  0.00  0.00    +0.000 C 
BRANCH  19  20
ATOM     20  C   UNL     1       7.152   5.276  15.792  0.00  0.00    +0.000 C 
BRANCH  20  21
ATOM     21  C   UNL     1       7.446   4.860  17.231  0.00  0.00    +0.000 C 
BRANCH  21  22
ATOM     22  C   UNL     1       7.425   6.072  18.164  0.00  0.00    +0.000 C 
BRANCH  22  24
ATOM     23  C   UNL     1       8.142   8.480  18.034  0.00  0.00    +0.000 C 
ATOM     24  C   UNL     1       7.334   7.376  17.374  0.00  0.00    +0.000 C 
ENDBRANCH  22  24
ENDBRANCH  21  22
ENDBRANCH  20  21
ENDBRANCH  19  20
ENDBRANCH  18  19
ENDBRANCH  17  18
ENDBRANCH   1  17
TORSDOF 7
ENDMDL
MODEL 8
REMARK VINA RESULT:      -7.4      2.021      2.518
REMARK  Name = 
REMARK  8 active torsions:
REMARK  status: ('A' for Active; 'I' for Inactive)
REMARK    1  A    between atoms: C_1  and  C_2
REMARK    2  A    between atoms: C_2  and  C_3
REMARK    3  A    between atoms: C_3  and  C_4
REMARK    4  A    between atoms: C_4  and  C_5
REMARK    5  A    between atoms: C_5  and  C_6
REMARK    6  A    between atoms: C_6  and  C_7
REMARK    7  A    between atoms: C_7  and  C_8
REMARK    8  A    between atoms: C_8  and  N_9
REMARK                            x       y       z     vdW  Elec       q    Type
REMARK                         _______ _______ _______ _____ _____    ______ ____
ROOT
ATOM      1  N   UNL     1       5.705   5.335  16.766  0.00  0.00    +0.000 N 
ATOM      2  C   UNL     1       6.051   6.655  16.673  0.00  0.00    +0.000 A 
ATOM      3  N   UNL     1       5.110   7.442  17.126  0.00  0.00    +0.000 NA
ATOM      4  C   UNL     1       4.104   6.593  17.542  0.00  0.00    +0.000 A 
ATOM      5  C   UNL     1       2.862   6.925  18.125  0.00  0.00    +0.000 A 
ATOM      6  N   UNL     1       2.505   8.232  18.407  0.00  0.00    +0.000 N 
ATOM      7  N   UNL     1       1.989   5.943  18.438  0.00  0.00    +0.000 NA
ATOM      8  C   UNL     1       2.316   4.655  18.248  0.00  0.00    +0.000 A 
ATOM      9  C   UNL     1       1.388   3.697  18.625  0.00  0.00    +0.000 A 
ATOM     10  C   UNL     1       1.634   2.328  18.490  0.00  0.00    +0.000 A 
ATOM     11  C   UNL     1       2.842   1.893  17.963  0.00  0.00    +0.000 A 
ATOM     12  C   UNL     1       3.803   2.824  17.570  0.00  0.00    +0.000 A 
ATOM     13  C   UNL     1       3.547   4.212  17.701  0.00  0.00    +0.000 A 
ATOM     14  C   UNL     1       4.447   5.249  17.328  0.00  0.00    +0.000 A 
ATOM     15  H   UNL     1       3.061   8.943  17.949  0.00  0.00    +0.000 HD
ATOM     16  H   UNL     1       1.523   8.382  18.586  0.00  0.00    +0.000 HD
ENDROOT
BRANCH   1  17
ATOM     17  C   UNL     1       6.567   4.265  16.294  0.00  0.00    +0.000 C 
BRANCH  17  18
ATOM     18  C   UNL     1       6.086   3.670  14.972  0.00  0.00    +0.000 C 
BRANCH  18  19
ATOM     19  C   UNL     1       6.668   4.402  13.763  0.00  0.00    +0.000 C 
BRANCH  19  20
ATOM     20  C   UNL     1       6.326   3.651  12.473  0.00  0.00    +0.000 C 
BRANCH  20  21
ATOM     21  C   UNL     1       4.841   3.305  12.392  0.00  0.00    +0.000 C 
BRANCH  21  22
ATOM     22  C   UNL     1       4.405   3.119  10.938  0.00  0.00    +0.000 C 
BRANCH  22  24
ATOM     23  C   UNL     1       2.969   4.064   9.100  0.00  0.00    +0.000 C 
ATOM     24  C   UNL     1       3.217   4.017  10.598  0.00  0.00    +0.000 C 
ENDBRANCH  22  24
ENDBRANCH  21  22
ENDBRANCH  20  21
ENDBRANCH  19  20
ENDBRANCH  18  19
ENDBRANCH  17  18
ENDBRANCH   1  17
TORSDOF 7
ENDMDL
MODEL 9
REMARK VINA RESULT:      -7.4      2.439      6.597
REMARK  Name = 
REMARK  8 active torsions:
REMARK  status: ('A' for Active; 'I' for Inactive)
REMARK    1  A    between atoms: C_1  and  C_2
REMARK    2  A    between atoms: C_2  and  C_3
REMARK    3  A    between atoms: C_3  and  C_4
REMARK    4  A    between atoms: C_4  and  C_5
REMARK    5  A    between atoms: C_5  and  C_6
REMARK    6  A    between atoms: C_6  and  C_7
REMARK    7  A    between atoms: C_7  and  C_8
REMARK    8  A    between atoms: C_8  and  N_9
REMARK                            x       y       z     vdW  Elec       q    Type
REMARK                         _______ _______ _______ _____ _____    ______ ____
ROOT
ATOM      1  N   UNL     1       4.852   3.877  18.064  0.00  0.00    +0.000 N 
ATOM      2  C   UNL     1       5.011   4.419  19.309  0.00  0.00    +0.000 A 
ATOM      3  N   UNL     1       5.923   5.356  19.323  0.00  0.00    +0.000 NA
ATOM      4  C   UNL     1       6.376   5.434  18.022  0.00  0.00    +0.000 A 
ATOM      5  C   UNL     1       7.356   6.296  17.485  0.00  0.00    +0.000 A 
ATOM      6  N   UNL     1       7.989   7.261  18.249  0.00  0.00    +0.000 N 
ATOM      7  N   UNL     1       7.687   6.197  16.179  0.00  0.00    +0.000 NA
ATOM      8  C   UNL     1       7.053   5.324  15.380  0.00  0.00    +0.000 A 
ATOM      9  C   UNL     1       7.416   5.301  14.043  0.00  0.00    +0.000 A 
ATOM     10  C   UNL     1       6.807   4.446  13.120  0.00  0.00    +0.000 A 
ATOM     11  C   UNL     1       5.803   3.584  13.537  0.00  0.00    +0.000 A 
ATOM     12  C   UNL     1       5.407   3.575  14.874  0.00  0.00    +0.000 A 
ATOM     13  C   UNL     1       6.033   4.437  15.809  0.00  0.00    +0.000 A 
ATOM     14  C   UNL     1       5.719   4.510  17.195  0.00  0.00    +0.000 A 
ATOM     15  H   UNL     1       7.900   7.149  19.251  0.00  0.00    +0.000 HD
ATOM     16  H   UNL     1       8.830   7.647  17.846  0.00  0.00    +0.000 HD
ENDROOT
BRANCH   1  17
ATOM     17  C   UNL     1       3.924   2.792  17.795  0.00  0.00    +0.000 C 
BRANCH  17  18
ATOM     18  C   UNL     1       2.666   3.267  17.070  0.00  0.00    +0.000 C 
BRANCH  18  19
ATOM     19  C   UNL     1       1.490   3.472  18.026  0.00  0.00    +0.000 C 
BRANCH  19  20
ATOM     20  C   UNL     1       1.612   4.823  18.735  0.00  0.00    +0.000 C 
BRANCH  20  21
ATOM     21  C   UNL     1       1.293   4.715  20.224  0.00  0.00    +0.000 C 
BRANCH  21  22
ATOM     22  C   UNL     1       0.879   3.289  20.590  0.00  0.00    +0.000 C 
BRANCH  22  24
ATOM     23  C   UNL     1       3.027   2.275  21.422  0.00  0.00    +0.000 C 
ATOM     24  C   UNL     1       1.649   2.786  21.809  0.00  0.00    +0.000 C 
ENDBRANCH  22  24
ENDBRANCH  21  22
ENDBRANCH  20  21
ENDBRANCH  19  20
ENDBRANCH  18  19
ENDBRANCH  17  18
ENDBRANCH   1  17
TORSDOF 7
ENDMDL
