MODEL 1
REMARK VINA RESULT:      -7.7      0.000      0.000
REMARK  Name = 
REMARK  9 active torsions:
REMARK  status: ('A' for Active; 'I' for Inactive)
REMARK    1  A    between atoms: C_1  and  N_2
REMARK    2  A    between atoms: N_2  and  C_3
REMARK    3  A    between atoms: N_2  and  C_4
REMARK    4  A    between atoms: C_4  and  C_5
REMARK    5  A    between atoms: C_5  and  N_6
REMARK    6  A    between atoms: C_7  and  C_8
REMARK    7  A    between atoms: C_12  and  C_13
REMARK    8  A    between atoms: C_14  and  C_15
REMARK    9  A    between atoms: N_17  and  O_18
REMARK                            x       y       z     vdW  Elec       q    Type
REMARK                         _______ _______ _______ _____ _____    ______ ____
ROOT
ATOM      1  N   UNL     1       3.288   4.896  18.684  0.00  0.00    +0.000 N 
ATOM      2  C   UNL     1       4.584   4.423  18.602  0.00  0.00    +0.000 A 
ATOM      3  N   UNL     1       4.755   3.434  19.465  0.00  0.00    +0.000 NA
ATOM      4  C   UNL     1       3.571   3.291  20.133  0.00  0.00    +0.000 A 
ATOM      5  C   UNL     1       3.223   2.395  21.152  0.00  0.00    +0.000 A 
ATOM      6  C   UNL     1       1.926   2.440  21.677  0.00  0.00    +0.000 A 
ATOM      7  C   UNL     1       0.990   3.354  21.190  0.00  0.00    +0.000 A 
ATOM      8  C   UNL     1       1.320   4.249  20.166  0.00  0.00    +0.000 A 
ATOM      9  C   UNL     1       2.624   4.194  19.665  0.00  0.00    +0.000 A 
ENDROOT
BRANCH   2  10
ATOM     10  C   UNL     1       5.595   4.843  17.625  0.00  0.00    +0.000 A 
ATOM     11  C   UNL     1       6.464   5.914  17.832  0.00  0.00    +0.000 A 
ATOM     12  C   UNL     1       7.314   6.350  16.821  0.00  0.00    +0.000 A 
ATOM     13  C   UNL     1       7.318   5.694  15.595  0.00  0.00    +0.000 A 
ATOM     14  C   UNL     1       6.468   4.604  15.356  0.00  0.00    +0.000 A 
ATOM     15  C   UNL     1       5.644   4.169  16.400  0.00  0.00    +0.000 A 
BRANCH  14  16
ATOM     16  C   UNL     1       6.456   3.966  14.027  0.00  0.00    +0.000 C 
ATOM     17  C   UNL     1       5.332   3.584  13.392  0.00  0.00    +0.000 C 
BRANCH  17  18
ATOM     18  C   UNL     1       5.360   3.012  12.030  0.00  0.00    +0.000 C 
ATOM     19  O   UNL     1       4.580   3.342  11.126  0.00  0.00    +0.000 OA
ATOM     20  N   UNL     1       6.331   2.066  11.866  0.00  0.00    +0.000 N 
ATOM     21  H   UNL     1       7.005   1.782  12.567  0.00  0.00    +0.000 HD
BRANCH  20  22
ATOM     22  O   UNL     1       6.431   1.451  10.598  0.00  0.00    +0.000 OA
ATOM     23  H   UNL     1       7.393   1.252  10.543  0.00  0.00    +0.000 HD
ENDBRANCH  20  22
ENDBRANCH  17  18
ENDBRANCH  14  16
ENDBRANCH   2  10
BRANCH   1  24
ATOM     24  C   UNL     1       2.674   5.896  17.832  0.00  0.00    +0.000 C 
BRANCH  24  25
ATOM     25  C   UNL     1       2.989   7.337  18.258  0.00  0.00    +0.000 C 
BRANCH  25  27
ATOM     26  C   UNL     1       1.678   8.202  20.082  0.00  0.00    +0.000 C 
ATOM     27  N   UNL     1       1.793   8.120  18.622  0.00  0.00    +0.000 NA
ATOM     28  C   UNL     1       1.839   9.465  18.055  0.00  0.00    +0.000 C 
ENDBRANCH  25  27
ENDBRANCH  24  25
ENDBRANCH   1  24
TORSDOF 7
ENDMDL
MODEL 2
REMARK VINA RESULT:      -7.7      4.278      8.149
REMARK  Name = 
REMARK  9 active torsions:
REMARK  status: ('A' for Active; 'I' for Inactive)
REMARK    1  A    between atoms: C_1  and  N_2
REMARK    2  A    between atoms: N_2  and  C_3
REMARK    3  A    between atoms: N_2  and  C_4
REMARK    4  A    between atoms: C_4  and  C_5
REMARK    5  A    between atoms: C_5  and  N_6
REMARK    6  A    between atoms: C_7  and  C_8
REMARK    7  A    between atoms: C_12  and  C_13
REMARK    8  A    between atoms: C_14  and  C_15
REMARK    9  A    between atoms: N_17  and  O_18
REMARK                            x       y       z     vdW  Elec       q    Type
REMARK                         _______ _______ _______ _____ _____    ______ ____
ROOT
ATOM      1  N   UNL     1       2.858   5.778  18.226  0.00  0.00    +0.000 N 
ATOM      2  C   UNL     1       2.930   7.158  18.207  0.00  0.00    +0.000 A 
ATOM      3  N   UNL     1       3.895   7.546  17.388  0.00  0.00    +0.000 NA
ATOM      4  C   UNL     1       4.473   6.406  16.901  0.00  0.00    +0.000 A 
ATOM      5  C   UNL     1       5.540   6.258  16.006  0.00  0.00    +0.000 A 
ATOM      6  C   UNL     1       5.948   4.968  15.650  0.00  0.00    +0.000 A 
ATOM      7  C   UNL     1       5.300   3.846  16.167  0.00  0.00    +0.000 A 
ATOM      8  C   UNL     1       4.226   3.977  17.055  0.00  0.00    +0.000 A 
ATOM      9  C   UNL     1       3.843   5.275  17.406  0.00  0.00    +0.000 A 
ENDROOT
BRANCH   2  10
ATOM     10  C   UNL     1       2.004   8.080  18.877  0.00  0.00    +0.000 A 
ATOM     11  C   UNL     1       1.843   8.132  20.261  0.00  0.00    +0.000 A 
ATOM     12  C   UNL     1       0.860   8.931  20.836  0.00  0.00    +0.000 A 
ATOM     13  C   UNL     1       0.043   9.708  20.023  0.00  0.00    +0.000 A 
ATOM     14  C   UNL     1       0.186   9.691  18.627  0.00  0.00    +0.000 A 
ATOM     15  C   UNL     1       1.201   8.900  18.078  0.00  0.00    +0.000 A 
BRANCH  14  16
ATOM     16  C   UNL     1      -0.733  10.483  17.790  0.00  0.00    +0.000 C 
ATOM     17  C   UNL     1      -2.004  10.122  17.529  0.00  0.00    +0.000 C 
BRANCH  17  18
ATOM     18  C   UNL     1      -2.913  10.980  16.741  0.00  0.00    +0.000 C 
ATOM     19  O   UNL     1      -2.829  11.131  15.514  0.00  0.00    +0.000 OA
ATOM     20  N   UNL     1      -3.856  11.605  17.504  0.00  0.00    +0.000 N 
ATOM     21  H   UNL     1      -3.978  11.494  18.504  0.00  0.00    +0.000 HD
BRANCH  20  22
ATOM     22  O   UNL     1      -4.768  12.459  16.843  0.00  0.00    +0.000 OA
ATOM     23  H   UNL     1      -4.209  12.839  16.128  0.00  0.00    +0.000 HD
ENDBRANCH  20  22
ENDBRANCH  17  18
ENDBRANCH  14  16
ENDBRANCH   2  10
BRANCH   1  24
ATOM     24  C   UNL     1       1.866   4.971  18.909  0.00  0.00    +0.000 C 
BRANCH  24  25
ATOM     25  C   UNL     1       2.325   4.478  20.288  0.00  0.00    +0.000 C 
BRANCH  25  27
ATOM     26  C   UNL     1       3.715   2.517  20.419  0.00  0.00    +0.000 C 
ATOM     27  N   UNL     1       2.333   3.009  20.419  0.00  0.00    +0.000 NA
ATOM     28  C   UNL     1       1.655   2.575  21.638  0.00  0.00    +0.000 C 
ENDBRANCH  25  27
ENDBRANCH  24  25
ENDBRANCH   1  24
TORSDOF 7
ENDMDL
MODEL 3
REMARK VINA RESULT:      -7.7      1.313      3.880
REMARK  Name = 
REMARK  9 active torsions:
REMARK  status: ('A' for Active; 'I' for Inactive)
REMARK    1  A    between atoms: C_1  and  N_2
REMARK    2  A    between atoms: N_2  and  C_3
REMARK    3  A    between atoms: N_2  and  C_4
REMARK    4  A    between atoms: C_4  and  C_5
REMARK    5  A    between atoms: C_5  and  N_6
REMARK    6  A    between atoms: C_7  and  C_8
REMARK    7  A    between atoms: C_12  and  C_13
REMARK    8  A    between atoms: C_14  and  C_15
REMARK    9  A    between atoms: N_17  and  O_18
REMARK                            x       y       z     vdW  Elec       q    Type
REMARK                         _______ _______ _______ _____ _____    ______ ____
ROOT
ATOM      1  N   UNL     1       3.164   6.633  19.044  0.00  0.00    +0.000 N 
ATOM      2  C   UNL     1       3.900   6.836  17.892  0.00  0.00    +0.000 A 
ATOM      3  N   UNL     1       3.543   7.979  17.327  0.00  0.00    +0.000 NA
ATOM      4  C   UNL     1       2.544   8.500  18.103  0.00  0.00    +0.000 A 
ATOM      5  C   UNL     1       1.818   9.687  17.943  0.00  0.00    +0.000 A 
ATOM      6  C   UNL     1       0.838  10.011  18.889  0.00  0.00    +0.000 A 
ATOM      7  C   UNL     1       0.593   9.173  19.978  0.00  0.00    +0.000 A 
ATOM      8  C   UNL     1       1.317   7.990  20.156  0.00  0.00    +0.000 A 
ATOM      9  C   UNL     1       2.282   7.680  19.193  0.00  0.00    +0.000 A 
ENDROOT
BRANCH   2  10
ATOM     10  C   UNL     1       5.007   5.997  17.417  0.00  0.00    +0.000 A 
ATOM     11  C   UNL     1       6.301   6.073  17.931  0.00  0.00    +0.000 A 
ATOM     12  C   UNL     1       7.341   5.348  17.357  0.00  0.00    +0.000 A 
ATOM     13  C   UNL     1       7.084   4.517  16.273  0.00  0.00    +0.000 A 
ATOM     14  C   UNL     1       5.791   4.405  15.739  0.00  0.00    +0.000 A 
ATOM     15  C   UNL     1       4.759   5.123  16.353  0.00  0.00    +0.000 A 
BRANCH  14  16
ATOM     16  C   UNL     1       5.563   3.559  14.554  0.00  0.00    +0.000 C 
ATOM     17  C   UNL     1       5.807   3.959  13.292  0.00  0.00    +0.000 C 
BRANCH  17  18
ATOM     18  C   UNL     1       5.629   3.054  12.138  0.00  0.00    +0.000 C 
ATOM     19  O   UNL     1       4.610   3.025  11.434  0.00  0.00    +0.000 OA
ATOM     20  N   UNL     1       6.702   2.237  11.926  0.00  0.00    +0.000 N 
ATOM     21  H   UNL     1       7.564   2.242  12.459  0.00  0.00    +0.000 HD
BRANCH  20  22
ATOM     22  O   UNL     1       6.623   1.326  10.849  0.00  0.00    +0.000 OA
ATOM     23  H   UNL     1       6.499   0.469  11.315  0.00  0.00    +0.000 HD
ENDBRANCH  20  22
ENDBRANCH  17  18
ENDBRANCH  14  16
ENDBRANCH   2  10
BRANCH   1  24
ATOM     24  C   UNL     1       3.333   5.559  20.003  0.00  0.00    +0.000 C 
BRANCH  24  25
ATOM     25  C   UNL     1       2.202   4.521  19.963  0.00  0.00    +0.000 C 
BRANCH  25  27
ATOM     26  C   UNL     1       2.150   3.221  17.938  0.00  0.00    +0.000 C 
ATOM     27  N   UNL     1       2.592   3.245  19.337  0.00  0.00    +0.000 NA
ATOM     28  C   UNL     1       4.037   3.036  19.400  0.00  0.00    +0.000 C 
ENDBRANCH  25  27
ENDBRANCH  24  25
ENDBRANCH   1  24
TORSDOF 7
ENDMDL
MODEL 4
REMARK VINA RESULT:      -7.5      4.529      8.072
REMARK  Name = 
REMARK  9 active torsions:
REMARK  status: ('A' for Active; 'I' for Inactive)
REMARK    1  A    between atoms: C_1  and  N_2
REMARK    2  A    between atoms: N_2  and  C_3
REMARK    3  A    between atoms: N_2  and  C_4
REMARK    4  A    between atoms: C_4  and  C_5
REMARK    5  A    between atoms: C_5  and  N_6
REMARK    6  A    between atoms: C_7  and  C_8
REMARK    7  A    between atoms: C_12  and  C_13
REMARK    8  A    between atoms: C_14  and  C_15
REMARK    9  A    between atoms: N_17  and  O_18
REMARK                            x       y       z     vdW  Elec       q    Type
REMARK                         _______ _______ _______ _____ _____    ______ ____
ROOT
ATOM      1  N   UNL     1       2.725   5.877  18.575  0.00  0.00    +0.000 N 
ATOM      2  C   UNL     1       2.771   7.259  18.558  0.00  0.00    +0.000 A 
ATOM      3  N   UNL     1       3.640   7.667  17.647  0.00  0.00    +0.000 NA
ATOM      4  C   UNL     1       4.185   6.540  17.096  0.00  0.00    +0.000 A 
ATOM      5  C   UNL     1       5.158   6.416  16.096  0.00  0.00    +0.000 A 
ATOM      6  C   UNL     1       5.550   5.135  15.692  0.00  0.00    +0.000 A 
ATOM      7  C   UNL     1       4.978   3.999  16.266  0.00  0.00    +0.000 A 
ATOM      8  C   UNL     1       3.998   4.106  17.259  0.00  0.00    +0.000 A 
ATOM      9  C   UNL     1       3.630   5.396  17.655  0.00  0.00    +0.000 A 
ENDROOT
BRANCH   2  10
ATOM     10  C   UNL     1       1.902   8.160  19.325  0.00  0.00    +0.000 A 
ATOM     11  C   UNL     1       1.845   8.168  20.718  0.00  0.00    +0.000 A 
ATOM     12  C   UNL     1       0.912   8.950  21.391  0.00  0.00    +0.000 A 
ATOM     13  C   UNL     1       0.040   9.755  20.666  0.00  0.00    +0.000 A 
ATOM     14  C   UNL     1       0.078   9.783  19.264  0.00  0.00    +0.000 A 
ATOM     15  C   UNL     1       1.046   9.008  18.615  0.00  0.00    +0.000 A 
BRANCH  14  16
ATOM     16  C   UNL     1      -0.897  10.604  18.524  0.00  0.00    +0.000 C 
ATOM     17  C   UNL     1      -1.919  10.091  17.813  0.00  0.00    +0.000 C 
BRANCH  17  18
ATOM     18  C   UNL     1      -2.915  10.952  17.144  0.00  0.00    +0.000 C 
ATOM     19  O   UNL     1      -3.855  11.506  17.731  0.00  0.00    +0.000 OA
ATOM     20  N   UNL     1      -2.705  11.071  15.800  0.00  0.00    +0.000 N 
ATOM     21  H   UNL     1      -1.938  10.658  15.282  0.00  0.00    +0.000 HD
BRANCH  20  22
ATOM     22  O   UNL     1      -3.613  11.868  15.068  0.00  0.00    +0.000 OA
ATOM     23  H   UNL     1      -3.011  12.362  14.467  0.00  0.00    +0.000 HD
ENDBRANCH  20  22
ENDBRANCH  17  18
ENDBRANCH  14  16
ENDBRANCH   2  10
BRANCH   1  24
ATOM     24  C   UNL     1       1.823   5.049  19.350  0.00  0.00    +0.000 C 
BRANCH  24  25
ATOM     25  C   UNL     1       2.500   4.361  20.544  0.00  0.00    +0.000 C 
BRANCH  25  27
ATOM     26  C   UNL     1       1.693   2.461  21.783  0.00  0.00    +0.000 C 
ATOM     27  N   UNL     1       2.349   2.894  20.544  0.00  0.00    +0.000 NA
ATOM     28  C   UNL     1       1.579   2.433  19.392  0.00  0.00    +0.000 C 
ENDBRANCH  25  27
ENDBRANCH  24  25
ENDBRANCH   1  24
TORSDOF 7
ENDMDL
MODEL 5
REMARK VINA RESULT:      -7.4      4.361      8.211
REMARK  Name = 
REMARK  9 active torsions:
REMARK  status: ('A' for Active; 'I' for Inactive)
REMARK    1  A    between atoms: C_1  and  N_2
REMARK    2  A    between atoms: N_2  and  C_3
REMARK    3  A    between atoms: N_2  and  C_4
REMARK    4  A    between atoms: C_4  and  C_5
REMARK    5  A    between atoms: C_5  and  N_6
REMARK    6  A    between atoms: C_7  and  C_8
REMARK    7  A    between atoms: C_12  and  C_13
REMARK    8  A    between atoms: C_14  and  C_15
REMARK    9  A    between atoms: N_17  and  O_18
REMARK                            x       y       z     vdW  Elec       q    Type
REMARK                         _______ _______ _______ _____ _____    ______ ____
ROOT
ATOM      1  N   UNL     1       2.872   6.262  19.280  0.00  0.00    +0.000 N 
ATOM      2  C   UNL     1       2.579   7.570  18.944  0.00  0.00    +0.000 A 
ATOM      3  N   UNL     1       3.204   7.896  17.824  0.00  0.00    +0.000 NA
ATOM      4  C   UNL     1       3.934   6.800  17.453  0.00  0.00    +0.000 A 
ATOM      5  C   UNL     1       4.777   6.621  16.349  0.00  0.00    +0.000 A 
ATOM      6  C   UNL     1       5.415   5.387  16.180  0.00  0.00    +0.000 A 
ATOM      7  C   UNL     1       5.210   4.348  17.088  0.00  0.00    +0.000 A 
ATOM      8  C   UNL     1       4.364   4.508  18.191  0.00  0.00    +0.000 A 
ATOM      9  C   UNL     1       3.746   5.753  18.346  0.00  0.00    +0.000 A 
ENDROOT
BRANCH   2  10
ATOM     10  C   UNL     1       1.619   8.442  19.632  0.00  0.00    +0.000 A 
ATOM     11  C   UNL     1       1.543   8.555  21.019  0.00  0.00    +0.000 A 
ATOM     12  C   UNL     1       0.531   9.296  21.622  0.00  0.00    +0.000 A 
ATOM     13  C   UNL     1      -0.403   9.955  20.830  0.00  0.00    +0.000 A 
ATOM     14  C   UNL     1      -0.348   9.876  19.430  0.00  0.00    +0.000 A 
ATOM     15  C   UNL     1       0.697   9.147  18.851  0.00  0.00    +0.000 A 
BRANCH  14  16
ATOM     16  C   UNL     1      -1.386  10.539  18.621  0.00  0.00    +0.000 C 
ATOM     17  C   UNL     1      -1.561  10.320  17.304  0.00  0.00    +0.000 C 
BRANCH  17  18
ATOM     18  C   UNL     1      -2.658  10.954  16.546  0.00  0.00    +0.000 C 
ATOM     19  O   UNL     1      -2.810  10.835  15.322  0.00  0.00    +0.000 OA
ATOM     20  N   UNL     1      -3.490  11.701  17.328  0.00  0.00    +0.000 N 
ATOM     21  H   UNL     1      -3.419  11.808  18.334  0.00  0.00    +0.000 HD
BRANCH  20  22
ATOM     22  O   UNL     1      -4.567  12.358  16.692  0.00  0.00    +0.000 OA
ATOM     23  H   UNL     1      -5.192  11.616  16.530  0.00  0.00    +0.000 HD
ENDBRANCH  20  22
ENDBRANCH  17  18
ENDBRANCH  14  16
ENDBRANCH   2  10
BRANCH   1  24
ATOM     24  C   UNL     1       2.300   5.497  20.371  0.00  0.00    +0.000 C 
BRANCH  24  25
ATOM     25  C   UNL     1       1.193   4.531  19.925  0.00  0.00    +0.000 C 
BRANCH  25  27
ATOM     26  C   UNL     1       1.484   2.550  21.262  0.00  0.00    +0.000 C 
ATOM     27  N   UNL     1       1.612   3.117  19.915  0.00  0.00    +0.000 NA
ATOM     28  C   UNL     1       0.822   2.329  18.972  0.00  0.00    +0.000 C 
ENDBRANCH  25  27
ENDBRANCH  24  25
ENDBRANCH   1  24
TORSDOF 7
ENDMDL
MODEL 6
REMARK VINA RESULT:      -7.4      4.307      7.730
REMARK  Name = 
REMARK  9 active torsions:
REMARK  status: ('A' for Active; 'I' for Inactive)
REMARK    1  A    between atoms: C_1  and  N_2
REMARK    2  A    between atoms: N_2  and  C_3
REMARK    3  A    between atoms: N_2  and  C_4
REMARK    4  A    between atoms: C_4  and  C_5
REMARK    5  A    between atoms: C_5  and  N_6
REMARK    6  A    between atoms: C_7  and  C_8
REMARK    7  A    between atoms: C_12  and  C_13
REMARK    8  A    between atoms: C_14  and  C_15
REMARK    9  A    between atoms: N_17  and  O_18
REMARK                            x       y       z     vdW  Elec       q    Type
REMARK                         _______ _______ _______ _____ _____    ______ ____
ROOT
ATOM      1  N   UNL     1       3.583   5.238  17.478  0.00  0.00    +0.000 N 
ATOM      2  C   UNL     1       3.775   6.524  17.946  0.00  0.00    +0.000 A 
ATOM      3  N   UNL     1       4.908   7.012  17.466  0.00  0.00    +0.000 NA
ATOM      4  C   UNL     1       5.469   6.019  16.711  0.00  0.00    +0.000 A 
ATOM      5  C   UNL     1       6.672   6.016  15.992  0.00  0.00    +0.000 A 
ATOM      6  C   UNL     1       7.029   4.865  15.280  0.00  0.00    +0.000 A 
ATOM      7  C   UNL     1       6.201   3.742  15.276  0.00  0.00    +0.000 A 
ATOM      8  C   UNL     1       4.992   3.733  15.981  0.00  0.00    +0.000 A 
ATOM      9  C   UNL     1       4.661   4.890  16.695  0.00  0.00    +0.000 A 
ENDROOT
BRANCH   2  10
ATOM     10  C   UNL     1       2.820   7.303  18.744  0.00  0.00    +0.000 A 
ATOM     11  C   UNL     1       2.525   7.021  20.077  0.00  0.00    +0.000 A 
ATOM     12  C   UNL     1       1.518   7.708  20.747  0.00  0.00    +0.000 A 
ATOM     13  C   UNL     1       0.811   8.708  20.088  0.00  0.00    +0.000 A 
ATOM     14  C   UNL     1       1.090   9.027  18.750  0.00  0.00    +0.000 A 
ATOM     15  C   UNL     1       2.127   8.340  18.110  0.00  0.00    +0.000 A 
BRANCH  14  16
ATOM     16  C   UNL     1       0.285  10.053  18.063  0.00  0.00    +0.000 C 
ATOM     17  C   UNL     1      -1.055   9.992  17.940  0.00  0.00    +0.000 C 
BRANCH  17  18
ATOM     18  C   UNL     1      -1.830  11.077  17.303  0.00  0.00    +0.000 C 
ATOM     19  O   UNL     1      -1.988  12.199  17.805  0.00  0.00    +0.000 OA
ATOM     20  N   UNL     1      -2.371  10.717  16.103  0.00  0.00    +0.000 N 
ATOM     21  H   UNL     1      -2.248   9.822  15.643  0.00  0.00    +0.000 HD
BRANCH  20  22
ATOM     22  O   UNL     1      -3.141  11.685  15.420  0.00  0.00    +0.000 OA
ATOM     23  H   UNL     1      -3.620  11.135  14.761  0.00  0.00    +0.000 HD
ENDBRANCH  20  22
ENDBRANCH  17  18
ENDBRANCH  14  16
ENDBRANCH   2  10
BRANCH   1  24
ATOM     24  C   UNL     1       2.414   4.405  17.684  0.00  0.00    +0.000 C 
BRANCH  24  25
ATOM     25  C   UNL     1       2.508   3.520  18.935  0.00  0.00    +0.000 C 
BRANCH  25  27
ATOM     26  C   UNL     1       0.471   2.237  18.980  0.00  0.00    +0.000 C 
ATOM     27  N   UNL     1       1.217   3.327  19.620  0.00  0.00    +0.000 NA
ATOM     28  C   UNL     1       1.401   3.031  21.039  0.00  0.00    +0.000 C 
ENDBRANCH  25  27
ENDBRANCH  24  25
ENDBRANCH   1  24
TORSDOF 7
ENDMDL
MODEL 7
REMARK VINA RESULT:      -7.4      0.885      1.078
REMARK  Name = 
REMARK  9 active torsions:
REMARK  status: ('A' for Active; 'I' for Inactive)
REMARK    1  A    between atoms: C_1  and  N_2
REMARK    2  A    between atoms: N_2  and  C_3
REMARK    3  A    between atoms: N_2  and  C_4
REMARK    4  A    between atoms: C_4  and  C_5
REMARK    5  A    between atoms: C_5  and  N_6
REMARK    6  A    between atoms: C_7  and  C_8
REMARK    7  A    between atoms: C_12  and  C_13
REMARK    8  A    between atoms: C_14  and  C_15
REMARK    9  A    between atoms: N_17  and  O_18
REMARK                            x       y       z     vdW  Elec       q    Type
REMARK                         _______ _______ _______ _____ _____    ______ ____
ROOT
ATOM      1  N   UNL     1       3.363   4.727  18.567  0.00  0.00    +0.000 N 
ATOM      2  C   UNL     1       4.620   4.175  18.407  0.00  0.00    +0.000 A 
ATOM      3  N   UNL     1       4.797   3.200  19.284  0.00  0.00    +0.000 NA
ATOM      4  C   UNL     1       3.658   3.146  20.040  0.00  0.00    +0.000 A 
ATOM      5  C   UNL     1       3.335   2.299  21.108  0.00  0.00    +0.000 A 
ATOM      6  C   UNL     1       2.085   2.435  21.723  0.00  0.00    +0.000 A 
ATOM      7  C   UNL     1       1.171   3.391  21.278  0.00  0.00    +0.000 A 
ATOM      8  C   UNL     1       1.475   4.238  20.207  0.00  0.00    +0.000 A 
ATOM      9  C   UNL     1       2.734   4.092  19.615  0.00  0.00    +0.000 A 
ENDROOT
BRANCH   2  10
ATOM     10  C   UNL     1       5.579   4.508  17.346  0.00  0.00    +0.000 A 
ATOM     11  C   UNL     1       6.587   5.459  17.496  0.00  0.00    +0.000 A 
ATOM     12  C   UNL     1       7.386   5.829  16.418  0.00  0.00    +0.000 A 
ATOM     13  C   UNL     1       7.195   5.224  15.181  0.00  0.00    +0.000 A 
ATOM     14  C   UNL     1       6.199   4.252  14.998  0.00  0.00    +0.000 A 
ATOM     15  C   UNL     1       5.430   3.880  16.105  0.00  0.00    +0.000 A 
BRANCH  14  16
ATOM     16  C   UNL     1       5.985   3.671  13.661  0.00  0.00    +0.000 C 
ATOM     17  C   UNL     1       4.791   3.646  13.039  0.00  0.00    +0.000 C 
BRANCH  17  18
ATOM     18  C   UNL     1       4.634   3.116  11.669  0.00  0.00    +0.000 C 
ATOM     19  O   UNL     1       5.329   2.206  11.198  0.00  0.00    +0.000 OA
ATOM     20  N   UNL     1       3.647   3.740  10.962  0.00  0.00    +0.000 N 
ATOM     21  H   UNL     1       3.039   4.471  11.313  0.00  0.00    +0.000 HD
BRANCH  20  22
ATOM     22  O   UNL     1       3.427   3.310   9.634  0.00  0.00    +0.000 OA
ATOM     23  H   UNL     1       2.448   3.360   9.564  0.00  0.00    +0.000 HD
ENDBRANCH  20  22
ENDBRANCH  17  18
ENDBRANCH  14  16
ENDBRANCH   2  10
BRANCH   1  24
ATOM     24  C   UNL     1       2.748   5.740  17.732  0.00  0.00    +0.000 C 
BRANCH  24  25
ATOM     25  C   UNL     1       3.113   7.174  18.143  0.00  0.00    +0.000 C 
BRANCH  25  27
ATOM     26  C   UNL     1       1.801   8.112  19.930  0.00  0.00    +0.000 C 
ATOM     27  N   UNL     1       1.945   8.010  18.473  0.00  0.00    +0.000 NA
ATOM     28  C   UNL     1       2.060   9.347  17.895  0.00  0.00    +0.000 C 
ENDBRANCH  25  27
ENDBRANCH  24  25
ENDBRANCH   1  24
TORSDOF 7
ENDMDL
MODEL 8
REMARK VINA RESULT:      -7.3      1.368      3.880
REMARK  Name = 
REMARK  9 active torsions:
REMARK  status: ('A' for Active; 'I' for Inactive)
REMARK    1  A    between atoms: C_1  and  N_2
REMARK    2  A    between atoms: N_2  and  C_3
REMARK    3  A    between atoms: N_2  and  C_4
REMARK    4  A    between atoms: C_4  and  C_5
REMARK    5  A    between atoms: C_5  and  N_6
REMARK    6  A    between atoms: C_7  and  C_8
REMARK    7  A    between atoms: C_12  and  C_13
REMARK    8  A    between atoms: C_14  and  C_15
REMARK    9  A    between atoms: N_17  and  O_18
REMARK                            x       y       z     vdW  Elec       q    Type
REMARK                         _______ _______ _______ _____ _____    ______ ____
ROOT
ATOM      1  N   UNL     1       2.991   6.149  19.543  0.00  0.00    +0.000 N 
ATOM      2  C   UNL     1       3.664   6.584  18.417  0.00  0.00    +0.000 A 
ATOM      3  N   UNL     1       3.252   7.799  18.089  0.00  0.00    +0.000 NA
ATOM      4  C   UNL     1       2.281   8.136  18.990  0.00  0.00    +0.000 A 
ATOM      5  C   UNL     1       1.518   9.307  19.084  0.00  0.00    +0.000 A 
ATOM      6  C   UNL     1       0.578   9.419  20.115  0.00  0.00    +0.000 A 
ATOM      7  C   UNL     1       0.407   8.389  21.041  0.00  0.00    +0.000 A 
ATOM      8  C   UNL     1       1.168   7.217  20.966  0.00  0.00    +0.000 A 
ATOM      9  C   UNL     1       2.092   7.122  19.921  0.00  0.00    +0.000 A 
ENDROOT
BRANCH   2  10
ATOM     10  C   UNL     1       4.767   5.884  17.747  0.00  0.00    +0.000 A 
ATOM     11  C   UNL     1       6.076   5.877  18.229  0.00  0.00    +0.000 A 
ATOM     12  C   UNL     1       7.107   5.307  17.489  0.00  0.00    +0.000 A 
ATOM     13  C   UNL     1       6.827   4.714  16.263  0.00  0.00    +0.000 A 
ATOM     14  C   UNL     1       5.520   4.690  15.754  0.00  0.00    +0.000 A 
ATOM     15  C   UNL     1       4.498   5.245  16.532  0.00  0.00    +0.000 A 
BRANCH  14  16
ATOM     16  C   UNL     1       5.265   4.104  14.426  0.00  0.00    +0.000 C 
ATOM     17  C   UNL     1       6.233   3.840  13.528  0.00  0.00    +0.000 C 
BRANCH  17  18
ATOM     18  C   UNL     1       5.942   3.187  12.235  0.00  0.00    +0.000 C 
ATOM     19  O   UNL     1       6.797   2.624  11.537  0.00  0.00    +0.000 OA
ATOM     20  N   UNL     1       4.628   3.274  11.873  0.00  0.00    +0.000 N 
ATOM     21  H   UNL     1       3.891   3.702  12.421  0.00  0.00    +0.000 HD
BRANCH  20  22
ATOM     22  O   UNL     1       4.252   2.688  10.644  0.00  0.00    +0.000 OA
ATOM     23  H   UNL     1       3.282   2.577  10.760  0.00  0.00    +0.000 HD
ENDBRANCH  20  22
ENDBRANCH  17  18
ENDBRANCH  14  16
ENDBRANCH   2  10
BRANCH   1  24
ATOM     24  C   UNL     1       3.233   4.924  20.279  0.00  0.00    +0.000 C 
BRANCH  24  25
ATOM     25  C   UNL     1       2.328   3.762  19.844  0.00  0.00    +0.000 C 
BRANCH  25  27
ATOM     26  C   UNL     1       2.857   2.225  18.069  0.00  0.00    +0.000 C 
ATOM     27  N   UNL     1       3.069   2.538  19.487  0.00  0.00    +0.000 NA
ATOM     28  C   UNL     1       4.499   2.679  19.751  0.00  0.00    +0.000 C 
ENDBRANCH  25  27
ENDBRANCH  24  25
ENDBRANCH   1  24
TORSDOF 7
ENDMDL
MODEL 9
REMARK VINA RESULT:      -7.3      1.384      4.048
REMARK  Name = 
REMARK  9 active torsions:
REMARK  status: ('A' for Active; 'I' for Inactive)
REMARK    1  A    between atoms: C_1  and  N_2
REMARK    2  A    between atoms: N_2  and  C_3
REMARK    3  A    between atoms: N_2  and  C_4
REMARK    4  A    between atoms: C_4  and  C_5
REMARK    5  A    between atoms: C_5  and  N_6
REMARK    6  A    between atoms: C_7  and  C_8
REMARK    7  A    between atoms: C_12  and  C_13
REMARK    8  A    between atoms: C_14  and  C_15
REMARK    9  A    between atoms: N_17  and  O_18
REMARK                            x       y       z     vdW  Elec       q    Type
REMARK                         _______ _______ _______ _____ _____    ______ ____
ROOT
ATOM      1  N   UNL     1       2.957   6.675  19.314  0.00  0.00    +0.000 N 
ATOM      2  C   UNL     1       3.765   6.798  18.200  0.00  0.00    +0.000 A 
ATOM      3  N   UNL     1       3.475   7.918  17.557  0.00  0.00    +0.000 NA
ATOM      4  C   UNL     1       2.447   8.504  18.242  0.00  0.00    +0.000 A 
ATOM      5  C   UNL     1       1.765   9.699  17.977  0.00  0.00    +0.000 A 
ATOM      6  C   UNL     1       0.740  10.097  18.843  0.00  0.00    +0.000 A 
ATOM      7  C   UNL     1       0.407   9.325  19.957  0.00  0.00    +0.000 A 
ATOM      8  C   UNL     1       1.085   8.134  20.240  0.00  0.00    +0.000 A 
ATOM      9  C   UNL     1       2.097   7.750  19.355  0.00  0.00    +0.000 A 
ENDROOT
BRANCH   2  10
ATOM     10  C   UNL     1       4.875   5.908  17.838  0.00  0.00    +0.000 A 
ATOM     11  C   UNL     1       6.006   5.730  18.633  0.00  0.00    +0.000 A 
ATOM     12  C   UNL     1       7.086   4.977  18.182  0.00  0.00    +0.000 A 
ATOM     13  C   UNL     1       7.026   4.369  16.933  0.00  0.00    +0.000 A 
ATOM     14  C   UNL     1       5.897   4.515  16.112  0.00  0.00    +0.000 A 
ATOM     15  C   UNL     1       4.816   5.255  16.602  0.00  0.00    +0.000 A 
BRANCH  14  16
ATOM     16  C   UNL     1       5.889   3.905  14.770  0.00  0.00    +0.000 C 
ATOM     17  C   UNL     1       6.648   4.341  13.746  0.00  0.00    +0.000 C 
BRANCH  17  18
ATOM     18  C   UNL     1       6.660   3.657  12.437  0.00  0.00    +0.000 C 
ATOM     19  O   UNL     1       7.204   4.117  11.423  0.00  0.00    +0.000 OA
ATOM     20  N   UNL     1       5.998   2.464  12.448  0.00  0.00    +0.000 N 
ATOM     21  H   UNL     1       5.559   2.038  13.256  0.00  0.00    +0.000 HD
BRANCH  20  22
ATOM     22  O   UNL     1       5.944   1.738  11.237  0.00  0.00    +0.000 OA
ATOM     23  H   UNL     1       6.790   1.996  10.807  0.00  0.00    +0.000 HD
ENDBRANCH  20  22
ENDBRANCH  17  18
ENDBRANCH  14  16
ENDBRANCH   2  10
BRANCH   1  24
ATOM     24  C   UNL     1       3.038   5.649  20.336  0.00  0.00    +0.000 C 
BRANCH  24  25
ATOM     25  C   UNL     1       1.745   4.833  20.485  0.00  0.00    +0.000 C 
BRANCH  25  27
ATOM     26  C   UNL     1       3.357   3.096  20.065  0.00  0.00    +0.000 C 
ATOM     27  N   UNL     1       1.939   3.383  20.309  0.00  0.00    +0.000 NA
ATOM     28  C   UNL     1       1.479   2.633  21.476  0.00  0.00    +0.000 C 
ENDBRANCH  25  27
ENDBRANCH  24  25
ENDBRANCH   1  24
TORSDOF 7
ENDMDL
