MODEL 1
REMARK VINA RESULT:      -8.0      0.000      0.000
REMARK  Name = 
REMARK  4 active torsions:
REMARK  status: ('A' for Active; 'I' for Inactive)
REMARK    1  A    between atoms: C_5  and  C_6
REMARK    2  A    between atoms: C_6  and  N_7
REMARK    3  A    between atoms: C_10  and  C_11
REMARK    4  A    between atoms: C_14  and  C_15
REMARK                            x       y       z     vdW  Elec       q    Type
REMARK                         _______ _______ _______ _____ _____    ______ ____
ROOT
ATOM      1  N   UNL     1       4.041   5.562  17.645  0.00  0.00    +0.000 NA
ATOM      2  C   UNL     1       4.453   6.704  16.826  0.00  0.00    +0.000 C 
ATOM      3  C   UNL     1       5.636   6.369  15.918  0.00  0.00    +0.000 C 
ATOM      4  C   UNL     1       6.831   5.828  16.716  0.00  0.00    +0.000 C 
ATOM      5  C   UNL     1       6.358   4.632  17.544  0.00  0.00    +0.000 C 
ATOM      6  C   UNL     1       5.140   4.959  18.407  0.00  0.00    +0.000 C 
ENDROOT
BRANCH   4   7
ATOM      7  C   UNL     1       7.550   6.905  17.482  0.00  0.00    +0.000 A 
ATOM      8  N   UNL     1       8.135   6.626  18.657  0.00  0.00    +0.000 NA
ATOM      9  N   UNL     1       8.581   7.825  19.036  0.00  0.00    +0.000 N 
ATOM     10  C   UNL     1       8.264   8.792  18.130  0.00  0.00    +0.000 A 
ATOM     11  N   UNL     1       7.615   8.237  17.124  0.00  0.00    +0.000 NA
ATOM     12  H   UNL     1       9.065   7.921  19.921  0.00  0.00    +0.000 HD
BRANCH  10  13
ATOM     13  C   UNL     1       8.589  10.263  18.339  0.00  0.00    +0.000 C 
ATOM     14  C   UNL     1       9.530  10.695  19.439  0.00  0.00    +0.000 C 
ATOM     15  C   UNL     1       9.993  10.733  18.024  0.00  0.00    +0.000 C 
ENDBRANCH  10  13
ENDBRANCH   4   7
BRANCH   1  16
ATOM     16  C   UNL     1       2.864   5.860  18.484  0.00  0.00    +0.000 C 
BRANCH  16  21
ATOM     17  C   UNL     1       1.770   3.608  21.368  0.00  0.00    +0.000 A 
ATOM     18  C   UNL     1       1.168   2.598  20.637  0.00  0.00    +0.000 A 
ATOM     19  N   UNL     1       1.093   2.590  19.290  0.00  0.00    +0.000 NA
ATOM     20  C   UNL     1       1.643   3.647  18.647  0.00  0.00    +0.000 A 
ATOM     21  C   UNL     1       2.271   4.718  19.279  0.00  0.00    +0.000 A 
ATOM     22  C   UNL     1       2.332   4.678  20.676  0.00  0.00    +0.000 A 
ENDBRANCH  16  21
ENDBRANCH   1  16
TORSDOF 4
ENDMDL
MODEL 2
REMARK VINA RESULT:      -7.8      0.612      1.108
REMARK  Name = 
REMARK  4 active torsions:
REMARK  status: ('A' for Active; 'I' for Inactive)
REMARK    1  A    between atoms: C_5  and  C_6
REMARK    2  A    between atoms: C_6  and  N_7
REMARK    3  A    between atoms: C_10  and  C_11
REMARK    4  A    between atoms: C_14  and  C_15
REMARK                            x       y       z     vdW  Elec       q    Type
REMARK                         _______ _______ _______ _____ _____    ______ ____
ROOT
ATOM      1  N   UNL     1       4.223   5.642  18.056  0.00  0.00    +0.000 NA
ATOM      2  C   UNL     1       4.482   6.842  17.256  0.00  0.00    +0.000 C 
ATOM      3  C   UNL     1       5.562   6.611  16.200  0.00  0.00    +0.000 C 
ATOM      4  C   UNL     1       6.868   6.097  16.824  0.00  0.00    +0.000 C 
ATOM      5  C   UNL     1       6.553   4.840  17.637  0.00  0.00    +0.000 C 
ATOM      6  C   UNL     1       5.432   5.062  18.652  0.00  0.00    +0.000 C 
ENDROOT
BRANCH   4   7
ATOM      7  C   UNL     1       7.621   7.173  17.557  0.00  0.00    +0.000 A 
ATOM      8  N   UNL     1       8.247   6.897  18.711  0.00  0.00    +0.000 NA
ATOM      9  N   UNL     1       8.715   8.094  19.066  0.00  0.00    +0.000 N 
ATOM     10  C   UNL     1       8.373   9.059  18.166  0.00  0.00    +0.000 A 
ATOM     11  N   UNL     1       7.683   8.503  17.188  0.00  0.00    +0.000 NA
ATOM     12  H   UNL     1       9.232   8.192  19.932  0.00  0.00    +0.000 HD
BRANCH  10  13
ATOM     13  C   UNL     1       8.716  10.528  18.353  0.00  0.00    +0.000 C 
ATOM     14  C   UNL     1       9.742  10.955  19.377  0.00  0.00    +0.000 C 
ATOM     15  C   UNL     1      10.091  10.998  17.930  0.00  0.00    +0.000 C 
ENDBRANCH  10  13
ENDBRANCH   4   7
BRANCH   1  16
ATOM     16  C   UNL     1       3.142   5.839  19.042  0.00  0.00    +0.000 C 
BRANCH  16  21
ATOM     17  C   UNL     1       0.964   2.721  18.705  0.00  0.00    +0.000 A 
ATOM     18  C   UNL     1       0.693   2.501  20.045  0.00  0.00    +0.000 A 
ATOM     19  N   UNL     1       1.156   3.283  21.042  0.00  0.00    +0.000 NA
ATOM     20  C   UNL     1       1.933   4.331  20.678  0.00  0.00    +0.000 A 
ATOM     21  C   UNL     1       2.271   4.645  19.364  0.00  0.00    +0.000 A 
ATOM     22  C   UNL     1       1.761   3.811  18.364  0.00  0.00    +0.000 A 
ENDBRANCH  16  21
ENDBRANCH   1  16
TORSDOF 4
ENDMDL
MODEL 3
REMARK VINA RESULT:      -7.7      2.745      5.082
REMARK  Name = 
REMARK  4 active torsions:
REMARK  status: ('A' for Active; 'I' for Inactive)
REMARK    1  A    between atoms: C_5  and  C_6
REMARK    2  A    between atoms: C_6  and  N_7
REMARK    3  A    between atoms: C_10  and  C_11
REMARK    4  A    between atoms: C_14  and  C_15
REMARK                            x       y       z     vdW  Elec       q    Type
REMARK                         _______ _______ _______ _____ _____    ______ ____
ROOT
ATOM      1  N   UNL     1       4.477   5.908  18.282  0.00  0.00    +0.000 NA
ATOM      2  C   UNL     1       5.006   4.555  18.086  0.00  0.00    +0.000 C 
ATOM      3  C   UNL     1       6.532   4.534  18.018  0.00  0.00    +0.000 C 
ATOM      4  C   UNL     1       7.067   5.476  16.929  0.00  0.00    +0.000 C 
ATOM      5  C   UNL     1       6.501   6.875  17.180  0.00  0.00    +0.000 C 
ATOM      6  C   UNL     1       4.977   6.880  17.304  0.00  0.00    +0.000 C 
ENDROOT
BRANCH   4   7
ATOM      7  C   UNL     1       6.861   4.931  15.542  0.00  0.00    +0.000 A 
ATOM      8  N   UNL     1       7.567   5.419  14.510  0.00  0.00    +0.000 NA
ATOM      9  N   UNL     1       7.052   4.746  13.480  0.00  0.00    +0.000 N 
ATOM     10  C   UNL     1       6.064   3.895  13.874  0.00  0.00    +0.000 A 
ATOM     11  N   UNL     1       5.924   3.982  15.184  0.00  0.00    +0.000 NA
ATOM     12  H   UNL     1       7.395   4.926  12.544  0.00  0.00    +0.000 HD
BRANCH  10  13
ATOM     13  C   UNL     1       5.256   3.052  12.899  0.00  0.00    +0.000 C 
ATOM     14  C   UNL     1       4.925   3.574  11.521  0.00  0.00    +0.000 C 
ATOM     15  C   UNL     1       5.959   2.513  11.672  0.00  0.00    +0.000 C 
ENDBRANCH  10  13
ENDBRANCH   4   7
BRANCH   1  16
ATOM     16  C   UNL     1       3.006   5.930  18.405  0.00  0.00    +0.000 C 
BRANCH  16  21
ATOM     17  C   UNL     1       0.972   2.885  19.484  0.00  0.00    +0.000 A 
ATOM     18  C   UNL     1       1.234   2.920  20.842  0.00  0.00    +0.000 A 
ATOM     19  N   UNL     1       2.012   3.851  21.432  0.00  0.00    +0.000 NA
ATOM     20  C   UNL     1       2.557   4.787  20.619  0.00  0.00    +0.000 A 
ATOM     21  C   UNL     1       2.363   4.847  19.241  0.00  0.00    +0.000 A 
ATOM     22  C   UNL     1       1.543   3.865  18.676  0.00  0.00    +0.000 A 
ENDBRANCH  16  21
ENDBRANCH   1  16
TORSDOF 4
ENDMDL
MODEL 4
REMARK VINA RESULT:      -7.6      3.438      5.565
REMARK  Name = 
REMARK  4 active torsions:
REMARK  status: ('A' for Active; 'I' for Inactive)
REMARK    1  A    between atoms: C_5  and  C_6
REMARK    2  A    between atoms: C_6  and  N_7
REMARK    3  A    between atoms: C_10  and  C_11
REMARK    4  A    between atoms: C_14  and  C_15
REMARK                            x       y       z     vdW  Elec       q    Type
REMARK                         _______ _______ _______ _____ _____    ______ ____
ROOT
ATOM      1  N   UNL     1       4.205   6.447  17.776  0.00  0.00    +0.000 NA
ATOM      2  C   UNL     1       3.964   5.163  17.111  0.00  0.00    +0.000 C 
ATOM      3  C   UNL     1       5.018   4.117  17.472  0.00  0.00    +0.000 C 
ATOM      4  C   UNL     1       6.439   4.612  17.170  0.00  0.00    +0.000 C 
ATOM      5  C   UNL     1       6.651   5.944  17.892  0.00  0.00    +0.000 C 
ATOM      6  C   UNL     1       5.561   6.967  17.571  0.00  0.00    +0.000 C 
ENDROOT
BRANCH   4   7
ATOM      7  C   UNL     1       6.749   4.615  15.697  0.00  0.00    +0.000 A 
ATOM      8  N   UNL     1       7.617   5.504  15.189  0.00  0.00    +0.000 NA
ATOM      9  N   UNL     1       7.558   5.232  13.884  0.00  0.00    +0.000 N 
ATOM     10  C   UNL     1       6.678   4.227  13.615  0.00  0.00    +0.000 A 
ATOM     11  N   UNL     1       6.153   3.806  14.751  0.00  0.00    +0.000 NA
ATOM     12  H   UNL     1       8.115   5.775  13.235  0.00  0.00    +0.000 HD
BRANCH  10  13
ATOM     13  C   UNL     1       6.360   3.757  12.204  0.00  0.00    +0.000 C 
ATOM     14  C   UNL     1       6.037   2.307  11.931  0.00  0.00    +0.000 C 
ATOM     15  C   UNL     1       4.943   3.317  11.903  0.00  0.00    +0.000 C 
ENDBRANCH  10  13
ENDBRANCH   4   7
BRANCH   1  16
ATOM     16  C   UNL     1       3.161   7.446  17.477  0.00  0.00    +0.000 C 
BRANCH  16  21
ATOM     17  C   UNL     1       0.930   9.621  19.684  0.00  0.00    +0.000 A 
ATOM     18  C   UNL     1       0.864   8.802  20.798  0.00  0.00    +0.000 A 
ATOM     19  N   UNL     1       1.486   7.608  20.889  0.00  0.00    +0.000 NA
ATOM     20  C   UNL     1       2.203   7.215  19.809  0.00  0.00    +0.000 A 
ATOM     21  C   UNL     1       2.337   7.956  18.637  0.00  0.00    +0.000 A 
ATOM     22  C   UNL     1       1.681   9.191  18.592  0.00  0.00    +0.000 A 
ENDBRANCH  16  21
ENDBRANCH   1  16
TORSDOF 4
ENDMDL
MODEL 5
REMARK VINA RESULT:      -7.6      2.746      4.929
REMARK  Name = 
REMARK  4 active torsions:
REMARK  status: ('A' for Active; 'I' for Inactive)
REMARK    1  A    between atoms: C_5  and  C_6
REMARK    2  A    between atoms: C_6  and  N_7
REMARK    3  A    between atoms: C_10  and  C_11
REMARK    4  A    between atoms: C_14  and  C_15
REMARK                            x       y       z     vdW  Elec       q    Type
REMARK                         _______ _______ _______ _____ _____    ______ ____
ROOT
ATOM      1  N   UNL     1       4.169   6.358  18.608  0.00  0.00    +0.000 NA
ATOM      2  C   UNL     1       4.822   5.049  18.706  0.00  0.00    +0.000 C 
ATOM      3  C   UNL     1       6.327   5.132  18.455  0.00  0.00    +0.000 C 
ATOM      4  C   UNL     1       6.644   5.785  17.102  0.00  0.00    +0.000 C 
ATOM      5  C   UNL     1       5.956   7.150  17.050  0.00  0.00    +0.000 C 
ATOM      6  C   UNL     1       4.460   7.067  17.358  0.00  0.00    +0.000 C 
ENDROOT
BRANCH   4   7
ATOM      7  C   UNL     1       6.363   4.871  15.939  0.00  0.00    +0.000 A 
ATOM      8  N   UNL     1       6.100   3.572  16.146  0.00  0.00    +0.000 NA
ATOM      9  N   UNL     1       5.985   3.111  14.900  0.00  0.00    +0.000 N 
ATOM     10  C   UNL     1       6.186   4.093  13.976  0.00  0.00    +0.000 A 
ATOM     11  N   UNL     1       6.419   5.229  14.607  0.00  0.00    +0.000 NA
ATOM     12  H   UNL     1       5.796   2.128  14.746  0.00  0.00    +0.000 HD
BRANCH  10  13
ATOM     13  C   UNL     1       6.182   3.836  12.478  0.00  0.00    +0.000 C 
ATOM     14  C   UNL     1       5.943   2.447  11.935  0.00  0.00    +0.000 C 
ATOM     15  C   UNL     1       4.867   3.470  11.821  0.00  0.00    +0.000 C 
ENDBRANCH  10  13
ENDBRANCH   4   7
BRANCH   1  16
ATOM     16  C   UNL     1       2.725   6.296  18.904  0.00  0.00    +0.000 C 
BRANCH  16  21
ATOM     17  C   UNL     1       1.066   3.085  20.136  0.00  0.00    +0.000 A 
ATOM     18  C   UNL     1       0.932   2.432  18.924  0.00  0.00    +0.000 A 
ATOM     19  N   UNL     1       1.338   2.948  17.745  0.00  0.00    +0.000 NA
ATOM     20  C   UNL     1       1.900   4.179  17.785  0.00  0.00    +0.000 A 
ATOM     21  C   UNL     1       2.083   4.927  18.946  0.00  0.00    +0.000 A 
ATOM     22  C   UNL     1       1.654   4.348  20.144  0.00  0.00    +0.000 A 
ENDBRANCH  16  21
ENDBRANCH   1  16
TORSDOF 4
ENDMDL
MODEL 6
REMARK VINA RESULT:      -7.6      2.730      4.981
REMARK  Name = 
REMARK  4 active torsions:
REMARK  status: ('A' for Active; 'I' for Inactive)
REMARK    1  A    between atoms: C_5  and  C_6
REMARK    2  A    between atoms: C_6  and  N_7
REMARK    3  A    between atoms: C_10  and  C_11
REMARK    4  A    between atoms: C_14  and  C_15
REMARK                            x       y       z     vdW  Elec       q    Type
REMARK                         _______ _______ _______ _____ _____    ______ ____
ROOT
ATOM      1  N   UNL     1       4.573   6.051  18.242  0.00  0.00    +0.000 NA
ATOM      2  C   UNL     1       4.941   4.654  17.998  0.00  0.00    +0.000 C 
ATOM      3  C   UNL     1       6.455   4.447  17.986  0.00  0.00    +0.000 C 
ATOM      4  C   UNL     1       7.147   5.365  16.968  0.00  0.00    +0.000 C 
ATOM      5  C   UNL     1       6.746   6.810  17.269  0.00  0.00    +0.000 C 
ATOM      6  C   UNL     1       5.230   6.998  17.335  0.00  0.00    +0.000 C 
ENDROOT
BRANCH   4   7
ATOM      7  C   UNL     1       6.938   4.915  15.548  0.00  0.00    +0.000 A 
ATOM      8  N   UNL     1       7.592   5.517  14.542  0.00  0.00    +0.000 NA
ATOM      9  N   UNL     1       7.089   4.895  13.474  0.00  0.00    +0.000 N 
ATOM     10  C   UNL     1       6.157   3.964  13.822  0.00  0.00    +0.000 A 
ATOM     11  N   UNL     1       6.044   3.945  15.137  0.00  0.00    +0.000 NA
ATOM     12  H   UNL     1       7.399   5.164  12.548  0.00  0.00    +0.000 HD
BRANCH  10  13
ATOM     13  C   UNL     1       5.372   3.154  12.803  0.00  0.00    +0.000 C 
ATOM     14  C   UNL     1       5.372   3.545  11.343  0.00  0.00    +0.000 C 
ATOM     15  C   UNL     1       6.149   2.352  11.780  0.00  0.00    +0.000 C 
ENDBRANCH  10  13
ENDBRANCH   4   7
BRANCH   1  16
ATOM     16  C   UNL     1       3.112   6.250  18.311  0.00  0.00    +0.000 C 
BRANCH  16  21
ATOM     17  C   UNL     1       1.201   3.775  20.502  0.00  0.00    +0.000 A 
ATOM     18  C   UNL     1       0.743   2.921  19.514  0.00  0.00    +0.000 A 
ATOM     19  N   UNL     1       1.007   3.082  18.201  0.00  0.00    +0.000 NA
ATOM     20  C   UNL     1       1.762   4.155  17.863  0.00  0.00    +0.000 A 
ATOM     21  C   UNL     1       2.273   5.079  18.771  0.00  0.00    +0.000 A 
ATOM     22  C   UNL     1       1.979   4.866  20.122  0.00  0.00    +0.000 A 
ENDBRANCH  16  21
ENDBRANCH   1  16
TORSDOF 4
ENDMDL
MODEL 7
REMARK VINA RESULT:      -7.6      2.885      4.967
REMARK  Name = 
REMARK  4 active torsions:
REMARK  status: ('A' for Active; 'I' for Inactive)
REMARK    1  A    between atoms: C_5  and  C_6
REMARK    2  A    between atoms: C_6  and  N_7
REMARK    3  A    between atoms: C_10  and  C_11
REMARK    4  A    between atoms: C_14  and  C_15
REMARK                            x       y       z     vdW  Elec       q    Type
REMARK                         _______ _______ _______ _____ _____    ______ ____
ROOT
ATOM      1  N   UNL     1       3.916   6.199  18.615  0.00  0.00    +0.000 NA
ATOM      2  C   UNL     1       4.689   4.958  18.714  0.00  0.00    +0.000 C 
ATOM      3  C   UNL     1       6.182   5.186  18.482  0.00  0.00    +0.000 C 
ATOM      4  C   UNL     1       6.450   5.872  17.135  0.00  0.00    +0.000 C 
ATOM      5  C   UNL     1       5.635   7.166  17.081  0.00  0.00    +0.000 C 
ATOM      6  C   UNL     1       4.152   6.939  17.370  0.00  0.00    +0.000 C 
ENDROOT
BRANCH   4   7
ATOM      7  C   UNL     1       6.271   4.942  15.966  0.00  0.00    +0.000 A 
ATOM      8  N   UNL     1       6.182   3.617  16.161  0.00  0.00    +0.000 NA
ATOM      9  N   UNL     1       6.108   3.159  14.911  0.00  0.00    +0.000 N 
ATOM     10  C   UNL     1       6.164   4.167  13.996  0.00  0.00    +0.000 A 
ATOM     11  N   UNL     1       6.258   5.318  14.637  0.00  0.00    +0.000 NA
ATOM     12  H   UNL     1       6.046   2.160  14.748  0.00  0.00    +0.000 HD
BRANCH  10  13
ATOM     13  C   UNL     1       6.168   3.928  12.495  0.00  0.00    +0.000 C 
ATOM     14  C   UNL     1       5.997   2.534  11.936  0.00  0.00    +0.000 C 
ATOM     15  C   UNL     1       4.871   3.504  11.837  0.00  0.00    +0.000 C 
ENDBRANCH  10  13
ENDBRANCH   4   7
BRANCH   1  16
ATOM     16  C   UNL     1       2.480   5.998  18.893  0.00  0.00    +0.000 C 
BRANCH  16  21
ATOM     17  C   UNL     1       1.061   2.611  19.938  0.00  0.00    +0.000 A 
ATOM     18  C   UNL     1       1.434   2.621  21.270  0.00  0.00    +0.000 A 
ATOM     19  N   UNL     1       2.104   3.638  21.853  0.00  0.00    +0.000 NA
ATOM     20  C   UNL     1       2.418   4.689  21.060  0.00  0.00    +0.000 A 
ATOM     21  C   UNL     1       2.095   4.784  19.708  0.00  0.00    +0.000 A 
ATOM     22  C   UNL     1       1.394   3.710  19.150  0.00  0.00    +0.000 A 
ENDBRANCH  16  21
ENDBRANCH   1  16
TORSDOF 4
ENDMDL
MODEL 8
REMARK VINA RESULT:      -7.6      0.950      1.110
REMARK  Name = 
REMARK  4 active torsions:
REMARK  status: ('A' for Active; 'I' for Inactive)
REMARK    1  A    between atoms: C_5  and  C_6
REMARK    2  A    between atoms: C_6  and  N_7
REMARK    3  A    between atoms: C_10  and  C_11
REMARK    4  A    between atoms: C_14  and  C_15
REMARK                            x       y       z     vdW  Elec       q    Type
REMARK                         _______ _______ _______ _____ _____    ______ ____
ROOT
ATOM      1  N   UNL     1       5.064   4.725  18.262  0.00  0.00    +0.000 NA
ATOM      2  C   UNL     1       4.749   6.122  17.950  0.00  0.00    +0.000 C 
ATOM      3  C   UNL     1       5.362   6.572  16.625  0.00  0.00    +0.000 C 
ATOM      4  C   UNL     1       6.881   6.351  16.595  0.00  0.00    +0.000 C 
ATOM      5  C   UNL     1       7.161   4.880  16.912  0.00  0.00    +0.000 C 
ATOM      6  C   UNL     1       6.498   4.422  18.210  0.00  0.00    +0.000 C 
ENDROOT
BRANCH   4   7
ATOM      7  C   UNL     1       7.627   7.350  17.436  0.00  0.00    +0.000 A 
ATOM      8  N   UNL     1       8.202   6.972  18.588  0.00  0.00    +0.000 NA
ATOM      9  N   UNL     1       8.680   8.128  19.051  0.00  0.00    +0.000 N 
ATOM     10  C   UNL     1       8.392   9.166  18.216  0.00  0.00    +0.000 A 
ATOM     11  N   UNL     1       7.730   8.702  17.173  0.00  0.00    +0.000 NA
ATOM     12  H   UNL     1       9.166   8.148  19.940  0.00  0.00    +0.000 HD
BRANCH  10  13
ATOM     13  C   UNL     1       8.757  10.609  18.529  0.00  0.00    +0.000 C 
ATOM     14  C   UNL     1       9.860  10.929  19.511  0.00  0.00    +0.000 C 
ATOM     15  C   UNL     1      10.101  11.122  18.054  0.00  0.00    +0.000 C 
ENDBRANCH  10  13
ENDBRANCH   4   7
BRANCH   1  16
ATOM     16  C   UNL     1       4.430   4.265  19.513  0.00  0.00    +0.000 C 
BRANCH  16  21
ATOM     17  C   UNL     1       0.800   3.347  20.260  0.00  0.00    +0.000 A 
ATOM     18  C   UNL     1       0.538   2.573  19.143  0.00  0.00    +0.000 A 
ATOM     19  N   UNL     1       1.443   2.326  18.173  0.00  0.00    +0.000 NA
ATOM     20  C   UNL     1       2.666   2.886  18.330  0.00  0.00    +0.000 A 
ATOM     21  C   UNL     1       3.038   3.681  19.411  0.00  0.00    +0.000 A 
ATOM     22  C   UNL     1       2.070   3.903  20.395  0.00  0.00    +0.000 A 
ENDBRANCH  16  21
ENDBRANCH   1  16
TORSDOF 4
ENDMDL
MODEL 9
REMARK VINA RESULT:      -7.4      3.438      5.555
REMARK  Name = 
REMARK  4 active torsions:
REMARK  status: ('A' for Active; 'I' for Inactive)
REMARK    1  A    between atoms: C_5  and  C_6
REMARK    2  A    between atoms: C_6  and  N_7
REMARK    3  A    between atoms: C_10  and  C_11
REMARK    4  A    between atoms: C_14  and  C_15
REMARK                            x       y       z     vdW  Elec       q    Type
REMARK                         _______ _______ _______ _____ _____    ______ ____
ROOT
ATOM      1  N   UNL     1       3.936   6.228  17.836  0.00  0.00    +0.000 NA
ATOM      2  C   UNL     1       3.814   4.933  17.162  0.00  0.00    +0.000 C 
ATOM      3  C   UNL     1       4.936   3.970  17.548  0.00  0.00    +0.000 C 
ATOM      4  C   UNL     1       6.322   4.577  17.286  0.00  0.00    +0.000 C 
ATOM      5  C   UNL     1       6.409   5.917  18.018  0.00  0.00    +0.000 C 
ATOM      6  C   UNL     1       5.252   6.854  17.670  0.00  0.00    +0.000 C 
ENDROOT
BRANCH   4   7
ATOM      7  C   UNL     1       6.670   4.611  15.823  0.00  0.00    +0.000 A 
ATOM      8  N   UNL     1       7.534   5.525  15.353  0.00  0.00    +0.000 NA
ATOM      9  N   UNL     1       7.514   5.275  14.043  0.00  0.00    +0.000 N 
ATOM     10  C   UNL     1       6.661   4.259  13.733  0.00  0.00    +0.000 A 
ATOM     11  N   UNL     1       6.115   3.808  14.847  0.00  0.00    +0.000 NA
ATOM     12  H   UNL     1       8.078   5.840  13.418  0.00  0.00    +0.000 HD
BRANCH  10  13
ATOM     13  C   UNL     1       6.390   3.808  12.306  0.00  0.00    +0.000 C 
ATOM     14  C   UNL     1       6.034   2.370  12.008  0.00  0.00    +0.000 C 
ATOM     15  C   UNL     1       4.974   3.414  11.941  0.00  0.00    +0.000 C 
ENDBRANCH  10  13
ENDBRANCH   4   7
BRANCH   1  16
ATOM     16  C   UNL     1       2.826   7.145  17.512  0.00  0.00    +0.000 C 
BRANCH  16  21
ATOM     17  C   UNL     1       1.436   8.003  20.963  0.00  0.00    +0.000 A 
ATOM     18  C   UNL     1       0.954   9.272  20.693  0.00  0.00    +0.000 A 
ATOM     19  N   UNL     1       1.042   9.866  19.484  0.00  0.00    +0.000 NA
ATOM     20  C   UNL     1       1.647   9.154  18.503  0.00  0.00    +0.000 A 
ATOM     21  C   UNL     1       2.169   7.873  18.663  0.00  0.00    +0.000 A 
ATOM     22  C   UNL     1       2.048   7.296  19.931  0.00  0.00    +0.000 A 
ENDBRANCH  16  21
ENDBRANCH   1  16
TORSDOF 4
ENDMDL
