MODEL 1
REMARK VINA RESULT:      -7.8      0.000      0.000
REMARK  Name = 
REMARK  13 active torsions:
REMARK  status: ('A' for Active; 'I' for Inactive)
REMARK    1  A    between atoms: C_2  and  C_20
REMARK    2  A    between atoms: N_3  and  C_4
REMARK    3  A    between atoms: C_4  and  C_5
REMARK    4  A    between atoms: C_5  and  C_6
REMARK    5  A    between atoms: C_6  and  C_7
REMARK    6  A    between atoms: C_7  and  N_8
REMARK    7  A    between atoms: C_9  and  C_11
REMARK    8  A    between atoms: C_13  and  O_14
REMARK    9  A    between atoms: C_15  and  O_16
REMARK   10  A    between atoms: C_17  and  O_18
REMARK   11  A    between atoms: C_22  and  O_23
REMARK   12  A    between atoms: C_24  and  O_25
REMARK   13  A    between atoms: C_26  and  O_27
REMARK                            x       y       z     vdW  Elec       q    Type
REMARK                         _______ _______ _______ _____ _____    ______ ____
ROOT
ATOM      1  C   UNL     1       1.226   2.520  19.548  0.00  0.00    +0.000 C 
ENDROOT
BRANCH   1   2
ATOM      2  C   UNL     1       1.759   3.403  20.679  0.00  0.00    +0.000 C 
BRANCH   2   5
ATOM      3  O   UNL     1       3.601   5.483  20.156  0.00  0.00    +0.000 OA
ATOM      4  C   UNL     1       2.403   5.741  20.214  0.00  0.00    +0.000 C 
ATOM      5  N   UNL     1       1.428   4.801  20.483  0.00  0.00    +0.000 N 
ATOM      6  H   UNL     1       0.453   5.044  20.380  0.00  0.00    +0.000 HD
BRANCH   4   7
ATOM      7  C   UNL     1       1.937   7.126  19.939  0.00  0.00    +0.000 A 
ATOM      8  C   UNL     1       1.217   7.799  20.944  0.00  0.00    +0.000 A 
ATOM      9  C   UNL     1       0.759   9.091  20.709  0.00  0.00    +0.000 A 
ATOM     10  C   UNL     1       1.004   9.706  19.487  0.00  0.00    +0.000 A 
ATOM     11  C   UNL     1       1.704   9.035  18.493  0.00  0.00    +0.000 A 
ATOM     12  C   UNL     1       2.175   7.745  18.703  0.00  0.00    +0.000 A 
BRANCH   9  13
ATOM     13  O   UNL     1       0.057   9.798  21.645  0.00  0.00    +0.000 OA
ATOM     14  H   UNL     1      -0.558   9.188  22.092  0.00  0.00    +0.000 HD
ENDBRANCH   9  13
BRANCH  10  15
ATOM     15  O   UNL     1       0.551  10.973  19.240  0.00  0.00    +0.000 OA
ATOM     16  H   UNL     1      -0.094  10.862  18.510  0.00  0.00    +0.000 HD
ENDBRANCH  10  15
BRANCH  11  17
ATOM     17  O   UNL     1       1.923   9.638  17.287  0.00  0.00    +0.000 OA
ATOM     18  H   UNL     1       1.838   8.917  16.631  0.00  0.00    +0.000 HD
ENDBRANCH  11  17
ENDBRANCH   4   7
ENDBRANCH   2   5
ENDBRANCH   1   2
BRANCH   1  19
ATOM     19  C   UNL     1       1.815   2.881  18.177  0.00  0.00    +0.000 C 
BRANCH  19  20
ATOM     20  C   UNL     1       3.190   2.252  17.941  0.00  0.00    +0.000 C 
BRANCH  20  21
ATOM     21  N   UNL     1       4.283   3.146  18.265  0.00  0.00    +0.000 N 
ATOM     22  C   UNL     1       4.841   3.989  17.325  0.00  0.00    +0.000 C 
ATOM     23  O   UNL     1       4.525   3.990  16.140  0.00  0.00    +0.000 OA
ATOM     24  H   UNL     1       4.619   3.148  19.218  0.00  0.00    +0.000 HD
BRANCH  22  25
ATOM     25  C   UNL     1       5.893   4.926  17.810  0.00  0.00    +0.000 A 
ATOM     26  C   UNL     1       6.155   6.093  17.064  0.00  0.00    +0.000 A 
ATOM     27  C   UNL     1       7.127   6.985  17.509  0.00  0.00    +0.000 A 
ATOM     28  C   UNL     1       7.827   6.729  18.684  0.00  0.00    +0.000 A 
ATOM     29  C   UNL     1       7.555   5.586  19.426  0.00  0.00    +0.000 A 
ATOM     30  C   UNL     1       6.588   4.684  19.003  0.00  0.00    +0.000 A 
BRANCH  27  31
ATOM     31  O   UNL     1       7.434   8.132  16.829  0.00  0.00    +0.000 OA
ATOM     32  H   UNL     1       8.218   7.963  16.278  0.00  0.00    +0.000 HD
ENDBRANCH  27  31
BRANCH  28  33
ATOM     33  O   UNL     1       8.781   7.599  19.136  0.00  0.00    +0.000 OA
ATOM     34  H   UNL     1       8.819   8.295  18.447  0.00  0.00    +0.000 HD
ENDBRANCH  28  33
BRANCH  29  35
ATOM     35  O   UNL     1       8.232   5.341  20.584  0.00  0.00    +0.000 OA
ATOM     36  H   UNL     1       7.544   5.079  21.222  0.00  0.00    +0.000 HD
ENDBRANCH  29  35
ENDBRANCH  22  25
ENDBRANCH  20  21
ENDBRANCH  19  20
ENDBRANCH   1  19
TORSDOF 13
ENDMDL
MODEL 2
REMARK VINA RESULT:      -7.8      0.366      5.866
REMARK  Name = 
REMARK  13 active torsions:
REMARK  status: ('A' for Active; 'I' for Inactive)
REMARK    1  A    between atoms: C_2  and  C_20
REMARK    2  A    between atoms: N_3  and  C_4
REMARK    3  A    between atoms: C_4  and  C_5
REMARK    4  A    between atoms: C_5  and  C_6
REMARK    5  A    between atoms: C_6  and  C_7
REMARK    6  A    between atoms: C_7  and  N_8
REMARK    7  A    between atoms: C_9  and  C_11
REMARK    8  A    between atoms: C_13  and  O_14
REMARK    9  A    between atoms: C_15  and  O_16
REMARK   10  A    between atoms: C_17  and  O_18
REMARK   11  A    between atoms: C_22  and  O_23
REMARK   12  A    between atoms: C_24  and  O_25
REMARK   13  A    between atoms: C_26  and  O_27
REMARK                            x       y       z     vdW  Elec       q    Type
REMARK                         _______ _______ _______ _____ _____    ______ ____
ROOT
ATOM      1  C   UNL     1       1.962   2.693  18.079  0.00  0.00    +0.000 C 
ENDROOT
BRANCH   1   2
ATOM      2  C   UNL     1       3.332   2.011  18.107  0.00  0.00    +0.000 C 
BRANCH   2   5
ATOM      3  O   UNL     1       4.298   3.978  16.321  0.00  0.00    +0.000 OA
ATOM      4  C   UNL     1       4.791   3.888  17.441  0.00  0.00    +0.000 C 
ATOM      5  N   UNL     1       4.404   2.950  18.376  0.00  0.00    +0.000 N 
ATOM      6  H   UNL     1       4.747   3.014  19.324  0.00  0.00    +0.000 HD
BRANCH   4   7
ATOM      7  C   UNL     1       5.837   4.859  17.861  0.00  0.00    +0.000 A 
ATOM      8  C   UNL     1       6.501   4.636  19.082  0.00  0.00    +0.000 A 
ATOM      9  C   UNL     1       7.474   5.534  19.506  0.00  0.00    +0.000 A 
ATOM     10  C   UNL     1       7.780   6.647  18.731  0.00  0.00    +0.000 A 
ATOM     11  C   UNL     1       7.115   6.870  17.532  0.00  0.00    +0.000 A 
ATOM     12  C   UNL     1       6.141   5.987  17.086  0.00  0.00    +0.000 A 
BRANCH   9  13
ATOM     13  O   UNL     1       8.156   5.372  20.680  0.00  0.00    +0.000 OA
ATOM     14  H   UNL     1       7.586   4.881  21.300  0.00  0.00    +0.000 HD
ENDBRANCH   9  13
BRANCH  10  15
ATOM     15  O   UNL     1       8.729   7.543  19.141  0.00  0.00    +0.000 OA
ATOM     16  H   UNL     1       8.313   8.010  19.896  0.00  0.00    +0.000 HD
ENDBRANCH  10  15
BRANCH  11  17
ATOM     17  O   UNL     1       7.406   7.977  16.787  0.00  0.00    +0.000 OA
ATOM     18  H   UNL     1       8.283   8.268  17.110  0.00  0.00    +0.000 HD
ENDBRANCH  11  17
ENDBRANCH   4   7
ENDBRANCH   2   5
ENDBRANCH   1   2
BRANCH   1  19
ATOM     19  C   UNL     1       1.047   2.245  19.227  0.00  0.00    +0.000 C 
BRANCH  19  20
ATOM     20  C   UNL     1       1.295   3.027  20.519  0.00  0.00    +0.000 C 
BRANCH  20  21
ATOM     21  N   UNL     1       1.135   4.457  20.353  0.00  0.00    +0.000 N 
ATOM     22  C   UNL     1       2.218   5.310  20.283  0.00  0.00    +0.000 C 
ATOM     23  O   UNL     1       3.380   4.949  20.439  0.00  0.00    +0.000 OA
ATOM     24  H   UNL     1       0.194   4.816  20.272  0.00  0.00    +0.000 HD
BRANCH  22  25
ATOM     25  C   UNL     1       1.920   6.746  20.015  0.00  0.00    +0.000 A 
ATOM     26  C   UNL     1       2.222   7.273  18.743  0.00  0.00    +0.000 A 
ATOM     27  C   UNL     1       1.940   8.609  18.472  0.00  0.00    +0.000 A 
ATOM     28  C   UNL     1       1.358   9.413  19.446  0.00  0.00    +0.000 A 
ATOM     29  C   UNL     1       1.046   8.886  20.694  0.00  0.00    +0.000 A 
ATOM     30  C   UNL     1       1.317   7.556  20.986  0.00  0.00    +0.000 A 
BRANCH  27  31
ATOM     31  O   UNL     1       2.213   9.183  17.261  0.00  0.00    +0.000 OA
ATOM     32  H   UNL     1       3.171   9.117  17.098  0.00  0.00    +0.000 HD
ENDBRANCH  27  31
BRANCH  28  33
ATOM     33  O   UNL     1       1.070  10.726  19.193  0.00  0.00    +0.000 OA
ATOM     34  H   UNL     1       1.231  10.827  18.232  0.00  0.00    +0.000 HD
ENDBRANCH  28  33
BRANCH  29  35
ATOM     35  O   UNL     1       0.465   9.671  21.646  0.00  0.00    +0.000 OA
ATOM     36  H   UNL     1      -0.477   9.420  21.632  0.00  0.00    +0.000 HD
ENDBRANCH  29  35
ENDBRANCH  22  25
ENDBRANCH  20  21
ENDBRANCH  19  20
ENDBRANCH   1  19
TORSDOF 13
ENDMDL
MODEL 3
REMARK VINA RESULT:      -7.7      1.705      2.635
REMARK  Name = 
REMARK  13 active torsions:
REMARK  status: ('A' for Active; 'I' for Inactive)
REMARK    1  A    between atoms: C_2  and  C_20
REMARK    2  A    between atoms: N_3  and  C_4
REMARK    3  A    between atoms: C_4  and  C_5
REMARK    4  A    between atoms: C_5  and  C_6
REMARK    5  A    between atoms: C_6  and  C_7
REMARK    6  A    between atoms: C_7  and  N_8
REMARK    7  A    between atoms: C_9  and  C_11
REMARK    8  A    between atoms: C_13  and  O_14
REMARK    9  A    between atoms: C_15  and  O_16
REMARK   10  A    between atoms: C_17  and  O_18
REMARK   11  A    between atoms: C_22  and  O_23
REMARK   12  A    between atoms: C_24  and  O_25
REMARK   13  A    between atoms: C_26  and  O_27
REMARK                            x       y       z     vdW  Elec       q    Type
REMARK                         _______ _______ _______ _____ _____    ______ ____
ROOT
ATOM      1  C   UNL     1       1.081   3.773  20.481  0.00  0.00    +0.000 C 
ENDROOT
BRANCH   1   2
ATOM      2  C   UNL     1       2.249   4.706  20.807  0.00  0.00    +0.000 C 
BRANCH   2   5
ATOM      3  O   UNL     1       2.768   6.790  18.969  0.00  0.00    +0.000 OA
ATOM      4  C   UNL     1       2.113   7.028  19.979  0.00  0.00    +0.000 C 
ATOM      5  N   UNL     1       1.825   6.086  20.945  0.00  0.00    +0.000 N 
ATOM      6  H   UNL     1       1.168   6.304  21.682  0.00  0.00    +0.000 HD
BRANCH   4   7
ATOM      7  C   UNL     1       1.547   8.389  20.183  0.00  0.00    +0.000 A 
ATOM      8  C   UNL     1       1.147   8.756  21.481  0.00  0.00    +0.000 A 
ATOM      9  C   UNL     1       0.602  10.017  21.698  0.00  0.00    +0.000 A 
ATOM     10  C   UNL     1       0.449  10.902  20.637  0.00  0.00    +0.000 A 
ATOM     11  C   UNL     1       0.834  10.532  19.355  0.00  0.00    +0.000 A 
ATOM     12  C   UNL     1       1.382   9.279  19.112  0.00  0.00    +0.000 A 
BRANCH   9  13
ATOM     13  O   UNL     1       0.197  10.435  22.936  0.00  0.00    +0.000 OA
ATOM     14  H   UNL     1      -0.186  11.327  22.847  0.00  0.00    +0.000 HD
ENDBRANCH   9  13
BRANCH  10  15
ATOM     15  O   UNL     1      -0.094  12.142  20.835  0.00  0.00    +0.000 OA
ATOM     16  H   UNL     1      -1.008  12.065  20.491  0.00  0.00    +0.000 HD
ENDBRANCH  10  15
BRANCH  11  17
ATOM     17  O   UNL     1       0.660  11.398  18.314  0.00  0.00    +0.000 OA
ATOM     18  H   UNL     1       0.937  12.268  18.667  0.00  0.00    +0.000 HD
ENDBRANCH  11  17
ENDBRANCH   4   7
ENDBRANCH   2   5
ENDBRANCH   1   2
BRANCH   1  19
ATOM     19  C   UNL     1       1.168   3.173  19.070  0.00  0.00    +0.000 C 
BRANCH  19  20
ATOM     20  C   UNL     1       2.464   2.393  18.839  0.00  0.00    +0.000 C 
BRANCH  20  21
ATOM     21  N   UNL     1       3.355   3.044  17.900  0.00  0.00    +0.000 N 
ATOM     22  C   UNL     1       4.612   3.483  18.268  0.00  0.00    +0.000 C 
ATOM     23  O   UNL     1       5.038   3.438  19.417  0.00  0.00    +0.000 OA
ATOM     24  H   UNL     1       3.032   3.155  16.950  0.00  0.00    +0.000 HD
BRANCH  22  25
ATOM     25  C   UNL     1       5.464   4.048  17.185  0.00  0.00    +0.000 A 
ATOM     26  C   UNL     1       5.471   3.411  15.927  0.00  0.00    +0.000 A 
ATOM     27  C   UNL     1       6.254   3.933  14.901  0.00  0.00    +0.000 A 
ATOM     28  C   UNL     1       7.015   5.077  15.113  0.00  0.00    +0.000 A 
ATOM     29  C   UNL     1       6.993   5.713  16.349  0.00  0.00    +0.000 A 
ATOM     30  C   UNL     1       6.218   5.212  17.386  0.00  0.00    +0.000 A 
BRANCH  27  31
ATOM     31  O   UNL     1       6.310   3.359  13.661  0.00  0.00    +0.000 OA
ATOM     32  H   UNL     1       5.400   3.172  13.366  0.00  0.00    +0.000 HD
ENDBRANCH  27  31
BRANCH  28  33
ATOM     33  O   UNL     1       7.784   5.604  14.112  0.00  0.00    +0.000 OA
ATOM     34  H   UNL     1       7.181   5.648  13.342  0.00  0.00    +0.000 HD
ENDBRANCH  28  33
BRANCH  29  35
ATOM     35  O   UNL     1       7.730   6.842  16.554  0.00  0.00    +0.000 OA
ATOM     36  H   UNL     1       8.641   6.523  16.685  0.00  0.00    +0.000 HD
ENDBRANCH  29  35
ENDBRANCH  22  25
ENDBRANCH  20  21
ENDBRANCH  19  20
ENDBRANCH   1  19
TORSDOF 13
ENDMDL
MODEL 4
REMARK VINA RESULT:      -7.4      1.644      6.518
REMARK  Name = 
REMARK  13 active torsions:
REMARK  status: ('A' for Active; 'I' for Inactive)
REMARK    1  A    between atoms: C_2  and  C_20
REMARK    2  A    between atoms: N_3  and  C_4
REMARK    3  A    between atoms: C_4  and  C_5
REMARK    4  A    between atoms: C_5  and  C_6
REMARK    5  A    between atoms: C_6  and  C_7
REMARK    6  A    between atoms: C_7  and  N_8
REMARK    7  A    between atoms: C_9  and  C_11
REMARK    8  A    between atoms: C_13  and  O_14
REMARK    9  A    between atoms: C_15  and  O_16
REMARK   10  A    between atoms: C_17  and  O_18
REMARK   11  A    between atoms: C_22  and  O_23
REMARK   12  A    between atoms: C_24  and  O_25
REMARK   13  A    between atoms: C_26  and  O_27
REMARK                            x       y       z     vdW  Elec       q    Type
REMARK                         _______ _______ _______ _____ _____    ______ ____
ROOT
ATOM      1  C   UNL     1       3.635   2.747  20.893  0.00  0.00    +0.000 C 
ENDROOT
BRANCH   1   2
ATOM      2  C   UNL     1       3.425   2.167  19.492  0.00  0.00    +0.000 C 
BRANCH   2   5
ATOM      3  O   UNL     1       2.800   3.467  17.061  0.00  0.00    +0.000 OA
ATOM      4  C   UNL     1       3.976   3.325  17.382  0.00  0.00    +0.000 C 
ATOM      5  N   UNL     1       4.384   2.687  18.536  0.00  0.00    +0.000 N 
ATOM      6  H   UNL     1       5.354   2.724  18.815  0.00  0.00    +0.000 HD
BRANCH   4   7
ATOM      7  C   UNL     1       5.045   3.900  16.523  0.00  0.00    +0.000 A 
ATOM      8  C   UNL     1       5.806   4.969  17.033  0.00  0.00    +0.000 A 
ATOM      9  C   UNL     1       6.804   5.534  16.246  0.00  0.00    +0.000 A 
ATOM     10  C   UNL     1       7.039   5.051  14.964  0.00  0.00    +0.000 A 
ATOM     11  C   UNL     1       6.277   4.005  14.460  0.00  0.00    +0.000 A 
ATOM     12  C   UNL     1       5.276   3.421  15.225  0.00  0.00    +0.000 A 
BRANCH   9  13
ATOM     13  O   UNL     1       7.580   6.572  16.684  0.00  0.00    +0.000 OA
ATOM     14  H   UNL     1       7.341   7.369  16.175  0.00  0.00    +0.000 HD
ENDBRANCH   9  13
BRANCH  10  15
ATOM     15  O   UNL     1       8.011   5.605  14.176  0.00  0.00    +0.000 OA
ATOM     16  H   UNL     1       7.579   6.385  13.770  0.00  0.00    +0.000 HD
ENDBRANCH  10  15
BRANCH  11  17
ATOM     17  O   UNL     1       6.499   3.549  13.191  0.00  0.00    +0.000 OA
ATOM     18  H   UNL     1       6.257   2.602  13.223  0.00  0.00    +0.000 HD
ENDBRANCH  11  17
ENDBRANCH   4   7
ENDBRANCH   2   5
ENDBRANCH   1   2
BRANCH   1  19
ATOM     19  C   UNL     1       2.356   3.350  21.489  0.00  0.00    +0.000 C 
BRANCH  19  20
ATOM     20  C   UNL     1       1.373   3.827  20.418  0.00  0.00    +0.000 C 
BRANCH  20  21
ATOM     21  N   UNL     1       1.211   5.267  20.401  0.00  0.00    +0.000 N 
ATOM     22  C   UNL     1       2.185   6.106  19.899  0.00  0.00    +0.000 C 
ATOM     23  O   UNL     1       3.283   5.719  19.513  0.00  0.00    +0.000 OA
ATOM     24  H   UNL     1       0.344   5.644  20.757  0.00  0.00    +0.000 HD
BRANCH  22  25
ATOM     25  C   UNL     1       1.855   7.558  19.851  0.00  0.00    +0.000 A 
ATOM     26  C   UNL     1       1.997   8.245  18.628  0.00  0.00    +0.000 A 
ATOM     27  C   UNL     1       1.683   9.599  18.564  0.00  0.00    +0.000 A 
ATOM     28  C   UNL     1       1.224  10.266  19.695  0.00  0.00    +0.000 A 
ATOM     29  C   UNL     1       1.069   9.583  20.895  0.00  0.00    +0.000 A 
ATOM     30  C   UNL     1       1.374   8.232  20.983  0.00  0.00    +0.000 A 
BRANCH  27  31
ATOM     31  O   UNL     1       1.805  10.324  17.410  0.00  0.00    +0.000 OA
ATOM     32  H   UNL     1       1.566   9.751  16.660  0.00  0.00    +0.000 HD
ENDBRANCH  27  31
BRANCH  28  33
ATOM     33  O   UNL     1       0.906  11.595  19.645  0.00  0.00    +0.000 OA
ATOM     34  H   UNL     1       0.951  11.819  18.693  0.00  0.00    +0.000 HD
ENDBRANCH  28  33
BRANCH  29  35
ATOM     35  O   UNL     1       0.608  10.234  22.002  0.00  0.00    +0.000 OA
ATOM     36  H   UNL     1       0.092  10.983  21.651  0.00  0.00    +0.000 HD
ENDBRANCH  29  35
ENDBRANCH  22  25
ENDBRANCH  20  21
ENDBRANCH  19  20
ENDBRANCH   1  19
TORSDOF 13
ENDMDL
MODEL 5
REMARK VINA RESULT:      -7.4      0.496      6.098
REMARK  Name = 
REMARK  13 active torsions:
REMARK  status: ('A' for Active; 'I' for Inactive)
REMARK    1  A    between atoms: C_2  and  C_20
REMARK    2  A    between atoms: N_3  and  C_4
REMARK    3  A    between atoms: C_4  and  C_5
REMARK    4  A    between atoms: C_5  and  C_6
REMARK    5  A    between atoms: C_6  and  C_7
REMARK    6  A    between atoms: C_7  and  N_8
REMARK    7  A    between atoms: C_9  and  C_11
REMARK    8  A    between atoms: C_13  and  O_14
REMARK    9  A    between atoms: C_15  and  O_16
REMARK   10  A    between atoms: C_17  and  O_18
REMARK   11  A    between atoms: C_22  and  O_23
REMARK   12  A    between atoms: C_24  and  O_25
REMARK   13  A    between atoms: C_26  and  O_27
REMARK                            x       y       z     vdW  Elec       q    Type
REMARK                         _______ _______ _______ _____ _____    ______ ____
ROOT
ATOM      1  C   UNL     1       1.412   3.421  18.083  0.00  0.00    +0.000 C 
ENDROOT
BRANCH   1   2
ATOM      2  C   UNL     1       2.616   3.412  17.139  0.00  0.00    +0.000 C 
BRANCH   2   5
ATOM      3  O   UNL     1       5.140   3.726  15.905  0.00  0.00    +0.000 OA
ATOM      4  C   UNL     1       4.916   4.295  16.969  0.00  0.00    +0.000 C 
ATOM      5  N   UNL     1       3.725   4.188  17.659  0.00  0.00    +0.000 N 
ATOM      6  H   UNL     1       3.549   4.787  18.454  0.00  0.00    +0.000 HD
BRANCH   4   7
ATOM      7  C   UNL     1       5.948   5.193  17.552  0.00  0.00    +0.000 A 
ATOM      8  C   UNL     1       6.148   6.453  16.958  0.00  0.00    +0.000 A 
ATOM      9  C   UNL     1       7.116   7.307  17.475  0.00  0.00    +0.000 A 
ATOM     10  C   UNL     1       7.884   6.914  18.565  0.00  0.00    +0.000 A 
ATOM     11  C   UNL     1       7.692   5.665  19.141  0.00  0.00    +0.000 A 
ATOM     12  C   UNL     1       6.731   4.793  18.646  0.00  0.00    +0.000 A 
BRANCH   9  13
ATOM     13  O   UNL     1       7.356   8.545  16.945  0.00  0.00    +0.000 OA
ATOM     14  H   UNL     1       6.544   8.849  16.497  0.00  0.00    +0.000 HD
ENDBRANCH   9  13
BRANCH  10  15
ATOM     15  O   UNL     1       8.845   7.741  19.077  0.00  0.00    +0.000 OA
ATOM     16  H   UNL     1       9.689   7.287  18.875  0.00  0.00    +0.000 HD
ENDBRANCH  10  15
BRANCH  11  17
ATOM     17  O   UNL     1       8.465   5.276  20.198  0.00  0.00    +0.000 OA
ATOM     18  H   UNL     1       7.862   4.753  20.765  0.00  0.00    +0.000 HD
ENDBRANCH  11  17
ENDBRANCH   4   7
ENDBRANCH   2   5
ENDBRANCH   1   2
BRANCH   1  19
ATOM     19  C   UNL     1       1.604   2.516  19.308  0.00  0.00    +0.000 C 
BRANCH  19  20
ATOM     20  C   UNL     1       1.659   3.301  20.620  0.00  0.00    +0.000 C 
BRANCH  20  21
ATOM     21  N   UNL     1       1.380   4.712  20.446  0.00  0.00    +0.000 N 
ATOM     22  C   UNL     1       2.381   5.632  20.208  0.00  0.00    +0.000 C 
ATOM     23  O   UNL     1       3.576   5.352  20.210  0.00  0.00    +0.000 OA
ATOM     24  H   UNL     1       0.414   5.005  20.487  0.00  0.00    +0.000 HD
BRANCH  22  25
ATOM     25  C   UNL     1       1.951   7.035  19.951  0.00  0.00    +0.000 A 
ATOM     26  C   UNL     1       2.235   7.611  18.696  0.00  0.00    +0.000 A 
ATOM     27  C   UNL     1       1.830   8.917  18.436  0.00  0.00    +0.000 A 
ATOM     28  C   UNL     1       1.145   9.643  19.404  0.00  0.00    +0.000 A 
ATOM     29  C   UNL     1       0.851   9.068  20.634  0.00  0.00    +0.000 A 
ATOM     30  C   UNL     1       1.243   7.766  20.915  0.00  0.00    +0.000 A 
BRANCH  27  31
ATOM     31  O   UNL     1       2.080   9.536  17.242  0.00  0.00    +0.000 OA
ATOM     32  H   UNL     1       1.476   9.168  16.572  0.00  0.00    +0.000 HD
ENDBRANCH  27  31
BRANCH  28  33
ATOM     33  O   UNL     1       0.736  10.926  19.160  0.00  0.00    +0.000 OA
ATOM     34  H   UNL     1      -0.010  10.827  18.534  0.00  0.00    +0.000 HD
ENDBRANCH  28  33
BRANCH  29  35
ATOM     35  O   UNL     1       0.168   9.775  21.579  0.00  0.00    +0.000 OA
ATOM     36  H   UNL     1       0.620   9.568  22.418  0.00  0.00    +0.000 HD
ENDBRANCH  29  35
ENDBRANCH  22  25
ENDBRANCH  20  21
ENDBRANCH  19  20
ENDBRANCH   1  19
TORSDOF 13
ENDMDL
MODEL 6
REMARK VINA RESULT:      -7.4      0.773      2.339
REMARK  Name = 
REMARK  13 active torsions:
REMARK  status: ('A' for Active; 'I' for Inactive)
REMARK    1  A    between atoms: C_2  and  C_20
REMARK    2  A    between atoms: N_3  and  C_4
REMARK    3  A    between atoms: C_4  and  C_5
REMARK    4  A    between atoms: C_5  and  C_6
REMARK    5  A    between atoms: C_6  and  C_7
REMARK    6  A    between atoms: C_7  and  N_8
REMARK    7  A    between atoms: C_9  and  C_11
REMARK    8  A    between atoms: C_13  and  O_14
REMARK    9  A    between atoms: C_15  and  O_16
REMARK   10  A    between atoms: C_17  and  O_18
REMARK   11  A    between atoms: C_22  and  O_23
REMARK   12  A    between atoms: C_24  and  O_25
REMARK   13  A    between atoms: C_26  and  O_27
REMARK                            x       y       z     vdW  Elec       q    Type
REMARK                         _______ _______ _______ _____ _____    ______ ____
ROOT
ATOM      1  C   UNL     1       1.622   3.519  19.339  0.00  0.00    +0.000 C 
ENDROOT
BRANCH   1   2
ATOM      2  C   UNL     1       1.863   4.128  20.722  0.00  0.00    +0.000 C 
BRANCH   2   5
ATOM      3  O   UNL     1       3.319   6.308  19.663  0.00  0.00    +0.000 OA
ATOM      4  C   UNL     1       2.243   6.514  20.216  0.00  0.00    +0.000 C 
ATOM      5  N   UNL     1       1.469   5.522  20.782  0.00  0.00    +0.000 N 
ATOM      6  H   UNL     1       0.532   5.733  21.098  0.00  0.00    +0.000 HD
BRANCH   4   7
ATOM      7  C   UNL     1       1.693   7.896  20.256  0.00  0.00    +0.000 A 
ATOM      8  C   UNL     1       1.623   8.620  19.052  0.00  0.00    +0.000 A 
ATOM      9  C   UNL     1       1.125   9.919  19.062  0.00  0.00    +0.000 A 
ATOM     10  C   UNL     1       0.709  10.496  20.257  0.00  0.00    +0.000 A 
ATOM     11  C   UNL     1       0.792   9.783  21.445  0.00  0.00    +0.000 A 
ATOM     12  C   UNL     1       1.283   8.484  21.461  0.00  0.00    +0.000 A 
BRANCH   9  13
ATOM     13  O   UNL     1       1.028  10.673  17.926  0.00  0.00    +0.000 OA
ATOM     14  H   UNL     1       1.925  10.958  17.670  0.00  0.00    +0.000 HD
ENDBRANCH   9  13
BRANCH  10  15
ATOM     15  O   UNL     1       0.226  11.776  20.282  0.00  0.00    +0.000 OA
ATOM     16  H   UNL     1      -0.741  11.668  20.398  0.00  0.00    +0.000 HD
ENDBRANCH  10  15
BRANCH  11  17
ATOM     17  O   UNL     1       0.401  10.364  22.618  0.00  0.00    +0.000 OA
ATOM     18  H   UNL     1       0.405   9.634  23.269  0.00  0.00    +0.000 HD
ENDBRANCH  11  17
ENDBRANCH   4   7
ENDBRANCH   2   5
ENDBRANCH   1   2
BRANCH   1  19
ATOM     19  C   UNL     1       2.095   2.062  19.234  0.00  0.00    +0.000 C 
BRANCH  19  20
ATOM     20  C   UNL     1       3.259   1.888  18.256  0.00  0.00    +0.000 C 
BRANCH  20  21
ATOM     21  N   UNL     1       4.330   2.838  18.479  0.00  0.00    +0.000 N 
ATOM     22  C   UNL     1       4.637   3.823  17.561  0.00  0.00    +0.000 C 
ATOM     23  O   UNL     1       4.097   3.922  16.464  0.00  0.00    +0.000 OA
ATOM     24  H   UNL     1       4.844   2.768  19.346  0.00  0.00    +0.000 HD
BRANCH  22  25
ATOM     25  C   UNL     1       5.696   4.794  17.955  0.00  0.00    +0.000 A 
ATOM     26  C   UNL     1       6.375   4.598  19.174  0.00  0.00    +0.000 A 
ATOM     27  C   UNL     1       7.375   5.490  19.552  0.00  0.00    +0.000 A 
ATOM     28  C   UNL     1       7.706   6.560  18.728  0.00  0.00    +0.000 A 
ATOM     29  C   UNL     1       7.047   6.742  17.518  0.00  0.00    +0.000 A 
ATOM     30  C   UNL     1       6.048   5.864  17.120  0.00  0.00    +0.000 A 
BRANCH  27  31
ATOM     31  O   UNL     1       8.066   5.359  20.725  0.00  0.00    +0.000 OA
ATOM     32  H   UNL     1       7.585   4.737  21.298  0.00  0.00    +0.000 HD
ENDBRANCH  27  31
BRANCH  28  33
ATOM     33  O   UNL     1       8.690   7.441  19.083  0.00  0.00    +0.000 OA
ATOM     34  H   UNL     1       9.302   7.441  18.319  0.00  0.00    +0.000 HD
ENDBRANCH  28  33
BRANCH  29  35
ATOM     35  O   UNL     1       7.379   7.784  16.704  0.00  0.00    +0.000 OA
ATOM     36  H   UNL     1       8.332   7.671  16.533  0.00  0.00    +0.000 HD
ENDBRANCH  29  35
ENDBRANCH  22  25
ENDBRANCH  20  21
ENDBRANCH  19  20
ENDBRANCH   1  19
TORSDOF 13
ENDMDL
MODEL 7
REMARK VINA RESULT:      -7.3      1.725      6.635
REMARK  Name = 
REMARK  13 active torsions:
REMARK  status: ('A' for Active; 'I' for Inactive)
REMARK    1  A    between atoms: C_2  and  C_20
REMARK    2  A    between atoms: N_3  and  C_4
REMARK    3  A    between atoms: C_4  and  C_5
REMARK    4  A    between atoms: C_5  and  C_6
REMARK    5  A    between atoms: C_6  and  C_7
REMARK    6  A    between atoms: C_7  and  N_8
REMARK    7  A    between atoms: C_9  and  C_11
REMARK    8  A    between atoms: C_13  and  O_14
REMARK    9  A    between atoms: C_15  and  O_16
REMARK   10  A    between atoms: C_17  and  O_18
REMARK   11  A    between atoms: C_22  and  O_23
REMARK   12  A    between atoms: C_24  and  O_25
REMARK   13  A    between atoms: C_26  and  O_27
REMARK                            x       y       z     vdW  Elec       q    Type
REMARK                         _______ _______ _______ _____ _____    ______ ____
ROOT
ATOM      1  C   UNL     1       1.237   2.478  19.798  0.00  0.00    +0.000 C 
ENDROOT
BRANCH   1   2
ATOM      2  C   UNL     1       1.093   3.102  18.408  0.00  0.00    +0.000 C 
BRANCH   2   5
ATOM      3  O   UNL     1       3.615   1.958  17.838  0.00  0.00    +0.000 OA
ATOM      4  C   UNL     1       3.467   3.171  17.733  0.00  0.00    +0.000 C 
ATOM      5  N   UNL     1       2.284   3.827  18.008  0.00  0.00    +0.000 N 
ATOM      6  H   UNL     1       2.183   4.804  17.771  0.00  0.00    +0.000 HD
BRANCH   4   7
ATOM      7  C   UNL     1       4.595   4.007  17.241  0.00  0.00    +0.000 A 
ATOM      8  C   UNL     1       5.898   3.686  17.668  0.00  0.00    +0.000 A 
ATOM      9  C   UNL     1       6.970   4.459  17.235  0.00  0.00    +0.000 A 
ATOM     10  C   UNL     1       6.752   5.544  16.394  0.00  0.00    +0.000 A 
ATOM     11  C   UNL     1       5.464   5.865  15.984  0.00  0.00    +0.000 A 
ATOM     12  C   UNL     1       4.377   5.109  16.401  0.00  0.00    +0.000 A 
BRANCH   9  13
ATOM     13  O   UNL     1       8.258   4.196  17.611  0.00  0.00    +0.000 OA
ATOM     14  H   UNL     1       8.753   5.036  17.614  0.00  0.00    +0.000 HD
ENDBRANCH   9  13
BRANCH  10  15
ATOM     15  O   UNL     1       7.797   6.317  15.967  0.00  0.00    +0.000 OA
ATOM     16  H   UNL     1       7.790   7.089  16.571  0.00  0.00    +0.000 HD
ENDBRANCH  10  15
BRANCH  11  17
ATOM     17  O   UNL     1       5.256   6.945  15.175  0.00  0.00    +0.000 OA
ATOM     18  H   UNL     1       4.322   6.867  14.894  0.00  0.00    +0.000 HD
ENDBRANCH  11  17
ENDBRANCH   4   7
ENDBRANCH   2   5
ENDBRANCH   1   2
BRANCH   1  19
ATOM     19  C   UNL     1       1.064   3.497  20.932  0.00  0.00    +0.000 C 
BRANCH  19  20
ATOM     20  C   UNL     1       2.237   4.475  21.032  0.00  0.00    +0.000 C 
BRANCH  20  21
ATOM     21  N   UNL     1       1.814   5.859  21.108  0.00  0.00    +0.000 N 
ATOM     22  C   UNL     1       2.159   6.783  20.142  0.00  0.00    +0.000 C 
ATOM     23  O   UNL     1       2.910   6.538  19.203  0.00  0.00    +0.000 OA
ATOM     24  H   UNL     1       1.236   6.128  21.891  0.00  0.00    +0.000 HD
BRANCH  22  25
ATOM     25  C   UNL     1       1.580   8.148  20.288  0.00  0.00    +0.000 A 
ATOM     26  C   UNL     1       1.205   8.590  21.573  0.00  0.00    +0.000 A 
ATOM     27  C   UNL     1       0.672   9.866  21.728  0.00  0.00    +0.000 A 
ATOM     28  C   UNL     1       0.519  10.700  20.626  0.00  0.00    +0.000 A 
ATOM     29  C   UNL     1       0.905  10.269  19.362  0.00  0.00    +0.000 A 
ATOM     30  C   UNL     1       1.441   9.000  19.184  0.00  0.00    +0.000 A 
BRANCH  27  31
ATOM     31  O   UNL     1       0.283  10.353  22.946  0.00  0.00    +0.000 OA
ATOM     32  H   UNL     1       0.058  11.295  22.844  0.00  0.00    +0.000 HD
ENDBRANCH  27  31
BRANCH  28  33
ATOM     33  O   UNL     1       0.002  11.959  20.764  0.00  0.00    +0.000 OA
ATOM     34  H   UNL     1      -0.347  11.977  21.679  0.00  0.00    +0.000 HD
ENDBRANCH  28  33
BRANCH  29  35
ATOM     35  O   UNL     1       0.767  11.090  18.283  0.00  0.00    +0.000 OA
ATOM     36  H   UNL     1       1.286  11.884  18.508  0.00  0.00    +0.000 HD
ENDBRANCH  29  35
ENDBRANCH  22  25
ENDBRANCH  20  21
ENDBRANCH  19  20
ENDBRANCH   1  19
TORSDOF 13
ENDMDL
MODEL 8
REMARK VINA RESULT:      -7.3      1.894      3.136
REMARK  Name = 
REMARK  13 active torsions:
REMARK  status: ('A' for Active; 'I' for Inactive)
REMARK    1  A    between atoms: C_2  and  C_20
REMARK    2  A    between atoms: N_3  and  C_4
REMARK    3  A    between atoms: C_4  and  C_5
REMARK    4  A    between atoms: C_5  and  C_6
REMARK    5  A    between atoms: C_6  and  C_7
REMARK    6  A    between atoms: C_7  and  N_8
REMARK    7  A    between atoms: C_9  and  C_11
REMARK    8  A    between atoms: C_13  and  O_14
REMARK    9  A    between atoms: C_15  and  O_16
REMARK   10  A    between atoms: C_17  and  O_18
REMARK   11  A    between atoms: C_22  and  O_23
REMARK   12  A    between atoms: C_24  and  O_25
REMARK   13  A    between atoms: C_26  and  O_27
REMARK                            x       y       z     vdW  Elec       q    Type
REMARK                         _______ _______ _______ _____ _____    ______ ____
ROOT
ATOM      1  C   UNL     1       1.899   4.549  20.740  0.00  0.00    +0.000 C 
ENDROOT
BRANCH   1   2
ATOM      2  C   UNL     1       2.496   5.839  20.175  0.00  0.00    +0.000 C 
BRANCH   2   5
ATOM      3  O   UNL     1       2.328   8.280  18.759  0.00  0.00    +0.000 OA
ATOM      4  C   UNL     1       1.720   8.155  19.817  0.00  0.00    +0.000 C 
ATOM      5  N   UNL     1       1.754   7.014  20.591  0.00  0.00    +0.000 N 
ATOM      6  H   UNL     1       1.126   6.919  21.377  0.00  0.00    +0.000 HD
BRANCH   4   7
ATOM      7  C   UNL     1       0.851   9.263  20.298  0.00  0.00    +0.000 A 
ATOM      8  C   UNL     1       0.631   9.383  21.682  0.00  0.00    +0.000 A 
ATOM      9  C   UNL     1      -0.187  10.402  22.159  0.00  0.00    +0.000 A 
ATOM     10  C   UNL     1      -0.788  11.287  21.271  0.00  0.00    +0.000 A 
ATOM     11  C   UNL     1      -0.578  11.158  19.904  0.00  0.00    +0.000 A 
ATOM     12  C   UNL     1       0.236  10.151  19.403  0.00  0.00    +0.000 A 
BRANCH   9  13
ATOM     13  O   UNL     1      -0.438  10.574  23.493  0.00  0.00    +0.000 OA
ATOM     14  H   UNL     1      -0.889  11.430  23.611  0.00  0.00    +0.000 HD
ENDBRANCH   9  13
BRANCH  10  15
ATOM     15  O   UNL     1      -1.602  12.288  21.727  0.00  0.00    +0.000 OA
ATOM     16  H   UNL     1      -0.989  13.025  21.931  0.00  0.00    +0.000 HD
ENDBRANCH  10  15
BRANCH  11  17
ATOM     17  O   UNL     1      -1.188  12.018  19.037  0.00  0.00    +0.000 OA
ATOM     18  H   UNL     1      -1.820  11.460  18.539  0.00  0.00    +0.000 HD
ENDBRANCH  11  17
ENDBRANCH   4   7
ENDBRANCH   2   5
ENDBRANCH   1   2
BRANCH   1  19
ATOM     19  C   UNL     1       1.359   3.611  19.651  0.00  0.00    +0.000 C 
BRANCH  19  20
ATOM     20  C   UNL     1       2.423   2.647  19.122  0.00  0.00    +0.000 C 
BRANCH  20  21
ATOM     21  N   UNL     1       3.293   3.254  18.135  0.00  0.00    +0.000 N 
ATOM     22  C   UNL     1       4.609   3.567  18.414  0.00  0.00    +0.000 C 
ATOM     23  O   UNL     1       5.117   3.442  19.524  0.00  0.00    +0.000 OA
ATOM     24  H   UNL     1       2.909   3.428  17.217  0.00  0.00    +0.000 HD
BRANCH  22  25
ATOM     25  C   UNL     1       5.422   4.097  17.284  0.00  0.00    +0.000 A 
ATOM     26  C   UNL     1       6.197   5.256  17.494  0.00  0.00    +0.000 A 
ATOM     27  C   UNL     1       6.971   5.759  16.452  0.00  0.00    +0.000 A 
ATOM     28  C   UNL     1       6.986   5.117  15.218  0.00  0.00    +0.000 A 
ATOM     29  C   UNL     1       6.235   3.965  15.019  0.00  0.00    +0.000 A 
ATOM     30  C   UNL     1       5.457   3.445  16.045  0.00  0.00    +0.000 A 
BRANCH  27  31
ATOM     31  O   UNL     1       7.739   6.883  16.588  0.00  0.00    +0.000 OA
ATOM     32  H   UNL     1       8.613   6.708  16.197  0.00  0.00    +0.000 HD
ENDBRANCH  27  31
BRANCH  28  33
ATOM     33  O   UNL     1       7.746   5.597  14.187  0.00  0.00    +0.000 OA
ATOM     34  H   UNL     1       8.044   4.794  13.713  0.00  0.00    +0.000 HD
ENDBRANCH  28  33
BRANCH  29  35
ATOM     35  O   UNL     1       6.259   3.329  13.814  0.00  0.00    +0.000 OA
ATOM     36  H   UNL     1       5.753   2.508  13.957  0.00  0.00    +0.000 HD
ENDBRANCH  29  35
ENDBRANCH  22  25
ENDBRANCH  20  21
ENDBRANCH  19  20
ENDBRANCH   1  19
TORSDOF 13
ENDMDL
MODEL 9
REMARK VINA RESULT:      -7.3      0.995      1.887
REMARK  Name = 
REMARK  13 active torsions:
REMARK  status: ('A' for Active; 'I' for Inactive)
REMARK    1  A    between atoms: C_2  and  C_20
REMARK    2  A    between atoms: N_3  and  C_4
REMARK    3  A    between atoms: C_4  and  C_5
REMARK    4  A    between atoms: C_5  and  C_6
REMARK    5  A    between atoms: C_6  and  C_7
REMARK    6  A    between atoms: C_7  and  N_8
REMARK    7  A    between atoms: C_9  and  C_11
REMARK    8  A    between atoms: C_13  and  O_14
REMARK    9  A    between atoms: C_15  and  O_16
REMARK   10  A    between atoms: C_17  and  O_18
REMARK   11  A    between atoms: C_22  and  O_23
REMARK   12  A    between atoms: C_24  and  O_25
REMARK   13  A    between atoms: C_26  and  O_27
REMARK                            x       y       z     vdW  Elec       q    Type
REMARK                         _______ _______ _______ _____ _____    ______ ____
ROOT
ATOM      1  C   UNL     1       0.643   2.648  20.126  0.00  0.00    +0.000 C 
ENDROOT
BRANCH   1   2
ATOM      2  C   UNL     1       1.509   3.595  20.959  0.00  0.00    +0.000 C 
BRANCH   2   5
ATOM      3  O   UNL     1       3.410   5.597  20.347  0.00  0.00    +0.000 OA
ATOM      4  C   UNL     1       2.218   5.887  20.374  0.00  0.00    +0.000 C 
ATOM      5  N   UNL     1       1.216   4.989  20.682  0.00  0.00    +0.000 N 
ATOM      6  H   UNL     1       0.249   5.250  20.554  0.00  0.00    +0.000 HD
BRANCH   4   7
ATOM      7  C   UNL     1       1.791   7.267  20.018  0.00  0.00    +0.000 A 
ATOM      8  C   UNL     1       1.026   7.990  20.952  0.00  0.00    +0.000 A 
ATOM      9  C   UNL     1       0.603   9.277  20.640  0.00  0.00    +0.000 A 
ATOM     10  C   UNL     1       0.927   9.839  19.410  0.00  0.00    +0.000 A 
ATOM     11  C   UNL     1       1.672   9.118  18.486  0.00  0.00    +0.000 A 
ATOM     12  C   UNL     1       2.109   7.831  18.774  0.00  0.00    +0.000 A 
BRANCH   9  13
ATOM     13  O   UNL     1      -0.140  10.032  21.505  0.00  0.00    +0.000 OA
ATOM     14  H   UNL     1      -0.862   9.477  21.853  0.00  0.00    +0.000 HD
ENDBRANCH   9  13
BRANCH  10  15
ATOM     15  O   UNL     1       0.509  11.101  19.087  0.00  0.00    +0.000 OA
ATOM     16  H   UNL     1       1.023  11.328  18.284  0.00  0.00    +0.000 HD
ENDBRANCH  10  15
BRANCH  11  17
ATOM     17  O   UNL     1       1.969   9.668  17.271  0.00  0.00    +0.000 OA
ATOM     18  H   UNL     1       1.945  10.634  17.426  0.00  0.00    +0.000 HD
ENDBRANCH  11  17
ENDBRANCH   4   7
ENDBRANCH   2   5
ENDBRANCH   1   2
BRANCH   1  19
ATOM     19  C   UNL     1       1.012   2.652  18.636  0.00  0.00    +0.000 C 
BRANCH  19  20
ATOM     20  C   UNL     1       2.459   2.222  18.385  0.00  0.00    +0.000 C 
BRANCH  20  21
ATOM     21  N   UNL     1       3.330   3.334  18.061  0.00  0.00    +0.000 N 
ATOM     22  C   UNL     1       4.568   3.489  18.653  0.00  0.00    +0.000 C 
ATOM     23  O   UNL     1       4.990   2.764  19.547  0.00  0.00    +0.000 OA
ATOM     24  H   UNL     1       3.008   3.993  17.367  0.00  0.00    +0.000 HD
BRANCH  22  25
ATOM     25  C   UNL     1       5.405   4.620  18.161  0.00  0.00    +0.000 A 
ATOM     26  C   UNL     1       6.513   5.025  18.932  0.00  0.00    +0.000 A 
ATOM     27  C   UNL     1       7.312   6.073  18.482  0.00  0.00    +0.000 A 
ATOM     28  C   UNL     1       7.022   6.708  17.279  0.00  0.00    +0.000 A 
ATOM     29  C   UNL     1       5.938   6.295  16.513  0.00  0.00    +0.000 A 
ATOM     30  C   UNL     1       5.129   5.251  16.941  0.00  0.00    +0.000 A 
BRANCH  27  31
ATOM     31  O   UNL     1       8.398   6.519  19.185  0.00  0.00    +0.000 OA
ATOM     32  H   UNL     1       8.448   7.487  19.094  0.00  0.00    +0.000 HD
ENDBRANCH  27  31
BRANCH  28  33
ATOM     33  O   UNL     1       7.801   7.735  16.822  0.00  0.00    +0.000 OA
ATOM     34  H   UNL     1       7.159   8.420  16.543  0.00  0.00    +0.000 HD
ENDBRANCH  28  33
BRANCH  29  35
ATOM     35  O   UNL     1       5.660   6.909  15.328  0.00  0.00    +0.000 OA
ATOM     36  H   UNL     1       4.819   6.513  15.035  0.00  0.00    +0.000 HD
ENDBRANCH  29  35
ENDBRANCH  22  25
ENDBRANCH  20  21
ENDBRANCH  19  20
ENDBRANCH   1  19
TORSDOF 13
ENDMDL
