MODEL 1
REMARK VINA RESULT:      -8.4      0.000      0.000
REMARK  Name = 
REMARK  9 active torsions:
REMARK  status: ('A' for Active; 'I' for Inactive)
REMARK    1  A    between atoms: C_1  and  O_2
REMARK    2  A    between atoms: O_2  and  C_3
REMARK    3  A    between atoms: C_6  and  C_7
REMARK    4  A    between atoms: N_9  and  C_10
REMARK    5  A    between atoms: C_10  and  C_11
REMARK    6  A    between atoms: C_10  and  C_15
REMARK    7  A    between atoms: C_11  and  C_12
REMARK    8  A    between atoms: C_12  and  O_14
REMARK    9  A    between atoms: C_23  and  C_24
REMARK                            x       y       z     vdW  Elec       q    Type
REMARK                         _______ _______ _______ _____ _____    ______ ____
ROOT
ATOM      1  C   UNL     1       2.884   4.292  19.777  0.00  0.00    +0.000 A 
ATOM      2  C   UNL     1       1.817   4.464  20.661  0.00  0.00    +0.000 A 
ATOM      3  C   UNL     1       1.320   5.740  20.909  0.00  0.00    +0.000 A 
ATOM      4  C   UNL     1       1.909   6.822  20.268  0.00  0.00    +0.000 A 
ATOM      5  N   UNL     1       2.930   6.697  19.380  0.00  0.00    +0.000 NA
ATOM      6  C   UNL     1       3.408   5.434  19.133  0.00  0.00    +0.000 A 
ENDROOT
BRANCH   6   7
ATOM      7  C   UNL     1       4.498   5.379  18.119  0.00  0.00    +0.000 A 
ATOM      8  C   UNL     1       5.736   5.998  18.362  0.00  0.00    +0.000 A 
ATOM      9  C   UNL     1       6.758   5.992  17.405  0.00  0.00    +0.000 A 
ATOM     10  C   UNL     1       6.579   5.368  16.162  0.00  0.00    +0.000 A 
ATOM     11  C   UNL     1       7.582   5.375  15.180  0.00  0.00    +0.000 A 
ATOM     12  C   UNL     1       7.377   4.754  13.945  0.00  0.00    +0.000 A 
ATOM     13  C   UNL     1       6.174   4.108  13.684  0.00  0.00    +0.000 A 
ATOM     14  C   UNL     1       5.170   4.091  14.652  0.00  0.00    +0.000 A 
ATOM     15  C   UNL     1       5.355   4.726  15.892  0.00  0.00    +0.000 A 
ATOM     16  C   UNL     1       4.337   4.749  16.866  0.00  0.00    +0.000 A 
ENDBRANCH   6   7
BRANCH   4  17
ATOM     17  C   UNL     1       1.415   8.212  20.579  0.00  0.00    +0.000 C 
ATOM     18  O   UNL     1       1.576   8.708  21.691  0.00  0.00    +0.000 OA
ATOM     19  N   UNL     1       0.805   8.883  19.542  0.00  0.00    +0.000 N 
ATOM     20  H   UNL     1       0.947   8.474  18.618  0.00  0.00    +0.000 HD
BRANCH  19  21
ATOM     21  C   UNL     1       0.360  10.284  19.622  0.00  0.00    +0.000 C 
BRANCH  21  22
ATOM     22  C   UNL     1      -0.930  10.550  18.831  0.00  0.00    +0.000 A 
ATOM     23  C   UNL     1      -1.178   9.861  17.624  0.00  0.00    +0.000 A 
ATOM     24  C   UNL     1      -2.330  10.079  16.866  0.00  0.00    +0.000 A 
ATOM     25  C   UNL     1      -3.280  10.999  17.287  0.00  0.00    +0.000 A 
ATOM     26  C   UNL     1      -3.091  11.666  18.494  0.00  0.00    +0.000 A 
ATOM     27  C   UNL     1      -1.947  11.425  19.269  0.00  0.00    +0.000 A 
ATOM     28 CL   UNL     1      -1.905  12.215  20.811  0.00  0.00    +0.000 Cl
ENDBRANCH  21  22
BRANCH  21  29
ATOM     29  C   UNL     1       1.539  11.222  19.289  0.00  0.00    +0.000 C 
BRANCH  29  30
ATOM     30  C   UNL     1       2.170  10.944  17.950  0.00  0.00    +0.000 C 
ATOM     31  O   UNL     1       2.407   9.833  17.496  0.00  0.00    +0.000 OA
BRANCH  30  32
ATOM     32  O   UNL     1       2.527  12.075  17.293  0.00  0.00    +0.000 OA
ATOM     33  H   UNL     1       3.301  12.535  17.670  0.00  0.00    +0.000 HD
ENDBRANCH  30  32
ENDBRANCH  29  30
ENDBRANCH  21  29
ENDBRANCH  19  21
ENDBRANCH   4  17
BRANCH   1  35
ATOM     34  C   UNL     1       2.711   2.033  19.022  0.00  0.00    +0.000 C 
ATOM     35  O   UNL     1       3.495   3.082  19.576  0.00  0.00    +0.000 OA
ENDBRANCH   1  35
TORSDOF 8
ENDMDL
MODEL 2
REMARK VINA RESULT:      -8.4      2.915      9.669
REMARK  Name = 
REMARK  9 active torsions:
REMARK  status: ('A' for Active; 'I' for Inactive)
REMARK    1  A    between atoms: C_1  and  O_2
REMARK    2  A    between atoms: O_2  and  C_3
REMARK    3  A    between atoms: C_6  and  C_7
REMARK    4  A    between atoms: N_9  and  C_10
REMARK    5  A    between atoms: C_10  and  C_11
REMARK    6  A    between atoms: C_10  and  C_15
REMARK    7  A    between atoms: C_11  and  C_12
REMARK    8  A    between atoms: C_12  and  O_14
REMARK    9  A    between atoms: C_23  and  C_24
REMARK                            x       y       z     vdW  Elec       q    Type
REMARK                         _______ _______ _______ _____ _____    ______ ____
ROOT
ATOM      1  C   UNL     1       1.250  11.023  18.734  0.00  0.00    +0.000 A 
ATOM      2  C   UNL     1       2.082  10.411  17.796  0.00  0.00    +0.000 A 
ATOM      3  C   UNL     1       2.420   9.068  17.939  0.00  0.00    +0.000 A 
ATOM      4  C   UNL     1       1.918   8.366  19.026  0.00  0.00    +0.000 A 
ATOM      5  N   UNL     1       1.083   8.915  19.948  0.00  0.00    +0.000 NA
ATOM      6  C   UNL     1       0.747  10.238  19.794  0.00  0.00    +0.000 A 
ENDROOT
BRANCH   6   7
ATOM      7  C   UNL     1      -0.203  10.751  20.821  0.00  0.00    +0.000 A 
ATOM      8  C   UNL     1      -0.124  10.315  22.153  0.00  0.00    +0.000 A 
ATOM      9  C   UNL     1      -1.032  10.754  23.124  0.00  0.00    +0.000 A 
ATOM     10  C   UNL     1      -2.061  11.649  22.795  0.00  0.00    +0.000 A 
ATOM     11  C   UNL     1      -2.998  12.079  23.748  0.00  0.00    +0.000 A 
ATOM     12  C   UNL     1      -4.021  12.963  23.396  0.00  0.00    +0.000 A 
ATOM     13  C   UNL     1      -4.110  13.437  22.091  0.00  0.00    +0.000 A 
ATOM     14  C   UNL     1      -3.184  13.019  21.135  0.00  0.00    +0.000 A 
ATOM     15  C   UNL     1      -2.160  12.117  21.471  0.00  0.00    +0.000 A 
ATOM     16  C   UNL     1      -1.240  11.656  20.509  0.00  0.00    +0.000 A 
ENDBRANCH   6   7
BRANCH   4  17
ATOM     17  C   UNL     1       2.328   6.928  19.220  0.00  0.00    +0.000 C 
ATOM     18  O   UNL     1       2.015   6.311  20.235  0.00  0.00    +0.000 OA
ATOM     19  N   UNL     1       3.044   6.360  18.189  0.00  0.00    +0.000 N 
ATOM     20  H   UNL     1       3.030   6.881  17.312  0.00  0.00    +0.000 HD
BRANCH  19  21
ATOM     21  C   UNL     1       3.434   4.940  18.149  0.00  0.00    +0.000 C 
BRANCH  21  22
ATOM     22  C   UNL     1       4.721   4.695  17.346  0.00  0.00    +0.000 A 
ATOM     23  C   UNL     1       4.651   4.346  15.980  0.00  0.00    +0.000 A 
ATOM     24  C   UNL     1       5.792   4.102  15.214  0.00  0.00    +0.000 A 
ATOM     25  C   UNL     1       7.052   4.197  15.789  0.00  0.00    +0.000 A 
ATOM     26  C   UNL     1       7.164   4.581  17.122  0.00  0.00    +0.000 A 
ATOM     27  C   UNL     1       6.016   4.853  17.883  0.00  0.00    +0.000 A 
ATOM     28 CL   UNL     1       6.303   5.455  19.482  0.00  0.00    +0.000 Cl
ENDBRANCH  21  22
BRANCH  21  29
ATOM     29  C   UNL     1       2.224   4.081  17.726  0.00  0.00    +0.000 C 
BRANCH  29  30
ATOM     30  C   UNL     1       1.796   3.086  18.773  0.00  0.00    +0.000 C 
ATOM     31  O   UNL     1       2.111   1.904  18.795  0.00  0.00    +0.000 OA
BRANCH  30  32
ATOM     32  O   UNL     1       0.948   3.617  19.686  0.00  0.00    +0.000 OA
ATOM     33  H   UNL     1       0.466   4.408  19.380  0.00  0.00    +0.000 HD
ENDBRANCH  30  32
ENDBRANCH  29  30
ENDBRANCH  21  29
ENDBRANCH  19  21
ENDBRANCH   4  17
BRANCH   1  35
ATOM     34  C   UNL     1       2.055  13.263  18.922  0.00  0.00    +0.000 C 
ATOM     35  O   UNL     1       0.972  12.365  18.718  0.00  0.00    +0.000 OA
ENDBRANCH   1  35
TORSDOF 8
ENDMDL
MODEL 3
REMARK VINA RESULT:      -8.2      1.041      1.165
REMARK  Name = 
REMARK  9 active torsions:
REMARK  status: ('A' for Active; 'I' for Inactive)
REMARK    1  A    between atoms: C_1  and  O_2
REMARK    2  A    between atoms: O_2  and  C_3
REMARK    3  A    between atoms: C_6  and  C_7
REMARK    4  A    between atoms: N_9  and  C_10
REMARK    5  A    between atoms: C_10  and  C_11
REMARK    6  A    between atoms: C_10  and  C_15
REMARK    7  A    between atoms: C_11  and  C_12
REMARK    8  A    between atoms: C_12  and  O_14
REMARK    9  A    between atoms: C_23  and  C_24
REMARK                            x       y       z     vdW  Elec       q    Type
REMARK                         _______ _______ _______ _____ _____    ______ ____
ROOT
ATOM      1  C   UNL     1       3.306   4.209  19.388  0.00  0.00    +0.000 A 
ATOM      2  C   UNL     1       2.311   4.393  20.350  0.00  0.00    +0.000 A 
ATOM      3  C   UNL     1       1.772   5.660  20.558  0.00  0.00    +0.000 A 
ATOM      4  C   UNL     1       2.249   6.720  19.799  0.00  0.00    +0.000 A 
ATOM      5  N   UNL     1       3.196   6.581  18.835  0.00  0.00    +0.000 NA
ATOM      6  C   UNL     1       3.715   5.326  18.629  0.00  0.00    +0.000 A 
ENDROOT
BRANCH   6   7
ATOM      7  C   UNL     1       4.717   5.251  17.528  0.00  0.00    +0.000 A 
ATOM      8  C   UNL     1       5.941   5.932  17.624  0.00  0.00    +0.000 A 
ATOM      9  C   UNL     1       6.878   5.907  16.584  0.00  0.00    +0.000 A 
ATOM     10  C   UNL     1       6.622   5.198  15.401  0.00  0.00    +0.000 A 
ATOM     11  C   UNL     1       7.537   5.184  14.336  0.00  0.00    +0.000 A 
ATOM     12  C   UNL     1       7.257   4.478  13.163  0.00  0.00    +0.000 A 
ATOM     13  C   UNL     1       6.066   3.769  13.047  0.00  0.00    +0.000 A 
ATOM     14  C   UNL     1       5.149   3.774  14.098  0.00  0.00    +0.000 A 
ATOM     15  C   UNL     1       5.410   4.492  15.278  0.00  0.00    +0.000 A 
ATOM     16  C   UNL     1       4.478   4.537  16.333  0.00  0.00    +0.000 A 
ENDBRANCH   6   7
BRANCH   4  17
ATOM     17  C   UNL     1       1.714   8.105  20.062  0.00  0.00    +0.000 C 
ATOM     18  O   UNL     1       1.511   8.498  21.208  0.00  0.00    +0.000 OA
ATOM     19  N   UNL     1       1.497   8.890  18.951  0.00  0.00    +0.000 N 
ATOM     20  H   UNL     1       1.926   8.551  18.090  0.00  0.00    +0.000 HD
BRANCH  19  21
ATOM     21  C   UNL     1       1.084  10.302  19.014  0.00  0.00    +0.000 C 
BRANCH  21  22
ATOM     22  C   UNL     1      -0.388  10.514  18.632  0.00  0.00    +0.000 A 
ATOM     23  C   UNL     1      -0.927   9.874  17.494  0.00  0.00    +0.000 A 
ATOM     24  C   UNL     1      -2.255  10.046  17.102  0.00  0.00    +0.000 A 
ATOM     25  C   UNL     1      -3.099  10.870  17.834  0.00  0.00    +0.000 A 
ATOM     26  C   UNL     1      -2.616  11.484  18.986  0.00  0.00    +0.000 A 
ATOM     27  C   UNL     1      -1.288  11.287  19.395  0.00  0.00    +0.000 A 
ATOM     28 CL   UNL     1      -0.860  11.995  20.918  0.00  0.00    +0.000 Cl
ENDBRANCH  21  22
BRANCH  21  29
ATOM     29  C   UNL     1       2.095  11.172  18.239  0.00  0.00    +0.000 C 
BRANCH  29  30
ATOM     30  C   UNL     1       2.107  12.614  18.674  0.00  0.00    +0.000 C 
ATOM     31  O   UNL     1       2.106  13.580  17.922  0.00  0.00    +0.000 OA
BRANCH  30  32
ATOM     32  O   UNL     1       2.189  12.756  20.018  0.00  0.00    +0.000 OA
ATOM     33  H   UNL     1       2.689  13.541  20.313  0.00  0.00    +0.000 HD
ENDBRANCH  30  32
ENDBRANCH  29  30
ENDBRANCH  21  29
ENDBRANCH  19  21
ENDBRANCH   4  17
BRANCH   1  35
ATOM     34  C   UNL     1       4.309   2.281  20.378  0.00  0.00    +0.000 C 
ATOM     35  O   UNL     1       3.958   3.016  19.212  0.00  0.00    +0.000 OA
ENDBRANCH   1  35
TORSDOF 8
ENDMDL
MODEL 4
REMARK VINA RESULT:      -7.9      3.555      8.792
REMARK  Name = 
REMARK  9 active torsions:
REMARK  status: ('A' for Active; 'I' for Inactive)
REMARK    1  A    between atoms: C_1  and  O_2
REMARK    2  A    between atoms: O_2  and  C_3
REMARK    3  A    between atoms: C_6  and  C_7
REMARK    4  A    between atoms: N_9  and  C_10
REMARK    5  A    between atoms: C_10  and  C_11
REMARK    6  A    between atoms: C_10  and  C_15
REMARK    7  A    between atoms: C_11  and  C_12
REMARK    8  A    between atoms: C_12  and  O_14
REMARK    9  A    between atoms: C_23  and  C_24
REMARK                            x       y       z     vdW  Elec       q    Type
REMARK                         _______ _______ _______ _____ _____    ______ ____
ROOT
ATOM      1  C   UNL     1       0.362  10.878  21.603  0.00  0.00    +0.000 A 
ATOM      2  C   UNL     1       0.558   9.540  21.950  0.00  0.00    +0.000 A 
ATOM      3  C   UNL     1       1.109   8.657  21.025  0.00  0.00    +0.000 A 
ATOM      4  C   UNL     1       1.447   9.134  19.767  0.00  0.00    +0.000 A 
ATOM      5  N   UNL     1       1.299  10.433  19.396  0.00  0.00    +0.000 NA
ATOM      6  C   UNL     1       0.764  11.300  20.317  0.00  0.00    +0.000 A 
ENDROOT
BRANCH   6   7
ATOM      7  C   UNL     1       0.672  12.712  19.848  0.00  0.00    +0.000 A 
ATOM      8  C   UNL     1      -0.564  13.377  19.813  0.00  0.00    +0.000 A 
ATOM      9  C   UNL     1      -0.677  14.689  19.338  0.00  0.00    +0.000 A 
ATOM     10  C   UNL     1       0.448  15.387  18.874  0.00  0.00    +0.000 A 
ATOM     11  C   UNL     1       0.351  16.693  18.369  0.00  0.00    +0.000 A 
ATOM     12  C   UNL     1       1.484  17.365  17.904  0.00  0.00    +0.000 A 
ATOM     13  C   UNL     1       2.728  16.745  17.951  0.00  0.00    +0.000 A 
ATOM     14  C   UNL     1       2.839  15.448  18.453  0.00  0.00    +0.000 A 
ATOM     15  C   UNL     1       1.706  14.753  18.909  0.00  0.00    +0.000 A 
ATOM     16  C   UNL     1       1.795  13.431  19.384  0.00  0.00    +0.000 A 
ENDBRANCH   6   7
BRANCH   4  17
ATOM     17  C   UNL     1       1.988   8.169  18.741  0.00  0.00    +0.000 C 
ATOM     18  O   UNL     1       2.022   8.466  17.549  0.00  0.00    +0.000 OA
ATOM     19  N   UNL     1       2.453   6.968  19.227  0.00  0.00    +0.000 N 
ATOM     20  H   UNL     1       2.598   6.935  20.237  0.00  0.00    +0.000 HD
BRANCH  19  21
ATOM     21  C   UNL     1       3.115   5.949  18.396  0.00  0.00    +0.000 C 
BRANCH  21  22
ATOM     22  C   UNL     1       2.515   4.546  18.574  0.00  0.00    +0.000 A 
ATOM     23  C   UNL     1       1.477   4.330  19.507  0.00  0.00    +0.000 A 
ATOM     24  C   UNL     1       0.910   3.071  19.711  0.00  0.00    +0.000 A 
ATOM     25  C   UNL     1       1.362   1.976  18.989  0.00  0.00    +0.000 A 
ATOM     26  C   UNL     1       2.354   2.157  18.029  0.00  0.00    +0.000 A 
ATOM     27  C   UNL     1       2.904   3.429  17.805  0.00  0.00    +0.000 A 
ATOM     28 CL   UNL     1       4.026   3.539  16.489  0.00  0.00    +0.000 Cl
ENDBRANCH  21  22
BRANCH  21  29
ATOM     29  C   UNL     1       4.644   6.038  18.587  0.00  0.00    +0.000 C 
BRANCH  29  30
ATOM     30  C   UNL     1       5.363   6.659  17.419  0.00  0.00    +0.000 C 
ATOM     31  O   UNL     1       6.575   6.804  17.329  0.00  0.00    +0.000 OA
BRANCH  30  32
ATOM     32  O   UNL     1       4.516   7.121  16.467  0.00  0.00    +0.000 OA
ATOM     33  H   UNL     1       3.589   6.838  16.578  0.00  0.00    +0.000 HD
ENDBRANCH  30  32
ENDBRANCH  29  30
ENDBRANCH  21  29
ENDBRANCH  19  21
ENDBRANCH   4  17
BRANCH   1  35
ATOM     34  C   UNL     1      -1.500  11.356  23.020  0.00  0.00    +0.000 C 
ATOM     35  O   UNL     1      -0.279  11.772  22.420  0.00  0.00    +0.000 OA
ENDBRANCH   1  35
TORSDOF 8
ENDMDL
MODEL 5
REMARK VINA RESULT:      -7.9      3.148      9.891
REMARK  Name = 
REMARK  9 active torsions:
REMARK  status: ('A' for Active; 'I' for Inactive)
REMARK    1  A    between atoms: C_1  and  O_2
REMARK    2  A    between atoms: O_2  and  C_3
REMARK    3  A    between atoms: C_6  and  C_7
REMARK    4  A    between atoms: N_9  and  C_10
REMARK    5  A    between atoms: C_10  and  C_11
REMARK    6  A    between atoms: C_10  and  C_15
REMARK    7  A    between atoms: C_11  and  C_12
REMARK    8  A    between atoms: C_12  and  O_14
REMARK    9  A    between atoms: C_23  and  C_24
REMARK                            x       y       z     vdW  Elec       q    Type
REMARK                         _______ _______ _______ _____ _____    ______ ____
ROOT
ATOM      1  C   UNL     1       0.727  11.780  18.981  0.00  0.00    +0.000 A 
ATOM      2  C   UNL     1       1.630  11.207  18.084  0.00  0.00    +0.000 A 
ATOM      3  C   UNL     1       2.007   9.875  18.235  0.00  0.00    +0.000 A 
ATOM      4  C   UNL     1       1.474   9.146  19.288  0.00  0.00    +0.000 A 
ATOM      5  N   UNL     1       0.572   9.656  20.168  0.00  0.00    +0.000 NA
ATOM      6  C   UNL     1       0.197  10.968  20.007  0.00  0.00    +0.000 A 
ENDROOT
BRANCH   6   7
ATOM      7  C   UNL     1      -0.824  11.437  20.985  0.00  0.00    +0.000 A 
ATOM      8  C   UNL     1      -0.672  11.183  22.358  0.00  0.00    +0.000 A 
ATOM      9  C   UNL     1      -1.640  11.581  23.288  0.00  0.00    +0.000 A 
ATOM     10  C   UNL     1      -2.804  12.247  22.877  0.00  0.00    +0.000 A 
ATOM     11  C   UNL     1      -3.798  12.629  23.791  0.00  0.00    +0.000 A 
ATOM     12  C   UNL     1      -4.954  13.284  23.358  0.00  0.00    +0.000 A 
ATOM     13  C   UNL     1      -5.122  13.576  22.009  0.00  0.00    +0.000 A 
ATOM     14  C   UNL     1      -4.140  13.204  21.089  0.00  0.00    +0.000 A 
ATOM     15  C   UNL     1      -2.980  12.530  21.509  0.00  0.00    +0.000 A 
ATOM     16  C   UNL     1      -1.997  12.115  20.589  0.00  0.00    +0.000 A 
ENDBRANCH   6   7
BRANCH   4  17
ATOM     17  C   UNL     1       1.925   7.721  19.493  0.00  0.00    +0.000 C 
ATOM     18  O   UNL     1       1.733   7.144  20.560  0.00  0.00    +0.000 OA
ATOM     19  N   UNL     1       2.533   7.119  18.414  0.00  0.00    +0.000 N 
ATOM     20  H   UNL     1       2.416   7.604  17.524  0.00  0.00    +0.000 HD
BRANCH  19  21
ATOM     21  C   UNL     1       2.939   5.704  18.388  0.00  0.00    +0.000 C 
BRANCH  21  22
ATOM     22  C   UNL     1       4.284   5.479  17.681  0.00  0.00    +0.000 A 
ATOM     23  C   UNL     1       4.714   6.367  16.671  0.00  0.00    +0.000 A 
ATOM     24  C   UNL     1       5.923   6.196  15.994  0.00  0.00    +0.000 A 
ATOM     25  C   UNL     1       6.750   5.124  16.301  0.00  0.00    +0.000 A 
ATOM     26  C   UNL     1       6.381   4.252  17.321  0.00  0.00    +0.000 A 
ATOM     27  C   UNL     1       5.179   4.441  18.020  0.00  0.00    +0.000 A 
ATOM     28 CL   UNL     1       4.910   3.369  19.354  0.00  0.00    +0.000 Cl
ENDBRANCH  21  22
BRANCH  21  29
ATOM     29  C   UNL     1       1.772   4.840  17.866  0.00  0.00    +0.000 C 
BRANCH  29  30
ATOM     30  C   UNL     1       1.315   3.790  18.845  0.00  0.00    +0.000 C 
ATOM     31  O   UNL     1       1.109   2.613  18.576  0.00  0.00    +0.000 OA
BRANCH  30  32
ATOM     32  O   UNL     1       1.080   4.291  20.081  0.00  0.00    +0.000 OA
ATOM     33  H   UNL     1       1.168   5.261  20.148  0.00  0.00    +0.000 HD
ENDBRANCH  30  32
ENDBRANCH  29  30
ENDBRANCH  21  29
ENDBRANCH  19  21
ENDBRANCH   4  17
BRANCH   1  35
ATOM     34  C   UNL     1       1.341  14.025  19.513  0.00  0.00    +0.000 C 
ATOM     35  O   UNL     1       0.402  13.111  18.960  0.00  0.00    +0.000 OA
ENDBRANCH   1  35
TORSDOF 8
ENDMDL
MODEL 6
REMARK VINA RESULT:      -7.8      2.073      2.964
REMARK  Name = 
REMARK  9 active torsions:
REMARK  status: ('A' for Active; 'I' for Inactive)
REMARK    1  A    between atoms: C_1  and  O_2
REMARK    2  A    between atoms: O_2  and  C_3
REMARK    3  A    between atoms: C_6  and  C_7
REMARK    4  A    between atoms: N_9  and  C_10
REMARK    5  A    between atoms: C_10  and  C_11
REMARK    6  A    between atoms: C_10  and  C_15
REMARK    7  A    between atoms: C_11  and  C_12
REMARK    8  A    between atoms: C_12  and  O_14
REMARK    9  A    between atoms: C_23  and  C_24
REMARK                            x       y       z     vdW  Elec       q    Type
REMARK                         _______ _______ _______ _____ _____    ______ ____
ROOT
ATOM      1  C   UNL     1       3.681   5.581  19.226  0.00  0.00    +0.000 A 
ATOM      2  C   UNL     1       2.694   6.047  20.097  0.00  0.00    +0.000 A 
ATOM      3  C   UNL     1       2.019   7.231  19.813  0.00  0.00    +0.000 A 
ATOM      4  C   UNL     1       2.352   7.928  18.660  0.00  0.00    +0.000 A 
ATOM      5  N   UNL     1       3.286   7.498  17.771  0.00  0.00    +0.000 NA
ATOM      6  C   UNL     1       3.941   6.324  18.054  0.00  0.00    +0.000 A 
ENDROOT
BRANCH   6   7
ATOM      7  C   UNL     1       4.918   5.901  17.011  0.00  0.00    +0.000 A 
ATOM      8  C   UNL     1       6.254   6.329  17.065  0.00  0.00    +0.000 A 
ATOM      9  C   UNL     1       7.177   5.976  16.074  0.00  0.00    +0.000 A 
ATOM     10  C   UNL     1       6.795   5.180  14.984  0.00  0.00    +0.000 A 
ATOM     11  C   UNL     1       7.699   4.838  13.965  0.00  0.00    +0.000 A 
ATOM     12  C   UNL     1       7.293   4.052  12.884  0.00  0.00    +0.000 A 
ATOM     13  C   UNL     1       5.984   3.588  12.815  0.00  0.00    +0.000 A 
ATOM     14  C   UNL     1       5.076   3.919  13.821  0.00  0.00    +0.000 A 
ATOM     15  C   UNL     1       5.465   4.723  14.907  0.00  0.00    +0.000 A 
ATOM     16  C   UNL     1       4.551   5.096  15.911  0.00  0.00    +0.000 A 
ENDBRANCH   6   7
BRANCH   4  17
ATOM     17  C   UNL     1       1.668   9.242  18.377  0.00  0.00    +0.000 C 
ATOM     18  O   UNL     1       2.054   9.975  17.471  0.00  0.00    +0.000 OA
ATOM     19  N   UNL     1       0.586   9.543  19.175  0.00  0.00    +0.000 N 
ATOM     20  H   UNL     1       0.216   8.762  19.717  0.00  0.00    +0.000 HD
BRANCH  19  21
ATOM     21  C   UNL     1      -0.273  10.723  18.978  0.00  0.00    +0.000 C 
BRANCH  21  22
ATOM     22  C   UNL     1      -0.299  11.656  20.198  0.00  0.00    +0.000 A 
ATOM     23  C   UNL     1      -1.235  11.446  21.234  0.00  0.00    +0.000 A 
ATOM     24  C   UNL     1      -1.303  12.275  22.355  0.00  0.00    +0.000 A 
ATOM     25  C   UNL     1      -0.436  13.351  22.482  0.00  0.00    +0.000 A 
ATOM     26  C   UNL     1       0.529  13.565  21.503  0.00  0.00    +0.000 A 
ATOM     27  C   UNL     1       0.615  12.714  20.390  0.00  0.00    +0.000 A 
ATOM     28 CL   UNL     1       1.947  13.009  19.321  0.00  0.00    +0.000 Cl
ENDBRANCH  21  22
BRANCH  21  29
ATOM     29  C   UNL     1      -1.658  10.276  18.464  0.00  0.00    +0.000 C 
BRANCH  29  30
ATOM     30  C   UNL     1      -2.028  10.875  17.133  0.00  0.00    +0.000 C 
ATOM     31  O   UNL     1      -2.492  10.256  16.183  0.00  0.00    +0.000 OA
BRANCH  30  32
ATOM     32  O   UNL     1      -1.731  12.194  17.049  0.00  0.00    +0.000 OA
ATOM     33  H   UNL     1      -1.313  12.567  17.848  0.00  0.00    +0.000 HD
ENDBRANCH  30  32
ENDBRANCH  29  30
ENDBRANCH  21  29
ENDBRANCH  19  21
ENDBRANCH   4  17
BRANCH   1  35
ATOM     34  C   UNL     1       3.905   3.204  19.256  0.00  0.00    +0.000 C 
ATOM     35  O   UNL     1       4.462   4.490  19.502  0.00  0.00    +0.000 OA
ENDBRANCH   1  35
TORSDOF 8
ENDMDL
MODEL 7
REMARK VINA RESULT:      -7.8      2.150      3.051
REMARK  Name = 
REMARK  9 active torsions:
REMARK  status: ('A' for Active; 'I' for Inactive)
REMARK    1  A    between atoms: C_1  and  O_2
REMARK    2  A    between atoms: O_2  and  C_3
REMARK    3  A    between atoms: C_6  and  C_7
REMARK    4  A    between atoms: N_9  and  C_10
REMARK    5  A    between atoms: C_10  and  C_11
REMARK    6  A    between atoms: C_10  and  C_15
REMARK    7  A    between atoms: C_11  and  C_12
REMARK    8  A    between atoms: C_12  and  O_14
REMARK    9  A    between atoms: C_23  and  C_24
REMARK                            x       y       z     vdW  Elec       q    Type
REMARK                         _______ _______ _______ _____ _____    ______ ____
ROOT
ATOM      1  C   UNL     1       3.936   5.183  18.958  0.00  0.00    +0.000 A 
ATOM      2  C   UNL     1       3.000   5.609  19.902  0.00  0.00    +0.000 A 
ATOM      3  C   UNL     1       2.314   6.805  19.710  0.00  0.00    +0.000 A 
ATOM      4  C   UNL     1       2.586   7.555  18.574  0.00  0.00    +0.000 A 
ATOM      5  N   UNL     1       3.469   7.165  17.617  0.00  0.00    +0.000 NA
ATOM      6  C   UNL     1       4.134   5.979  17.809  0.00  0.00    +0.000 A 
ENDROOT
BRANCH   6   7
ATOM      7  C   UNL     1       5.052   5.604  16.696  0.00  0.00    +0.000 A 
ATOM      8  C   UNL     1       6.378   6.067  16.673  0.00  0.00    +0.000 A 
ATOM      9  C   UNL     1       7.243   5.759  15.617  0.00  0.00    +0.000 A 
ATOM     10  C   UNL     1       6.811   4.976  14.536  0.00  0.00    +0.000 A 
ATOM     11  C   UNL     1       7.656   4.680  13.455  0.00  0.00    +0.000 A 
ATOM     12  C   UNL     1       7.200   3.905  12.384  0.00  0.00    +0.000 A 
ATOM     13  C   UNL     1       5.902   3.408  12.390  0.00  0.00    +0.000 A 
ATOM     14  C   UNL     1       5.053   3.693  13.460  0.00  0.00    +0.000 A 
ATOM     15  C   UNL     1       5.491   4.485  14.535  0.00  0.00    +0.000 A 
ATOM     16  C   UNL     1       4.635   4.812  15.605  0.00  0.00    +0.000 A 
ENDBRANCH   6   7
BRANCH   4  17
ATOM     17  C   UNL     1       1.892   8.881  18.390  0.00  0.00    +0.000 C 
ATOM     18  O   UNL     1       2.110   9.578  17.402  0.00  0.00    +0.000 OA
ATOM     19  N   UNL     1       0.997   9.236  19.375  0.00  0.00    +0.000 N 
ATOM     20  H   UNL     1       0.722   8.481  20.004  0.00  0.00    +0.000 HD
BRANCH  19  21
ATOM     21  C   UNL     1       0.145  10.436  19.313  0.00  0.00    +0.000 C 
BRANCH  21  22
ATOM     22  C   UNL     1      -0.305  10.923  20.699  0.00  0.00    +0.000 A 
ATOM     23  C   UNL     1      -0.503  12.300  20.938  0.00  0.00    +0.000 A 
ATOM     24  C   UNL     1      -0.900  12.790  22.184  0.00  0.00    +0.000 A 
ATOM     25  C   UNL     1      -1.113  11.918  23.242  0.00  0.00    +0.000 A 
ATOM     26  C   UNL     1      -0.970  10.549  23.033  0.00  0.00    +0.000 A 
ATOM     27  C   UNL     1      -0.598  10.056  21.773  0.00  0.00    +0.000 A 
ATOM     28 CL   UNL     1      -0.592   8.330  21.615  0.00  0.00    +0.000 Cl
ENDBRANCH  21  22
BRANCH  21  29
ATOM     29  C   UNL     1      -0.992  10.212  18.295  0.00  0.00    +0.000 C 
BRANCH  29  30
ATOM     30  C   UNL     1      -1.744  11.470  17.945  0.00  0.00    +0.000 C 
ATOM     31  O   UNL     1      -1.232  12.551  17.687  0.00  0.00    +0.000 OA
BRANCH  30  32
ATOM     32  O   UNL     1      -3.088  11.313  18.008  0.00  0.00    +0.000 OA
ATOM     33  H   UNL     1      -3.601  12.079  17.687  0.00  0.00    +0.000 HD
ENDBRANCH  30  32
ENDBRANCH  29  30
ENDBRANCH  21  29
ENDBRANCH  19  21
ENDBRANCH   4  17
BRANCH   1  35
ATOM     34  C   UNL     1       4.122   2.803  18.976  0.00  0.00    +0.000 C 
ATOM     35  O   UNL     1       4.727   4.079  19.141  0.00  0.00    +0.000 OA
ENDBRANCH   1  35
TORSDOF 8
ENDMDL
MODEL 8
REMARK VINA RESULT:      -7.7      3.741      8.945
REMARK  Name = 
REMARK  9 active torsions:
REMARK  status: ('A' for Active; 'I' for Inactive)
REMARK    1  A    between atoms: C_1  and  O_2
REMARK    2  A    between atoms: O_2  and  C_3
REMARK    3  A    between atoms: C_6  and  C_7
REMARK    4  A    between atoms: N_9  and  C_10
REMARK    5  A    between atoms: C_10  and  C_11
REMARK    6  A    between atoms: C_10  and  C_15
REMARK    7  A    between atoms: C_11  and  C_12
REMARK    8  A    between atoms: C_12  and  O_14
REMARK    9  A    between atoms: C_23  and  C_24
REMARK                            x       y       z     vdW  Elec       q    Type
REMARK                         _______ _______ _______ _____ _____    ______ ____
ROOT
ATOM      1  C   UNL     1       0.658  11.211  21.080  0.00  0.00    +0.000 A 
ATOM      2  C   UNL     1       0.616   9.849  21.382  0.00  0.00    +0.000 A 
ATOM      3  C   UNL     1       1.123   8.921  20.477  0.00  0.00    +0.000 A 
ATOM      4  C   UNL     1       1.657   9.379  19.281  0.00  0.00    +0.000 A 
ATOM      5  N   UNL     1       1.743  10.696  18.958  0.00  0.00    +0.000 NA
ATOM      6  C   UNL     1       1.250  11.607  19.861  0.00  0.00    +0.000 A 
ENDROOT
BRANCH   6   7
ATOM      7  C   UNL     1       1.419  13.029  19.450  0.00  0.00    +0.000 A 
ATOM      8  C   UNL     1       2.700  13.589  19.315  0.00  0.00    +0.000 A 
ATOM      9  C   UNL     1       2.879  14.934  18.969  0.00  0.00    +0.000 A 
ATOM     10  C   UNL     1       1.777  15.774  18.749  0.00  0.00    +0.000 A 
ATOM     11  C   UNL     1       1.937  17.132  18.429  0.00  0.00    +0.000 A 
ATOM     12  C   UNL     1       0.825  17.952  18.223  0.00  0.00    +0.000 A 
ATOM     13  C   UNL     1      -0.457  17.422  18.321  0.00  0.00    +0.000 A 
ATOM     14  C   UNL     1      -0.630  16.074  18.636  0.00  0.00    +0.000 A 
ATOM     15  C   UNL     1       0.479  15.240  18.863  0.00  0.00    +0.000 A 
ATOM     16  C   UNL     1       0.322  13.887  19.218  0.00  0.00    +0.000 A 
ENDBRANCH   6   7
BRANCH   4  17
ATOM     17  C   UNL     1       2.152   8.375  18.270  0.00  0.00    +0.000 C 
ATOM     18  O   UNL     1       2.146   8.631  17.069  0.00  0.00    +0.000 OA
ATOM     19  N   UNL     1       2.625   7.186  18.780  0.00  0.00    +0.000 N 
ATOM     20  H   UNL     1       2.806   7.187  19.784  0.00  0.00    +0.000 HD
BRANCH  19  21
ATOM     21  C   UNL     1       3.249   6.134  17.961  0.00  0.00    +0.000 C 
BRANCH  21  22
ATOM     22  C   UNL     1       2.674   4.737  18.240  0.00  0.00    +0.000 A 
ATOM     23  C   UNL     1       1.613   4.575  19.158  0.00  0.00    +0.000 A 
ATOM     24  C   UNL     1       1.068   3.324  19.452  0.00  0.00    +0.000 A 
ATOM     25  C   UNL     1       1.566   2.183  18.838  0.00  0.00    +0.000 A 
ATOM     26  C   UNL     1       2.582   2.307  17.896  0.00  0.00    +0.000 A 
ATOM     27  C   UNL     1       3.110   3.569  17.580  0.00  0.00    +0.000 A 
ATOM     28 CL   UNL     1       4.270   3.595  16.293  0.00  0.00    +0.000 Cl
ENDBRANCH  21  22
BRANCH  21  29
ATOM     29  C   UNL     1       4.785   6.243  18.059  0.00  0.00    +0.000 C 
BRANCH  29  30
ATOM     30  C   UNL     1       5.423   6.868  16.846  0.00  0.00    +0.000 C 
ATOM     31  O   UNL     1       4.959   6.850  15.714  0.00  0.00    +0.000 OA
BRANCH  30  32
ATOM     32  O   UNL     1       6.633   7.417  17.114  0.00  0.00    +0.000 OA
ATOM     33  H   UNL     1       7.375   7.022  16.618  0.00  0.00    +0.000 HD
ENDBRANCH  30  32
ENDBRANCH  29  30
ENDBRANCH  21  29
ENDBRANCH  19  21
ENDBRANCH   4  17
BRANCH   1  35
ATOM     34  C   UNL     1      -1.117  11.812  22.560  0.00  0.00    +0.000 C 
ATOM     35  O   UNL     1       0.075  12.167  21.870  0.00  0.00    +0.000 OA
ENDBRANCH   1  35
TORSDOF 8
ENDMDL
MODEL 9
REMARK VINA RESULT:      -7.7      3.182      8.740
REMARK  Name = 
REMARK  9 active torsions:
REMARK  status: ('A' for Active; 'I' for Inactive)
REMARK    1  A    between atoms: C_1  and  O_2
REMARK    2  A    between atoms: O_2  and  C_3
REMARK    3  A    between atoms: C_6  and  C_7
REMARK    4  A    between atoms: N_9  and  C_10
REMARK    5  A    between atoms: C_10  and  C_11
REMARK    6  A    between atoms: C_10  and  C_15
REMARK    7  A    between atoms: C_11  and  C_12
REMARK    8  A    between atoms: C_12  and  O_14
REMARK    9  A    between atoms: C_23  and  C_24
REMARK                            x       y       z     vdW  Elec       q    Type
REMARK                         _______ _______ _______ _____ _____    ______ ____
ROOT
ATOM      1  C   UNL     1       0.607  10.262  21.540  0.00  0.00    +0.000 A 
ATOM      2  C   UNL     1       0.923   8.938  21.846  0.00  0.00    +0.000 A 
ATOM      3  C   UNL     1       1.526   8.129  20.886  0.00  0.00    +0.000 A 
ATOM      4  C   UNL     1       1.793   8.666  19.634  0.00  0.00    +0.000 A 
ATOM      5  N   UNL     1       1.527   9.957  19.303  0.00  0.00    +0.000 NA
ATOM      6  C   UNL     1       0.942  10.751  20.259  0.00  0.00    +0.000 A 
ENDROOT
BRANCH   6   7
ATOM      7  C   UNL     1       0.721  12.161  19.831  0.00  0.00    +0.000 A 
ATOM      8  C   UNL     1      -0.569  12.624  19.525  0.00  0.00    +0.000 A 
ATOM      9  C   UNL     1      -0.793  13.933  19.083  0.00  0.00    +0.000 A 
ATOM     10  C   UNL     1       0.273  14.833  18.927  0.00  0.00    +0.000 A 
ATOM     11  C   UNL     1       0.072  16.141  18.459  0.00  0.00    +0.000 A 
ATOM     12  C   UNL     1       1.150  17.016  18.302  0.00  0.00    +0.000 A 
ATOM     13  C   UNL     1       2.437  16.599  18.624  0.00  0.00    +0.000 A 
ATOM     14  C   UNL     1       2.649  15.302  19.093  0.00  0.00    +0.000 A 
ATOM     15  C   UNL     1       1.577  14.405  19.239  0.00  0.00    +0.000 A 
ATOM     16  C   UNL     1       1.780  13.081  19.675  0.00  0.00    +0.000 A 
ENDBRANCH   6   7
BRANCH   4  17
ATOM     17  C   UNL     1       2.389   7.778  18.571  0.00  0.00    +0.000 C 
ATOM     18  O   UNL     1       2.267   8.048  17.379  0.00  0.00    +0.000 OA
ATOM     19  N   UNL     1       3.086   6.678  19.022  0.00  0.00    +0.000 N 
ATOM     20  H   UNL     1       3.324   6.694  20.014  0.00  0.00    +0.000 HD
BRANCH  19  21
ATOM     21  C   UNL     1       3.828   5.761  18.141  0.00  0.00    +0.000 C 
BRANCH  21  22
ATOM     22  C   UNL     1       3.523   4.282  18.421  0.00  0.00    +0.000 A 
ATOM     23  C   UNL     1       4.428   3.498  19.169  0.00  0.00    +0.000 A 
ATOM     24  C   UNL     1       4.198   2.148  19.438  0.00  0.00    +0.000 A 
ATOM     25  C   UNL     1       3.050   1.527  18.965  0.00  0.00    +0.000 A 
ATOM     26  C   UNL     1       2.113   2.277  18.260  0.00  0.00    +0.000 A 
ATOM     27  C   UNL     1       2.333   3.642  18.015  0.00  0.00    +0.000 A 
ATOM     28 CL   UNL     1       1.026   4.486  17.251  0.00  0.00    +0.000 Cl
ENDBRANCH  21  22
BRANCH  21  29
ATOM     29  C   UNL     1       5.326   6.134  18.149  0.00  0.00    +0.000 C 
BRANCH  29  30
ATOM     30  C   UNL     1       5.798   6.757  16.861  0.00  0.00    +0.000 C 
ATOM     31  O   UNL     1       6.925   7.187  16.654  0.00  0.00    +0.000 OA
BRANCH  30  32
ATOM     32  O   UNL     1       4.813   6.863  15.937  0.00  0.00    +0.000 OA
ATOM     33  H   UNL     1       5.125   6.891  15.013  0.00  0.00    +0.000 HD
ENDBRANCH  30  32
ENDBRANCH  29  30
ENDBRANCH  21  29
ENDBRANCH  19  21
ENDBRANCH   4  17
BRANCH   1  35
ATOM     34  C   UNL     1      -1.104  10.480  23.192  0.00  0.00    +0.000 C 
ATOM     35  O   UNL     1      -0.088  11.077  22.395  0.00  0.00    +0.000 OA
ENDBRANCH   1  35
TORSDOF 8
ENDMDL
