MODEL 1
REMARK VINA RESULT:      -7.1      0.000      0.000
REMARK  Name = 
REMARK  8 active torsions:
REMARK  status: ('A' for Active; 'I' for Inactive)
REMARK    1  A    between atoms: C_1  and  O_2
REMARK    2  A    between atoms: O_2  and  C_3
REMARK    3  A    between atoms: C_6  and  C_7
REMARK    4  A    between atoms: C_7  and  C_9
REMARK    5  A    between atoms: C_10  and  C_11
REMARK    6  A    between atoms: C_15  and  O_16
REMARK    7  A    between atoms: O_16  and  C_17
REMARK    8  A    between atoms: C_18  and  O_19
REMARK                            x       y       z     vdW  Elec       q    Type
REMARK                         _______ _______ _______ _____ _____    ______ ____
ROOT
ATOM      1  C   UNL     1       2.758   5.620  19.928  0.00  0.00    +0.000 C 
ATOM      2  C   UNL     1       2.646   6.739  19.195  0.00  0.00    +0.000 C 
ENDROOT
BRANCH   2   3
ATOM      3  C   UNL     1       1.858   7.887  19.659  0.00  0.00    +0.000 A 
ATOM      4  C   UNL     1       1.337   7.861  20.959  0.00  0.00    +0.000 A 
ATOM      5  C   UNL     1       0.582   8.933  21.443  0.00  0.00    +0.000 A 
ATOM      6  C   UNL     1       0.337  10.047  20.639  0.00  0.00    +0.000 A 
ATOM      7  C   UNL     1       0.845  10.093  19.339  0.00  0.00    +0.000 A 
ATOM      8  C   UNL     1       1.600   9.007  18.860  0.00  0.00    +0.000 A 
BRANCH   7   9
ATOM      9  O   UNL     1       0.678  11.128  18.452  0.00  0.00    +0.000 OA
ATOM     10  C   UNL     1       1.331  12.352  18.775  0.00  0.00    +0.000 C 
ENDBRANCH   7   9
BRANCH   8  11
ATOM     11  O   UNL     1       2.091   9.057  17.579  0.00  0.00    +0.000 OA
ATOM     12  H   UNL     1       1.362   8.734  17.014  0.00  0.00    +0.000 HD
ENDBRANCH   8  11
ENDBRANCH   2   3
BRANCH   1  13
ATOM     13  C   UNL     1       3.609   4.489  19.460  0.00  0.00    +0.000 C 
ATOM     14  O   UNL     1       3.483   3.352  19.901  0.00  0.00    +0.000 OA
BRANCH  13  18
ATOM     15  C   UNL     1       6.568   5.272  16.419  0.00  0.00    +0.000 A 
ATOM     16  C   UNL     1       5.319   4.732  16.090  0.00  0.00    +0.000 A 
ATOM     17  C   UNL     1       4.363   4.488  17.087  0.00  0.00    +0.000 A 
ATOM     18  C   UNL     1       4.649   4.770  18.430  0.00  0.00    +0.000 A 
ATOM     19  C   UNL     1       5.884   5.335  18.755  0.00  0.00    +0.000 A 
ATOM     20  C   UNL     1       6.827   5.577  17.757  0.00  0.00    +0.000 A 
ATOM     21  F   UNL     1       7.990   6.122  18.142  0.00  0.00    +0.000 F 
BRANCH  15  23
ATOM     22  C   UNL     1       7.030   4.835  14.131  0.00  0.00    +0.000 C 
ATOM     23  O   UNL     1       7.413   5.450  15.357  0.00  0.00    +0.000 OA
ENDBRANCH  15  23
ENDBRANCH  13  18
ENDBRANCH   1  13
TORSDOF 6
ENDMDL
MODEL 2
REMARK VINA RESULT:      -7.0      4.974      6.578
REMARK  Name = 
REMARK  8 active torsions:
REMARK  status: ('A' for Active; 'I' for Inactive)
REMARK    1  A    between atoms: C_1  and  O_2
REMARK    2  A    between atoms: O_2  and  C_3
REMARK    3  A    between atoms: C_6  and  C_7
REMARK    4  A    between atoms: C_7  and  C_9
REMARK    5  A    between atoms: C_10  and  C_11
REMARK    6  A    between atoms: C_15  and  O_16
REMARK    7  A    between atoms: O_16  and  C_17
REMARK    8  A    between atoms: C_18  and  O_19
REMARK                            x       y       z     vdW  Elec       q    Type
REMARK                         _______ _______ _______ _____ _____    ______ ____
ROOT
ATOM      1  C   UNL     1       7.977   8.176  18.027  0.00  0.00    +0.000 C 
ATOM      2  C   UNL     1       8.006   9.428  17.543  0.00  0.00    +0.000 C 
ENDROOT
BRANCH   2   3
ATOM      3  C   UNL     1       8.656  10.521  18.275  0.00  0.00    +0.000 A 
ATOM      4  C   UNL     1       9.459  10.205  19.379  0.00  0.00    +0.000 A 
ATOM      5  C   UNL     1      10.099  11.213  20.105  0.00  0.00    +0.000 A 
ATOM      6  C   UNL     1       9.949  12.552  19.739  0.00  0.00    +0.000 A 
ATOM      7  C   UNL     1       9.153  12.890  18.643  0.00  0.00    +0.000 A 
ATOM      8  C   UNL     1       8.510  11.868  17.922  0.00  0.00    +0.000 A 
BRANCH   7   9
ATOM      9  O   UNL     1       8.928  14.164  18.182  0.00  0.00    +0.000 OA
ATOM     10  C   UNL     1      10.083  14.943  17.884  0.00  0.00    +0.000 C 
ENDBRANCH   7   9
BRANCH   8  11
ATOM     11  O   UNL     1       7.723  12.209  16.850  0.00  0.00    +0.000 OA
ATOM     12  H   UNL     1       8.053  13.080  16.558  0.00  0.00    +0.000 HD
ENDBRANCH   8  11
ENDBRANCH   2   3
BRANCH   1  13
ATOM     13  C   UNL     1       7.358   7.073  17.239  0.00  0.00    +0.000 C 
ATOM     14  O   UNL     1       7.881   6.621  16.225  0.00  0.00    +0.000 OA
BRANCH  13  18
ATOM     15  C   UNL     1       3.548   5.524  18.543  0.00  0.00    +0.000 A 
ATOM     16  C   UNL     1       3.624   6.576  17.623  0.00  0.00    +0.000 A 
ATOM     17  C   UNL     1       4.869   7.066  17.201  0.00  0.00    +0.000 A 
ATOM     18  C   UNL     1       6.056   6.518  17.706  0.00  0.00    +0.000 A 
ATOM     19  C   UNL     1       5.981   5.451  18.603  0.00  0.00    +0.000 A 
ATOM     20  C   UNL     1       4.740   4.967  19.014  0.00  0.00    +0.000 A 
ATOM     21  F   UNL     1       4.744   3.940  19.876  0.00  0.00    +0.000 F 
BRANCH  15  23
ATOM     22  C   UNL     1       1.621   4.251  17.989  0.00  0.00    +0.000 C 
ATOM     23  O   UNL     1       2.276   5.148  18.880  0.00  0.00    +0.000 OA
ENDBRANCH  15  23
ENDBRANCH  13  18
ENDBRANCH   1  13
TORSDOF 6
ENDMDL
MODEL 3
REMARK VINA RESULT:      -6.9      1.416      1.866
REMARK  Name = 
REMARK  8 active torsions:
REMARK  status: ('A' for Active; 'I' for Inactive)
REMARK    1  A    between atoms: C_1  and  O_2
REMARK    2  A    between atoms: O_2  and  C_3
REMARK    3  A    between atoms: C_6  and  C_7
REMARK    4  A    between atoms: C_7  and  C_9
REMARK    5  A    between atoms: C_10  and  C_11
REMARK    6  A    between atoms: C_15  and  O_16
REMARK    7  A    between atoms: O_16  and  C_17
REMARK    8  A    between atoms: C_18  and  O_19
REMARK                            x       y       z     vdW  Elec       q    Type
REMARK                         _______ _______ _______ _____ _____    ______ ____
ROOT
ATOM      1  C   UNL     1       2.594   5.872  19.125  0.00  0.00    +0.000 C 
ATOM      2  C   UNL     1       2.904   7.172  19.008  0.00  0.00    +0.000 C 
ENDROOT
BRANCH   2   3
ATOM      3  C   UNL     1       1.882   8.220  19.121  0.00  0.00    +0.000 A 
ATOM      4  C   UNL     1       1.465   8.878  17.958  0.00  0.00    +0.000 A 
ATOM      5  C   UNL     1       0.493   9.881  18.018  0.00  0.00    +0.000 A 
ATOM      6  C   UNL     1      -0.078  10.240  19.240  0.00  0.00    +0.000 A 
ATOM      7  C   UNL     1       0.324   9.597  20.412  0.00  0.00    +0.000 A 
ATOM      8  C   UNL     1       1.306   8.593  20.341  0.00  0.00    +0.000 A 
BRANCH   7   9
ATOM      9  O   UNL     1      -0.161   9.856  21.672  0.00  0.00    +0.000 OA
ATOM     10  C   UNL     1      -0.357  11.227  22.006  0.00  0.00    +0.000 C 
ENDBRANCH   7   9
BRANCH   8  11
ATOM     11  O   UNL     1       1.701   7.971  21.499  0.00  0.00    +0.000 OA
ATOM     12  H   UNL     1       1.552   7.019  21.341  0.00  0.00    +0.000 HD
ENDBRANCH   8  11
ENDBRANCH   2   3
BRANCH   1  13
ATOM     13  C   UNL     1       3.658   4.830  19.061  0.00  0.00    +0.000 C 
ATOM     14  O   UNL     1       3.670   3.861  19.813  0.00  0.00    +0.000 OA
BRANCH  13  18
ATOM     15  C   UNL     1       6.748   5.260  16.081  0.00  0.00    +0.000 A 
ATOM     16  C   UNL     1       5.532   4.637  15.776  0.00  0.00    +0.000 A 
ATOM     17  C   UNL     1       4.533   4.510  16.751  0.00  0.00    +0.000 A 
ATOM     18  C   UNL     1       4.743   4.992  18.051  0.00  0.00    +0.000 A 
ATOM     19  C   UNL     1       5.944   5.638  18.347  0.00  0.00    +0.000 A 
ATOM     20  C   UNL     1       6.931   5.764  17.370  0.00  0.00    +0.000 A 
ATOM     21  F   UNL     1       8.059   6.396  17.725  0.00  0.00    +0.000 F 
BRANCH  15  23
ATOM     22  C   UNL     1       7.182   4.829  13.785  0.00  0.00    +0.000 C 
ATOM     23  O   UNL     1       7.642   5.309  15.045  0.00  0.00    +0.000 OA
ENDBRANCH  15  23
ENDBRANCH  13  18
ENDBRANCH   1  13
TORSDOF 6
ENDMDL
MODEL 4
REMARK VINA RESULT:      -6.9      5.029      6.695
REMARK  Name = 
REMARK  8 active torsions:
REMARK  status: ('A' for Active; 'I' for Inactive)
REMARK    1  A    between atoms: C_1  and  O_2
REMARK    2  A    between atoms: O_2  and  C_3
REMARK    3  A    between atoms: C_6  and  C_7
REMARK    4  A    between atoms: C_7  and  C_9
REMARK    5  A    between atoms: C_10  and  C_11
REMARK    6  A    between atoms: C_15  and  O_16
REMARK    7  A    between atoms: O_16  and  C_17
REMARK    8  A    between atoms: C_18  and  O_19
REMARK                            x       y       z     vdW  Elec       q    Type
REMARK                         _______ _______ _______ _____ _____    ______ ____
ROOT
ATOM      1  C   UNL     1       7.984   8.241  18.124  0.00  0.00    +0.000 C 
ATOM      2  C   UNL     1       8.065   9.468  17.587  0.00  0.00    +0.000 C 
ENDROOT
BRANCH   2   3
ATOM      3  C   UNL     1       8.706  10.579  18.299  0.00  0.00    +0.000 A 
ATOM      4  C   UNL     1       9.512  10.290  19.407  0.00  0.00    +0.000 A 
ATOM      5  C   UNL     1      10.143  11.316  20.115  0.00  0.00    +0.000 A 
ATOM      6  C   UNL     1       9.980  12.647  19.727  0.00  0.00    +0.000 A 
ATOM      7  C   UNL     1       9.180  12.959  18.626  0.00  0.00    +0.000 A 
ATOM      8  C   UNL     1       8.546  11.919  17.923  0.00  0.00    +0.000 A 
BRANCH   7   9
ATOM      9  O   UNL     1       8.942  14.223  18.144  0.00  0.00    +0.000 OA
ATOM     10  C   UNL     1      10.089  14.997  17.803  0.00  0.00    +0.000 C 
ENDBRANCH   7   9
BRANCH   8  11
ATOM     11  O   UNL     1       7.755  12.234  16.847  0.00  0.00    +0.000 OA
ATOM     12  H   UNL     1       8.122  13.068  16.496  0.00  0.00    +0.000 HD
ENDBRANCH   8  11
ENDBRANCH   2   3
BRANCH   1  13
ATOM     13  C   UNL     1       7.377   7.116  17.358  0.00  0.00    +0.000 C 
ATOM     14  O   UNL     1       7.847   6.720  16.296  0.00  0.00    +0.000 OA
BRANCH  13  18
ATOM     15  C   UNL     1       3.879   5.193  18.997  0.00  0.00    +0.000 A 
ATOM     16  C   UNL     1       5.167   4.806  19.388  0.00  0.00    +0.000 A 
ATOM     17  C   UNL     1       6.295   5.444  18.853  0.00  0.00    +0.000 A 
ATOM     18  C   UNL     1       6.151   6.469  17.908  0.00  0.00    +0.000 A 
ATOM     19  C   UNL     1       4.868   6.873  17.539  0.00  0.00    +0.000 A 
ATOM     20  C   UNL     1       3.751   6.237  18.078  0.00  0.00    +0.000 A 
ATOM     21  F   UNL     1       2.549   6.678  17.678  0.00  0.00    +0.000 F 
BRANCH  15  23
ATOM     22  C   UNL     1       2.363   3.370  18.851  0.00  0.00    +0.000 C 
ATOM     23  O   UNL     1       2.865   4.484  19.583  0.00  0.00    +0.000 OA
ENDBRANCH  15  23
ENDBRANCH  13  18
ENDBRANCH   1  13
TORSDOF 6
ENDMDL
MODEL 5
REMARK VINA RESULT:      -6.7      3.532      8.471
REMARK  Name = 
REMARK  8 active torsions:
REMARK  status: ('A' for Active; 'I' for Inactive)
REMARK    1  A    between atoms: C_1  and  O_2
REMARK    2  A    between atoms: O_2  and  C_3
REMARK    3  A    between atoms: C_6  and  C_7
REMARK    4  A    between atoms: C_7  and  C_9
REMARK    5  A    between atoms: C_10  and  C_11
REMARK    6  A    between atoms: C_15  and  O_16
REMARK    7  A    between atoms: O_16  and  C_17
REMARK    8  A    between atoms: C_18  and  O_19
REMARK                            x       y       z     vdW  Elec       q    Type
REMARK                         _______ _______ _______ _____ _____    ______ ____
ROOT
ATOM      1  C   UNL     1       1.661   8.511  17.946  0.00  0.00    +0.000 C 
ATOM      2  C   UNL     1       2.917   8.037  17.945  0.00  0.00    +0.000 C 
ENDROOT
BRANCH   2   3
ATOM      3  C   UNL     1       3.200   6.609  17.759  0.00  0.00    +0.000 A 
ATOM      4  C   UNL     1       2.181   5.684  18.016  0.00  0.00    +0.000 A 
ATOM      5  C   UNL     1       2.405   4.315  17.851  0.00  0.00    +0.000 A 
ATOM      6  C   UNL     1       3.650   3.848  17.424  0.00  0.00    +0.000 A 
ATOM      7  C   UNL     1       4.680   4.752  17.162  0.00  0.00    +0.000 A 
ATOM      8  C   UNL     1       4.445   6.128  17.336  0.00  0.00    +0.000 A 
BRANCH   7   9
ATOM      9  O   UNL     1       5.945   4.422  16.736  0.00  0.00    +0.000 OA
ATOM     10  C   UNL     1       6.041   3.813  15.451  0.00  0.00    +0.000 C 
ENDBRANCH   7   9
BRANCH   8  11
ATOM     11  O   UNL     1       5.466   7.011  17.083  0.00  0.00    +0.000 OA
ATOM     12  H   UNL     1       5.758   7.321  17.962  0.00  0.00    +0.000 HD
ENDBRANCH   8  11
ENDBRANCH   2   3
BRANCH   1  13
ATOM     13  C   UNL     1       1.403   9.972  18.082  0.00  0.00    +0.000 C 
ATOM     14  O   UNL     1       2.308  10.799  18.076  0.00  0.00    +0.000 OA
BRANCH  13  18
ATOM     15  C   UNL     1      -2.655  11.349  18.593  0.00  0.00    +0.000 A 
ATOM     16  C   UNL     1      -1.579  12.043  19.160  0.00  0.00    +0.000 A 
ATOM     17  C   UNL     1      -0.265  11.589  18.982  0.00  0.00    +0.000 A 
ATOM     18  C   UNL     1      -0.009  10.426  18.243  0.00  0.00    +0.000 A 
ATOM     19  C   UNL     1      -1.078   9.749  17.653  0.00  0.00    +0.000 A 
ATOM     20  C   UNL     1      -2.382  10.210  17.833  0.00  0.00    +0.000 A 
ATOM     21  F   UNL     1      -3.359   9.511  17.237  0.00  0.00    +0.000 F 
BRANCH  15  23
ATOM     22  C   UNL     1      -4.005  12.655  20.047  0.00  0.00    +0.000 C 
ATOM     23  O   UNL     1      -3.886  11.889  18.852  0.00  0.00    +0.000 OA
ENDBRANCH  15  23
ENDBRANCH  13  18
ENDBRANCH   1  13
TORSDOF 6
ENDMDL
MODEL 6
REMARK VINA RESULT:      -6.7      2.784      8.093
REMARK  Name = 
REMARK  8 active torsions:
REMARK  status: ('A' for Active; 'I' for Inactive)
REMARK    1  A    between atoms: C_1  and  O_2
REMARK    2  A    between atoms: O_2  and  C_3
REMARK    3  A    between atoms: C_6  and  C_7
REMARK    4  A    between atoms: C_7  and  C_9
REMARK    5  A    between atoms: C_10  and  C_11
REMARK    6  A    between atoms: C_15  and  O_16
REMARK    7  A    between atoms: O_16  and  C_17
REMARK    8  A    between atoms: C_18  and  O_19
REMARK                            x       y       z     vdW  Elec       q    Type
REMARK                         _______ _______ _______ _____ _____    ______ ____
ROOT
ATOM      1  C   UNL     1       2.054   8.137  18.028  0.00  0.00    +0.000 C 
ATOM      2  C   UNL     1       3.318   7.731  17.832  0.00  0.00    +0.000 C 
ENDROOT
BRANCH   2   3
ATOM      3  C   UNL     1       3.638   6.330  17.536  0.00  0.00    +0.000 A 
ATOM      4  C   UNL     1       2.736   5.336  17.936  0.00  0.00    +0.000 A 
ATOM      5  C   UNL     1       2.999   3.989  17.674  0.00  0.00    +0.000 A 
ATOM      6  C   UNL     1       4.166   3.613  17.005  0.00  0.00    +0.000 A 
ATOM      7  C   UNL     1       5.079   4.587  16.598  0.00  0.00    +0.000 A 
ATOM      8  C   UNL     1       4.807   5.939  16.871  0.00  0.00    +0.000 A 
BRANCH   7   9
ATOM      9  O   UNL     1       6.258   4.348  15.933  0.00  0.00    +0.000 OA
ATOM     10  C   UNL     1       6.146   3.930  14.575  0.00  0.00    +0.000 C 
ENDBRANCH   7   9
BRANCH   8  11
ATOM     11  O   UNL     1       5.714   6.890  16.473  0.00  0.00    +0.000 OA
ATOM     12  H   UNL     1       6.474   6.786  17.077  0.00  0.00    +0.000 HD
ENDBRANCH   8  11
ENDBRANCH   2   3
BRANCH   1  13
ATOM     13  C   UNL     1       1.749   9.575  18.273  0.00  0.00    +0.000 C 
ATOM     14  O   UNL     1       2.129  10.462  17.516  0.00  0.00    +0.000 OA
BRANCH  13  18
ATOM     15  C   UNL     1      -0.531  10.684  21.765  0.00  0.00    +0.000 A 
ATOM     16  C   UNL     1      -0.284  11.606  20.740  0.00  0.00    +0.000 A 
ATOM     17  C   UNL     1       0.453  11.231  19.607  0.00  0.00    +0.000 A 
ATOM     18  C   UNL     1       0.964   9.931  19.490  0.00  0.00    +0.000 A 
ATOM     19  C   UNL     1       0.694   9.004  20.498  0.00  0.00    +0.000 A 
ATOM     20  C   UNL     1      -0.042   9.384  21.619  0.00  0.00    +0.000 A 
ATOM     21  F   UNL     1      -0.263   8.442  22.547  0.00  0.00    +0.000 F 
BRANCH  15  23
ATOM     22  C   UNL     1      -2.196  12.201  22.519  0.00  0.00    +0.000 C 
ATOM     23  O   UNL     1      -1.250  11.179  22.819  0.00  0.00    +0.000 OA
ENDBRANCH  15  23
ENDBRANCH  13  18
ENDBRANCH   1  13
TORSDOF 6
ENDMDL
MODEL 7
REMARK VINA RESULT:      -6.7      2.358      3.093
REMARK  Name = 
REMARK  8 active torsions:
REMARK  status: ('A' for Active; 'I' for Inactive)
REMARK    1  A    between atoms: C_1  and  O_2
REMARK    2  A    between atoms: O_2  and  C_3
REMARK    3  A    between atoms: C_6  and  C_7
REMARK    4  A    between atoms: C_7  and  C_9
REMARK    5  A    between atoms: C_10  and  C_11
REMARK    6  A    between atoms: C_15  and  O_16
REMARK    7  A    between atoms: O_16  and  C_17
REMARK    8  A    between atoms: C_18  and  O_19
REMARK                            x       y       z     vdW  Elec       q    Type
REMARK                         _______ _______ _______ _____ _____    ______ ____
ROOT
ATOM      1  C   UNL     1       1.789   7.510  19.919  0.00  0.00    +0.000 C 
ATOM      2  C   UNL     1       1.235   8.066  21.008  0.00  0.00    +0.000 C 
ENDROOT
BRANCH   2   3
ATOM      3  C   UNL     1       0.573   9.374  20.951  0.00  0.00    +0.000 A 
ATOM      4  C   UNL     1       0.252   9.910  19.698  0.00  0.00    +0.000 A 
ATOM      5  C   UNL     1      -0.381  11.151  19.597  0.00  0.00    +0.000 A 
ATOM      6  C   UNL     1      -0.705  11.877  20.745  0.00  0.00    +0.000 A 
ATOM      7  C   UNL     1      -0.393  11.362  22.004  0.00  0.00    +0.000 A 
ATOM      8  C   UNL     1       0.248  10.113  22.095  0.00  0.00    +0.000 A 
BRANCH   7   9
ATOM      9  O   UNL     1      -0.660  11.974  23.206  0.00  0.00    +0.000 OA
ATOM     10  C   UNL     1      -1.238  13.274  23.140  0.00  0.00    +0.000 C 
ENDBRANCH   7   9
BRANCH   8  11
ATOM     11  O   UNL     1       0.557   9.617  23.337  0.00  0.00    +0.000 OA
ATOM     12  H   UNL     1       0.499  10.384  23.940  0.00  0.00    +0.000 HD
ENDBRANCH   8  11
ENDBRANCH   2   3
BRANCH   1  13
ATOM     13  C   UNL     1       2.408   6.156  19.990  0.00  0.00    +0.000 C 
ATOM     14  O   UNL     1       2.263   5.421  20.962  0.00  0.00    +0.000 OA
BRANCH  13  18
ATOM     15  C   UNL     1       4.800   4.755  16.684  0.00  0.00    +0.000 A 
ATOM     16  C   UNL     1       4.272   3.861  17.623  0.00  0.00    +0.000 A 
ATOM     17  C   UNL     1       3.490   4.329  18.689  0.00  0.00    +0.000 A 
ATOM     18  C   UNL     1       3.237   5.699  18.838  0.00  0.00    +0.000 A 
ATOM     19  C   UNL     1       3.740   6.587  17.886  0.00  0.00    +0.000 A 
ATOM     20  C   UNL     1       4.514   6.114  16.827  0.00  0.00    +0.000 A 
ATOM     21  F   UNL     1       4.963   7.024  15.950  0.00  0.00    +0.000 F 
BRANCH  15  23
ATOM     22  C   UNL     1       6.951   4.449  15.724  0.00  0.00    +0.000 C 
ATOM     23  O   UNL     1       5.554   4.173  15.700  0.00  0.00    +0.000 OA
ENDBRANCH  15  23
ENDBRANCH  13  18
ENDBRANCH   1  13
TORSDOF 6
ENDMDL
MODEL 8
REMARK VINA RESULT:      -6.7      2.184      3.769
REMARK  Name = 
REMARK  8 active torsions:
REMARK  status: ('A' for Active; 'I' for Inactive)
REMARK    1  A    between atoms: C_1  and  O_2
REMARK    2  A    between atoms: O_2  and  C_3
REMARK    3  A    between atoms: C_6  and  C_7
REMARK    4  A    between atoms: C_7  and  C_9
REMARK    5  A    between atoms: C_10  and  C_11
REMARK    6  A    between atoms: C_15  and  O_16
REMARK    7  A    between atoms: O_16  and  C_17
REMARK    8  A    between atoms: C_18  and  O_19
REMARK                            x       y       z     vdW  Elec       q    Type
REMARK                         _______ _______ _______ _____ _____    ______ ____
ROOT
ATOM      1  C   UNL     1       1.678   8.413  19.376  0.00  0.00    +0.000 C 
ATOM      2  C   UNL     1       0.973   9.549  19.490  0.00  0.00    +0.000 C 
ENDROOT
BRANCH   2   3
ATOM      3  C   UNL     1       0.306   9.918  20.744  0.00  0.00    +0.000 A 
ATOM      4  C   UNL     1       0.369   9.030  21.824  0.00  0.00    +0.000 A 
ATOM      5  C   UNL     1      -0.251   9.340  23.037  0.00  0.00    +0.000 A 
ATOM      6  C   UNL     1      -0.941  10.544  23.192  0.00  0.00    +0.000 A 
ATOM      7  C   UNL     1      -1.018  11.444  22.128  0.00  0.00    +0.000 A 
ATOM      8  C   UNL     1      -0.394  11.120  20.909  0.00  0.00    +0.000 A 
BRANCH   7   9
ATOM      9  O   UNL     1      -1.663  12.657  22.152  0.00  0.00    +0.000 OA
ATOM     10  C   UNL     1      -1.199  13.602  23.113  0.00  0.00    +0.000 C 
ENDBRANCH   7   9
BRANCH   8  11
ATOM     11  O   UNL     1      -0.480  12.007  19.865  0.00  0.00    +0.000 OA
ATOM     12  H   UNL     1      -1.433  12.068  19.661  0.00  0.00    +0.000 HD
ENDBRANCH   8  11
ENDBRANCH   2   3
BRANCH   1  13
ATOM     13  C   UNL     1       2.392   8.087  18.109  0.00  0.00    +0.000 C 
ATOM     14  O   UNL     1       2.567   8.919  17.225  0.00  0.00    +0.000 OA
BRANCH  13  18
ATOM     15  C   UNL     1       3.772   4.032  17.592  0.00  0.00    +0.000 A 
ATOM     16  C   UNL     1       2.470   4.302  18.029  0.00  0.00    +0.000 A 
ATOM     17  C   UNL     1       2.031   5.624  18.187  0.00  0.00    +0.000 A 
ATOM     18  C   UNL     1       2.895   6.696  17.922  0.00  0.00    +0.000 A 
ATOM     19  C   UNL     1       4.184   6.428  17.459  0.00  0.00    +0.000 A 
ATOM     20  C   UNL     1       4.611   5.110  17.301  0.00  0.00    +0.000 A 
ATOM     21  F   UNL     1       5.861   4.927  16.852  0.00  0.00    +0.000 F 
BRANCH  15  23
ATOM     22  C   UNL     1       3.328   1.813  18.313  0.00  0.00    +0.000 C 
ATOM     23  O   UNL     1       4.078   2.701  17.491  0.00  0.00    +0.000 OA
ENDBRANCH  15  23
ENDBRANCH  13  18
ENDBRANCH   1  13
TORSDOF 6
ENDMDL
MODEL 9
REMARK VINA RESULT:      -6.7      3.281      4.932
REMARK  Name = 
REMARK  8 active torsions:
REMARK  status: ('A' for Active; 'I' for Inactive)
REMARK    1  A    between atoms: C_1  and  O_2
REMARK    2  A    between atoms: O_2  and  C_3
REMARK    3  A    between atoms: C_6  and  C_7
REMARK    4  A    between atoms: C_7  and  C_9
REMARK    5  A    between atoms: C_10  and  C_11
REMARK    6  A    between atoms: C_15  and  O_16
REMARK    7  A    between atoms: O_16  and  C_17
REMARK    8  A    between atoms: C_18  and  O_19
REMARK                            x       y       z     vdW  Elec       q    Type
REMARK                         _______ _______ _______ _____ _____    ______ ____
ROOT
ATOM      1  C   UNL     1       1.796   8.476  17.732  0.00  0.00    +0.000 C 
ATOM      2  C   UNL     1       1.450   9.339  18.699  0.00  0.00    +0.000 C 
ENDROOT
BRANCH   2   3
ATOM      3  C   UNL     1       0.408  10.351  18.490  0.00  0.00    +0.000 A 
ATOM      4  C   UNL     1      -0.824   9.945  17.961  0.00  0.00    +0.000 A 
ATOM      5  C   UNL     1      -1.846  10.874  17.747  0.00  0.00    +0.000 A 
ATOM      6  C   UNL     1      -1.655  12.221  18.059  0.00  0.00    +0.000 A 
ATOM      7  C   UNL     1      -0.434  12.648  18.586  0.00  0.00    +0.000 A 
ATOM      8  C   UNL     1       0.589  11.705  18.794  0.00  0.00    +0.000 A 
BRANCH   7   9
ATOM      9  O   UNL     1      -0.123  13.940  18.935  0.00  0.00    +0.000 OA
ATOM     10  C   UNL     1      -0.895  14.516  19.985  0.00  0.00    +0.000 C 
ENDBRANCH   7   9
BRANCH   8  11
ATOM     11  O   UNL     1       1.788  12.134  19.306  0.00  0.00    +0.000 OA
ATOM     12  H   UNL     1       1.854  11.716  20.186  0.00  0.00    +0.000 HD
ENDBRANCH   8  11
ENDBRANCH   2   3
BRANCH   1  13
ATOM     13  C   UNL     1       2.820   7.422  17.986  0.00  0.00    +0.000 C 
ATOM     14  O   UNL     1       3.998   7.569  17.681  0.00  0.00    +0.000 OA
BRANCH  13  18
ATOM     15  C   UNL     1       1.537   3.778  19.908  0.00  0.00    +0.000 A 
ATOM     16  C   UNL     1       1.743   4.950  20.645  0.00  0.00    +0.000 A 
ATOM     17  C   UNL     1       2.153   6.130  20.008  0.00  0.00    +0.000 A 
ATOM     18  C   UNL     1       2.377   6.149  18.625  0.00  0.00    +0.000 A 
ATOM     19  C   UNL     1       2.144   4.989  17.885  0.00  0.00    +0.000 A 
ATOM     20  C   UNL     1       1.733   3.821  18.526  0.00  0.00    +0.000 A 
ATOM     21  F   UNL     1       1.529   2.744  17.753  0.00  0.00    +0.000 F 
BRANCH  15  23
ATOM     22  C   UNL     1       1.772   2.541  21.922  0.00  0.00    +0.000 C 
ATOM     23  O   UNL     1       1.150   2.695  20.650  0.00  0.00    +0.000 OA
ENDBRANCH  15  23
ENDBRANCH  13  18
ENDBRANCH   1  13
TORSDOF 6
ENDMDL
