MODEL 1
REMARK VINA RESULT:      -7.4      0.000      0.000
REMARK  Name = 
REMARK  6 active torsions:
REMARK  status: ('A' for Active; 'I' for Inactive)
REMARK    1  A    between atoms: C_1  and  N_2
REMARK    2  A    between atoms: N_2  and  C_3
REMARK    3  A    between atoms: C_3  and  C_4
REMARK    4  A    between atoms: C_9  and  C_11
REMARK    5  A    between atoms: N_14  and  C_15
REMARK    6  A    between atoms: C_15  and  C_16
REMARK                            x       y       z     vdW  Elec       q    Type
REMARK                         _______ _______ _______ _____ _____    ______ ____
ROOT
ATOM      1  C   UNL     1       7.950   7.020  18.051  0.00  0.00    +0.000 C 
ATOM      2  N   UNL     1       6.680   6.313  17.948  0.00  0.00    +0.000 N 
ATOM      3  C   UNL     1       6.278   5.555  19.054  0.00  0.00    +0.000 C 
ATOM      4  O   UNL     1       7.033   5.440  20.028  0.00  0.00    +0.000 OA
ENDROOT
BRANCH   3   5
ATOM      5  C   UNL     1       4.941   4.916  19.139  0.00  0.00    +0.000 A 
ATOM      6  C   UNL     1       3.754   5.558  18.671  0.00  0.00    +0.000 A 
ATOM      7  C   UNL     1       2.755   4.627  18.777  0.00  0.00    +0.000 A 
ATOM      8  N   UNL     1       3.293   3.611  19.505  0.00  0.00    +0.000 N 
ATOM      9  N   UNL     1       4.632   3.705  19.646  0.00  0.00    +0.000 NA
BRANCH   8  10
ATOM     10  C   UNL     1       2.565   2.493  20.059  0.00  0.00    +0.000 C 
BRANCH  10  11
ATOM     11  C   UNL     1       1.758   2.878  21.279  0.00  0.00    +0.000 C 
ATOM     12  F   UNL     1       1.508   1.859  22.127  0.00  0.00    +0.000 F 
ATOM     13  F   UNL     1       2.416   3.828  21.992  0.00  0.00    +0.000 F 
ATOM     14  F   UNL     1       0.565   3.412  20.926  0.00  0.00    +0.000 F 
ENDBRANCH  10  11
ENDBRANCH   8  10
ENDBRANCH   3   5
BRANCH   2  15
ATOM     15  C   UNL     1       5.877   6.614  16.760  0.00  0.00    +0.000 C 
BRANCH  15  16
ATOM     16  C   UNL     1       6.085   5.633  15.644  0.00  0.00    +0.000 A 
ATOM     17  C   UNL     1       5.231   4.574  15.239  0.00  0.00    +0.000 A 
ATOM     18  C   UNL     1       5.935   3.885  14.284  0.00  0.00    +0.000 A 
ATOM     19  N   UNL     1       7.118   4.546  14.144  0.00  0.00    +0.000 N 
ATOM     20  N   UNL     1       7.237   5.609  14.950  0.00  0.00    +0.000 NA
ATOM     21  H   UNL     1       7.895   4.308  13.532  0.00  0.00    +0.000 HD
ENDBRANCH  15  16
ENDBRANCH   2  15
TORSDOF 5
ENDMDL
MODEL 2
REMARK VINA RESULT:      -7.2      1.771      2.220
REMARK  Name = 
REMARK  6 active torsions:
REMARK  status: ('A' for Active; 'I' for Inactive)
REMARK    1  A    between atoms: C_1  and  N_2
REMARK    2  A    between atoms: N_2  and  C_3
REMARK    3  A    between atoms: C_3  and  C_4
REMARK    4  A    between atoms: C_9  and  C_11
REMARK    5  A    between atoms: N_14  and  C_15
REMARK    6  A    between atoms: C_15  and  C_16
REMARK                            x       y       z     vdW  Elec       q    Type
REMARK                         _______ _______ _______ _____ _____    ______ ____
ROOT
ATOM      1  C   UNL     1       8.178   7.254  18.351  0.00  0.00    +0.000 C 
ATOM      2  N   UNL     1       6.965   6.456  18.222  0.00  0.00    +0.000 N 
ATOM      3  C   UNL     1       6.655   5.588  19.275  0.00  0.00    +0.000 C 
ATOM      4  O   UNL     1       7.444   5.462  20.221  0.00  0.00    +0.000 OA
ENDROOT
BRANCH   3   5
ATOM      5  C   UNL     1       5.376   4.839  19.341  0.00  0.00    +0.000 A 
ATOM      6  C   UNL     1       5.325   3.414  19.426  0.00  0.00    +0.000 A 
ATOM      7  C   UNL     1       4.007   3.093  19.613  0.00  0.00    +0.000 A 
ATOM      8  N   UNL     1       3.326   4.248  19.384  0.00  0.00    +0.000 N 
ATOM      9  N   UNL     1       4.121   5.337  19.324  0.00  0.00    +0.000 NA
BRANCH   8  10
ATOM     10  C   UNL     1       1.892   4.369  19.255  0.00  0.00    +0.000 C 
BRANCH  10  11
ATOM     11  C   UNL     1       1.381   3.800  17.950  0.00  0.00    +0.000 C 
ATOM     12  F   UNL     1       0.730   4.689  17.171  0.00  0.00    +0.000 F 
ATOM     13  F   UNL     1       2.416   3.319  17.215  0.00  0.00    +0.000 F 
ATOM     14  F   UNL     1       0.541   2.762  18.167  0.00  0.00    +0.000 F 
ENDBRANCH  10  11
ENDBRANCH   8  10
ENDBRANCH   3   5
BRANCH   2  15
ATOM     15  C   UNL     1       6.107   6.779  17.079  0.00  0.00    +0.000 C 
BRANCH  15  16
ATOM     16  C   UNL     1       6.199   5.773  15.970  0.00  0.00    +0.000 A 
ATOM     17  C   UNL     1       5.247   4.785  15.604  0.00  0.00    +0.000 A 
ATOM     18  C   UNL     1       5.862   4.029  14.639  0.00  0.00    +0.000 A 
ATOM     19  N   UNL     1       7.092   4.587  14.455  0.00  0.00    +0.000 N 
ATOM     20  N   UNL     1       7.323   5.645  15.243  0.00  0.00    +0.000 NA
ATOM     21  H   UNL     1       7.827   4.278  13.824  0.00  0.00    +0.000 HD
ENDBRANCH  15  16
ENDBRANCH   2  15
TORSDOF 5
ENDMDL
MODEL 3
REMARK VINA RESULT:      -7.2      1.081      1.401
REMARK  Name = 
REMARK  6 active torsions:
REMARK  status: ('A' for Active; 'I' for Inactive)
REMARK    1  A    between atoms: C_1  and  N_2
REMARK    2  A    between atoms: N_2  and  C_3
REMARK    3  A    between atoms: C_3  and  C_4
REMARK    4  A    between atoms: C_9  and  C_11
REMARK    5  A    between atoms: N_14  and  C_15
REMARK    6  A    between atoms: C_15  and  C_16
REMARK                            x       y       z     vdW  Elec       q    Type
REMARK                         _______ _______ _______ _____ _____    ______ ____
ROOT
ATOM      1  C   UNL     1       8.080   7.235  18.541  0.00  0.00    +0.000 C 
ATOM      2  N   UNL     1       6.904   6.456  18.172  0.00  0.00    +0.000 N 
ATOM      3  C   UNL     1       6.464   5.490  19.085  0.00  0.00    +0.000 C 
ATOM      4  O   UNL     1       7.120   5.271  20.111  0.00  0.00    +0.000 OA
ENDROOT
BRANCH   3   5
ATOM      5  C   UNL     1       5.196   4.741  18.905  0.00  0.00    +0.000 A 
ATOM      6  C   UNL     1       5.164   3.381  18.471  0.00  0.00    +0.000 A 
ATOM      7  C   UNL     1       3.855   2.988  18.559  0.00  0.00    +0.000 A 
ATOM      8  N   UNL     1       3.155   4.133  18.778  0.00  0.00    +0.000 N 
ATOM      9  N   UNL     1       3.936   5.186  19.097  0.00  0.00    +0.000 NA
BRANCH   8  10
ATOM     10  C   UNL     1       1.717   4.263  18.733  0.00  0.00    +0.000 C 
BRANCH  10  11
ATOM     11  C   UNL     1       1.033   3.485  19.835  0.00  0.00    +0.000 C 
ATOM     12  F   UNL     1       1.873   2.954  20.747  0.00  0.00    +0.000 F 
ATOM     13  F   UNL     1       0.178   4.293  20.514  0.00  0.00    +0.000 F 
ATOM     14  F   UNL     1       0.293   2.471  19.329  0.00  0.00    +0.000 F 
ENDBRANCH  10  11
ENDBRANCH   8  10
ENDBRANCH   3   5
BRANCH   2  15
ATOM     15  C   UNL     1       6.205   6.892  16.961  0.00  0.00    +0.000 C 
BRANCH  15  16
ATOM     16  C   UNL     1       6.276   5.889  15.847  0.00  0.00    +0.000 A 
ATOM     17  C   UNL     1       5.205   5.203  15.216  0.00  0.00    +0.000 A 
ATOM     18  C   UNL     1       5.800   4.297  14.376  0.00  0.00    +0.000 A 
ATOM     19  N   UNL     1       7.143   4.487  14.511  0.00  0.00    +0.000 N 
ATOM     20  N   UNL     1       7.462   5.446  15.390  0.00  0.00    +0.000 NA
ATOM     21  H   UNL     1       7.893   3.980  14.048  0.00  0.00    +0.000 HD
ENDBRANCH  15  16
ENDBRANCH   2  15
TORSDOF 5
ENDMDL
MODEL 4
REMARK VINA RESULT:      -7.1      1.277      1.505
REMARK  Name = 
REMARK  6 active torsions:
REMARK  status: ('A' for Active; 'I' for Inactive)
REMARK    1  A    between atoms: C_1  and  N_2
REMARK    2  A    between atoms: N_2  and  C_3
REMARK    3  A    between atoms: C_3  and  C_4
REMARK    4  A    between atoms: C_9  and  C_11
REMARK    5  A    between atoms: N_14  and  C_15
REMARK    6  A    between atoms: C_15  and  C_16
REMARK                            x       y       z     vdW  Elec       q    Type
REMARK                         _______ _______ _______ _____ _____    ______ ____
ROOT
ATOM      1  C   UNL     1       7.543   7.205  17.909  0.00  0.00    +0.000 C 
ATOM      2  N   UNL     1       6.490   6.199  17.848  0.00  0.00    +0.000 N 
ATOM      3  C   UNL     1       6.335   5.366  18.962  0.00  0.00    +0.000 C 
ATOM      4  O   UNL     1       7.130   5.448  19.906  0.00  0.00    +0.000 OA
ENDROOT
BRANCH   3   5
ATOM      5  C   UNL     1       5.207   4.410  19.092  0.00  0.00    +0.000 A 
ATOM      6  C   UNL     1       5.012   3.327  18.181  0.00  0.00    +0.000 A 
ATOM      7  C   UNL     1       3.979   2.587  18.691  0.00  0.00    +0.000 A 
ATOM      8  N   UNL     1       3.453   3.351  19.686  0.00  0.00    +0.000 N 
ATOM      9  N   UNL     1       4.231   4.401  20.023  0.00  0.00    +0.000 NA
BRANCH   8  10
ATOM     10  C   UNL     1       2.213   3.092  20.381  0.00  0.00    +0.000 C 
BRANCH  10  11
ATOM     11  C   UNL     1       1.006   3.576  19.609  0.00  0.00    +0.000 C 
ATOM     12  F   UNL     1       0.194   2.593  19.169  0.00  0.00    +0.000 F 
ATOM     13  F   UNL     1       0.249   4.389  20.391  0.00  0.00    +0.000 F 
ATOM     14  F   UNL     1       1.378   4.306  18.532  0.00  0.00    +0.000 F 
ENDBRANCH  10  11
ENDBRANCH   8  10
ENDBRANCH   3   5
BRANCH   2  15
ATOM     15  C   UNL     1       5.593   6.285  16.693  0.00  0.00    +0.000 C 
BRANCH  15  16
ATOM     16  C   UNL     1       6.086   5.512  15.505  0.00  0.00    +0.000 A 
ATOM     17  C   UNL     1       5.394   4.528  14.751  0.00  0.00    +0.000 A 
ATOM     18  C   UNL     1       6.321   4.021  13.877  0.00  0.00    +0.000 A 
ATOM     19  N   UNL     1       7.472   4.712  14.113  0.00  0.00    +0.000 N 
ATOM     20  N   UNL     1       7.361   5.622  15.089  0.00  0.00    +0.000 NA
ATOM     21  H   UNL     1       8.374   4.592  13.658  0.00  0.00    +0.000 HD
ENDBRANCH  15  16
ENDBRANCH   2  15
TORSDOF 5
ENDMDL
MODEL 5
REMARK VINA RESULT:      -7.1      1.403      1.573
REMARK  Name = 
REMARK  6 active torsions:
REMARK  status: ('A' for Active; 'I' for Inactive)
REMARK    1  A    between atoms: C_1  and  N_2
REMARK    2  A    between atoms: N_2  and  C_3
REMARK    3  A    between atoms: C_3  and  C_4
REMARK    4  A    between atoms: C_9  and  C_11
REMARK    5  A    between atoms: N_14  and  C_15
REMARK    6  A    between atoms: C_15  and  C_16
REMARK                            x       y       z     vdW  Elec       q    Type
REMARK                         _______ _______ _______ _____ _____    ______ ____
ROOT
ATOM      1  C   UNL     1       6.095   7.528  16.983  0.00  0.00    +0.000 C 
ATOM      2  N   UNL     1       5.596   6.229  17.417  0.00  0.00    +0.000 N 
ATOM      3  C   UNL     1       4.303   6.187  17.950  0.00  0.00    +0.000 C 
ATOM      4  O   UNL     1       3.670   7.238  18.115  0.00  0.00    +0.000 OA
ENDROOT
BRANCH   3   5
ATOM      5  C   UNL     1       3.619   4.912  18.283  0.00  0.00    +0.000 A 
ATOM      6  C   UNL     1       2.891   4.156  17.314  0.00  0.00    +0.000 A 
ATOM      7  C   UNL     1       2.529   2.992  17.937  0.00  0.00    +0.000 A 
ATOM      8  N   UNL     1       2.808   3.193  19.253  0.00  0.00    +0.000 N 
ATOM      9  N   UNL     1       3.560   4.291  19.480  0.00  0.00    +0.000 NA
BRANCH   8  10
ATOM     10  C   UNL     1       2.407   2.330  20.340  0.00  0.00    +0.000 C 
BRANCH  10  11
ATOM     11  C   UNL     1       1.572   3.054  21.373  0.00  0.00    +0.000 C 
ATOM     12  F   UNL     1       0.875   2.243  22.195  0.00  0.00    +0.000 F 
ATOM     13  F   UNL     1       2.368   3.821  22.162  0.00  0.00    +0.000 F 
ATOM     14  F   UNL     1       0.686   3.890  20.784  0.00  0.00    +0.000 F 
ENDBRANCH  10  11
ENDBRANCH   8  10
ENDBRANCH   3   5
BRANCH   2  15
ATOM     15  C   UNL     1       6.439   5.078  17.085  0.00  0.00    +0.000 C 
BRANCH  15  16
ATOM     16  C   UNL     1       6.571   4.851  15.607  0.00  0.00    +0.000 A 
ATOM     17  C   UNL     1       5.823   3.965  14.788  0.00  0.00    +0.000 A 
ATOM     18  C   UNL     1       6.424   4.017  13.555  0.00  0.00    +0.000 A 
ATOM     19  N   UNL     1       7.444   4.913  13.675  0.00  0.00    +0.000 N 
ATOM     20  N   UNL     1       7.556   5.436  14.903  0.00  0.00    +0.000 NA
ATOM     21  H   UNL     1       8.114   5.192  12.962  0.00  0.00    +0.000 HD
ENDBRANCH  15  16
ENDBRANCH   2  15
TORSDOF 5
ENDMDL
MODEL 6
REMARK VINA RESULT:      -7.1      1.351      1.559
REMARK  Name = 
REMARK  6 active torsions:
REMARK  status: ('A' for Active; 'I' for Inactive)
REMARK    1  A    between atoms: C_1  and  N_2
REMARK    2  A    between atoms: N_2  and  C_3
REMARK    3  A    between atoms: C_3  and  C_4
REMARK    4  A    between atoms: C_9  and  C_11
REMARK    5  A    between atoms: N_14  and  C_15
REMARK    6  A    between atoms: C_15  and  C_16
REMARK                            x       y       z     vdW  Elec       q    Type
REMARK                         _______ _______ _______ _____ _____    ______ ____
ROOT
ATOM      1  C   UNL     1       8.099   6.193  18.889  0.00  0.00    +0.000 C 
ATOM      2  N   UNL     1       6.760   5.993  18.350  0.00  0.00    +0.000 N 
ATOM      3  C   UNL     1       5.852   5.281  19.141  0.00  0.00    +0.000 C 
ATOM      4  O   UNL     1       6.227   4.779  20.208  0.00  0.00    +0.000 OA
ENDROOT
BRANCH   3   5
ATOM      5  C   UNL     1       4.418   5.142  18.782  0.00  0.00    +0.000 A 
ATOM      6  C   UNL     1       3.491   6.222  18.895  0.00  0.00    +0.000 A 
ATOM      7  C   UNL     1       2.320   5.774  18.347  0.00  0.00    +0.000 A 
ATOM      8  N   UNL     1       2.499   4.436  18.174  0.00  0.00    +0.000 N 
ATOM      9  N   UNL     1       3.781   4.044  18.324  0.00  0.00    +0.000 NA
BRANCH   8  10
ATOM     10  C   UNL     1       1.468   3.488  17.820  0.00  0.00    +0.000 C 
BRANCH  10  11
ATOM     11  C   UNL     1       1.029   2.647  18.998  0.00  0.00    +0.000 C 
ATOM     12  F   UNL     1       2.003   1.881  19.531  0.00  0.00    +0.000 F 
ATOM     13  F   UNL     1       0.569   3.446  19.995  0.00  0.00    +0.000 F 
ATOM     14  F   UNL     1       0.010   1.824  18.656  0.00  0.00    +0.000 F 
ENDBRANCH  10  11
ENDBRANCH   8  10
ENDBRANCH   3   5
BRANCH   2  15
ATOM     15  C   UNL     1       6.457   6.713  17.110  0.00  0.00    +0.000 C 
BRANCH  15  16
ATOM     16  C   UNL     1       6.397   5.817  15.908  0.00  0.00    +0.000 A 
ATOM     17  C   UNL     1       5.254   5.208  15.327  0.00  0.00    +0.000 A 
ATOM     18  C   UNL     1       5.743   4.375  14.353  0.00  0.00    +0.000 A 
ATOM     19  N   UNL     1       7.097   4.533  14.372  0.00  0.00    +0.000 N 
ATOM     20  N   UNL     1       7.522   5.401  15.299  0.00  0.00    +0.000 NA
ATOM     21  H   UNL     1       7.787   4.059  13.793  0.00  0.00    +0.000 HD
ENDBRANCH  15  16
ENDBRANCH   2  15
TORSDOF 5
ENDMDL
MODEL 7
REMARK VINA RESULT:      -7.1      1.383      1.742
REMARK  Name = 
REMARK  6 active torsions:
REMARK  status: ('A' for Active; 'I' for Inactive)
REMARK    1  A    between atoms: C_1  and  N_2
REMARK    2  A    between atoms: N_2  and  C_3
REMARK    3  A    between atoms: C_3  and  C_4
REMARK    4  A    between atoms: C_9  and  C_11
REMARK    5  A    between atoms: N_14  and  C_15
REMARK    6  A    between atoms: C_15  and  C_16
REMARK                            x       y       z     vdW  Elec       q    Type
REMARK                         _______ _______ _______ _____ _____    ______ ____
ROOT
ATOM      1  C   UNL     1       6.878   7.464  17.107  0.00  0.00    +0.000 C 
ATOM      2  N   UNL     1       6.233   6.196  17.426  0.00  0.00    +0.000 N 
ATOM      3  C   UNL     1       4.948   6.254  17.979  0.00  0.00    +0.000 C 
ATOM      4  O   UNL     1       4.446   7.352  18.254  0.00  0.00    +0.000 OA
ENDROOT
BRANCH   3   5
ATOM      5  C   UNL     1       4.122   5.042  18.204  0.00  0.00    +0.000 A 
ATOM      6  C   UNL     1       3.404   4.398  17.151  0.00  0.00    +0.000 A 
ATOM      7  C   UNL     1       2.884   3.253  17.693  0.00  0.00    +0.000 A 
ATOM      8  N   UNL     1       3.077   3.378  19.034  0.00  0.00    +0.000 N 
ATOM      9  N   UNL     1       3.910   4.387  19.364  0.00  0.00    +0.000 NA
BRANCH   8  10
ATOM     10  C   UNL     1       2.511   2.520  20.050  0.00  0.00    +0.000 C 
BRANCH  10  11
ATOM     11  C   UNL     1       1.187   3.036  20.568  0.00  0.00    +0.000 C 
ATOM     12  F   UNL     1       1.122   4.377  20.696  0.00  0.00    +0.000 F 
ATOM     13  F   UNL     1       0.185   2.673  19.727  0.00  0.00    +0.000 F 
ATOM     14  F   UNL     1       0.895   2.500  21.776  0.00  0.00    +0.000 F 
ENDBRANCH  10  11
ENDBRANCH   8  10
ENDBRANCH   3   5
BRANCH   2  15
ATOM     15  C   UNL     1       6.932   4.992  16.970  0.00  0.00    +0.000 C 
BRANCH  15  16
ATOM     16  C   UNL     1       6.871   4.803  15.483  0.00  0.00    +0.000 A 
ATOM     17  C   UNL     1       6.097   3.866  14.750  0.00  0.00    +0.000 A 
ATOM     18  C   UNL     1       6.509   3.995  13.448  0.00  0.00    +0.000 A 
ATOM     19  N   UNL     1       7.451   4.979  13.450  0.00  0.00    +0.000 N 
ATOM     20  N   UNL     1       7.690   5.490  14.665  0.00  0.00    +0.000 NA
ATOM     21  H   UNL     1       7.985   5.332  12.659  0.00  0.00    +0.000 HD
ENDBRANCH  15  16
ENDBRANCH   2  15
TORSDOF 5
ENDMDL
MODEL 8
REMARK VINA RESULT:      -7.0      1.901      3.168
REMARK  Name = 
REMARK  6 active torsions:
REMARK  status: ('A' for Active; 'I' for Inactive)
REMARK    1  A    between atoms: C_1  and  N_2
REMARK    2  A    between atoms: N_2  and  C_3
REMARK    3  A    between atoms: C_3  and  C_4
REMARK    4  A    between atoms: C_9  and  C_11
REMARK    5  A    between atoms: N_14  and  C_15
REMARK    6  A    between atoms: C_15  and  C_16
REMARK                            x       y       z     vdW  Elec       q    Type
REMARK                         _______ _______ _______ _____ _____    ______ ____
ROOT
ATOM      1  C   UNL     1       7.052   4.337  15.472  0.00  0.00    +0.000 C 
ATOM      2  N   UNL     1       6.345   4.662  16.704  0.00  0.00    +0.000 N 
ATOM      3  C   UNL     1       4.949   4.564  16.686  0.00  0.00    +0.000 C 
ATOM      4  O   UNL     1       4.365   4.296  15.628  0.00  0.00    +0.000 OA
ENDROOT
BRANCH   3   5
ATOM      5  C   UNL     1       4.123   4.716  17.909  0.00  0.00    +0.000 A 
ATOM      6  C   UNL     1       3.527   5.959  18.283  0.00  0.00    +0.000 A 
ATOM      7  C   UNL     1       2.734   5.687  19.366  0.00  0.00    +0.000 A 
ATOM      8  N   UNL     1       3.068   4.422  19.740  0.00  0.00    +0.000 N 
ATOM      9  N   UNL     1       3.817   3.773  18.825  0.00  0.00    +0.000 NA
BRANCH   8  10
ATOM     10  C   UNL     1       2.653   3.767  20.960  0.00  0.00    +0.000 C 
BRANCH  10  11
ATOM     11  C   UNL     1       1.378   2.972  20.783  0.00  0.00    +0.000 C 
ATOM     12  F   UNL     1       0.819   2.552  21.936  0.00  0.00    +0.000 F 
ATOM     13  F   UNL     1       0.445   3.725  20.146  0.00  0.00    +0.000 F 
ATOM     14  F   UNL     1       1.589   1.879  20.014  0.00  0.00    +0.000 F 
ENDBRANCH  10  11
ENDBRANCH   8  10
ENDBRANCH   3   5
BRANCH   2  15
ATOM     15  C   UNL     1       7.187   4.888  17.881  0.00  0.00    +0.000 C 
BRANCH  15  16
ATOM     16  C   UNL     1       7.548   6.331  18.079  0.00  0.00    +0.000 A 
ATOM     17  C   UNL     1       7.200   7.441  17.265  0.00  0.00    +0.000 A 
ATOM     18  C   UNL     1       7.894   8.504  17.785  0.00  0.00    +0.000 A 
ATOM     19  N   UNL     1       8.577   8.015  18.858  0.00  0.00    +0.000 N 
ATOM     20  N   UNL     1       8.386   6.705  19.063  0.00  0.00    +0.000 NA
ATOM     21  H   UNL     1       9.209   8.519  19.475  0.00  0.00    +0.000 HD
ENDBRANCH  15  16
ENDBRANCH   2  15
TORSDOF 5
ENDMDL
MODEL 9
REMARK VINA RESULT:      -6.9      3.580      4.589
REMARK  Name = 
REMARK  6 active torsions:
REMARK  status: ('A' for Active; 'I' for Inactive)
REMARK    1  A    between atoms: C_1  and  N_2
REMARK    2  A    between atoms: N_2  and  C_3
REMARK    3  A    between atoms: C_3  and  C_4
REMARK    4  A    between atoms: C_9  and  C_11
REMARK    5  A    between atoms: N_14  and  C_15
REMARK    6  A    between atoms: C_15  and  C_16
REMARK                            x       y       z     vdW  Elec       q    Type
REMARK                         _______ _______ _______ _____ _____    ______ ____
ROOT
ATOM      1  C   UNL     1       3.758   2.305  18.932  0.00  0.00    +0.000 C 
ATOM      2  N   UNL     1       3.711   3.755  19.082  0.00  0.00    +0.000 N 
ATOM      3  C   UNL     1       2.449   4.359  19.063  0.00  0.00    +0.000 C 
ATOM      4  O   UNL     1       1.442   3.674  18.837  0.00  0.00    +0.000 OA
ENDROOT
BRANCH   3   5
ATOM      5  C   UNL     1       2.249   5.799  19.360  0.00  0.00    +0.000 A 
ATOM      6  C   UNL     1       2.578   6.828  18.425  0.00  0.00    +0.000 A 
ATOM      7  C   UNL     1       2.131   7.998  18.978  0.00  0.00    +0.000 A 
ATOM      8  N   UNL     1       1.808   7.682  20.262  0.00  0.00    +0.000 N 
ATOM      9  N   UNL     1       1.766   6.353  20.492  0.00  0.00    +0.000 NA
BRANCH   8  10
ATOM     10  C   UNL     1       1.487   8.627  21.306  0.00  0.00    +0.000 C 
BRANCH  10  11
ATOM     11  C   UNL     1       0.008   8.936  21.370  0.00  0.00    +0.000 C 
ATOM     12  F   UNL     1      -0.782   7.855  21.534  0.00  0.00    +0.000 F 
ATOM     13  F   UNL     1      -0.249   9.770  22.410  0.00  0.00    +0.000 F 
ATOM     14  F   UNL     1      -0.406   9.572  20.249  0.00  0.00    +0.000 F 
ENDBRANCH  10  11
ENDBRANCH   8  10
ENDBRANCH   3   5
BRANCH   2  15
ATOM     15  C   UNL     1       4.982   4.403  19.413  0.00  0.00    +0.000 C 
BRANCH  15  16
ATOM     16  C   UNL     1       5.894   4.550  18.231  0.00  0.00    +0.000 A 
ATOM     17  C   UNL     1       5.542   4.624  16.858  0.00  0.00    +0.000 A 
ATOM     18  C   UNL     1       6.733   4.601  16.176  0.00  0.00    +0.000 A 
ATOM     19  N   UNL     1       7.706   4.544  17.129  0.00  0.00    +0.000 N 
ATOM     20  N   UNL     1       7.231   4.516  18.380  0.00  0.00    +0.000 NA
ATOM     21  H   UNL     1       8.713   4.499  16.988  0.00  0.00    +0.000 HD
ENDBRANCH  15  16
ENDBRANCH   2  15
TORSDOF 5
ENDMDL
