MODEL 1
REMARK VINA RESULT:      -7.9      0.000      0.000
REMARK  Name = 
REMARK  8 active torsions:
REMARK  status: ('A' for Active; 'I' for Inactive)
REMARK    1  A    between atoms: C_1  and  C_2
REMARK    2  A    between atoms: C_2  and  O_3
REMARK    3  A    between atoms: O_3  and  C_4
REMARK    4  A    between atoms: C_4  and  C_6
REMARK    5  A    between atoms: N_8  and  C_9
REMARK    6  A    between atoms: C_9  and  C_10
REMARK    7  A    between atoms: C_10  and  C_11
REMARK    8  A    between atoms: C_11  and  C_12
REMARK                            x       y       z     vdW  Elec       q    Type
REMARK                         _______ _______ _______ _____ _____    ______ ____
ROOT
ATOM      1  C   UNL     1       5.714   6.126  17.474  0.00  0.00    +0.000 A 
ATOM      2  C   UNL     1       4.513   6.722  17.446  0.00  0.00    +0.000 A 
ATOM      3  N   UNL     1       3.338   6.248  18.025  0.00  0.00    +0.000 N 
ATOM      4  C   UNL     1       3.382   5.045  18.769  0.00  0.00    +0.000 A 
ATOM      5  C   UNL     1       2.283   4.520  19.467  0.00  0.00    +0.000 A 
ATOM      6  C   UNL     1       2.402   3.366  20.249  0.00  0.00    +0.000 A 
ATOM      7 CL   UNL     1       1.044   2.809  21.148  0.00  0.00    +0.000 Cl
ATOM      8  C   UNL     1       3.606   2.678  20.327  0.00  0.00    +0.000 A 
ATOM      9  C   UNL     1       4.700   3.144  19.609  0.00  0.00    +0.000 A 
ATOM     10  C   UNL     1       4.589   4.319  18.849  0.00  0.00    +0.000 A 
ATOM     11  C   UNL     1       5.792   4.801  18.131  0.00  0.00    +0.000 A 
ATOM     12  O   UNL     1       6.789   4.088  18.082  0.00  0.00    +0.000 OA
ENDROOT
BRANCH   1  13
ATOM     13  C   UNL     1       6.858   6.779  16.808  0.00  0.00    +0.000 C 
ATOM     14  O   UNL     1       7.540   6.249  15.941  0.00  0.00    +0.000 OA
BRANCH  13  15
ATOM     15  O   UNL     1       7.064   8.012  17.328  0.00  0.00    +0.000 OA
BRANCH  15  17
ATOM     16  C   UNL     1       8.533   9.647  18.271  0.00  0.00    +0.000 C 
ATOM     17  C   UNL     1       8.237   8.162  18.133  0.00  0.00    +0.000 C 
ENDBRANCH  15  17
ENDBRANCH  13  15
ENDBRANCH   1  13
BRANCH   3  18
ATOM     18  C   UNL     1       2.098   7.048  18.006  0.00  0.00    +0.000 C 
BRANCH  18  19
ATOM     19  C   UNL     1       2.148   8.226  18.987  0.00  0.00    +0.000 C 
BRANCH  19  20
ATOM     20  C   UNL     1       1.681   7.874  20.402  0.00  0.00    +0.000 C 
BRANCH  20  21
ATOM     21  C   UNL     1       0.789   8.955  20.960  0.00  0.00    +0.000 A 
ATOM     22  C   UNL     1       0.241   9.933  20.116  0.00  0.00    +0.000 A 
ATOM     23  C   UNL     1      -0.548  10.963  20.640  0.00  0.00    +0.000 A 
ATOM     24  C   UNL     1      -0.789  11.021  22.013  0.00  0.00    +0.000 A 
ATOM     25  C   UNL     1      -0.250  10.055  22.854  0.00  0.00    +0.000 A 
ATOM     26  C   UNL     1       0.536   9.027  22.333  0.00  0.00    +0.000 A 
ENDBRANCH  20  21
ENDBRANCH  19  20
ENDBRANCH  18  19
ENDBRANCH   3  18
TORSDOF 7
ENDMDL
MODEL 2
REMARK VINA RESULT:      -7.8      1.912      2.211
REMARK  Name = 
REMARK  8 active torsions:
REMARK  status: ('A' for Active; 'I' for Inactive)
REMARK    1  A    between atoms: C_1  and  C_2
REMARK    2  A    between atoms: C_2  and  O_3
REMARK    3  A    between atoms: O_3  and  C_4
REMARK    4  A    between atoms: C_4  and  C_6
REMARK    5  A    between atoms: N_8  and  C_9
REMARK    6  A    between atoms: C_9  and  C_10
REMARK    7  A    between atoms: C_10  and  C_11
REMARK    8  A    between atoms: C_11  and  C_12
REMARK                            x       y       z     vdW  Elec       q    Type
REMARK                         _______ _______ _______ _____ _____    ______ ____
ROOT
ATOM      1  C   UNL     1       5.579   6.064  16.933  0.00  0.00    +0.000 A 
ATOM      2  C   UNL     1       4.628   6.828  17.491  0.00  0.00    +0.000 A 
ATOM      3  N   UNL     1       3.382   6.404  17.943  0.00  0.00    +0.000 N 
ATOM      4  C   UNL     1       3.064   5.027  17.871  0.00  0.00    +0.000 A 
ATOM      5  C   UNL     1       1.876   4.473  18.376  0.00  0.00    +0.000 A 
ATOM      6  C   UNL     1       1.645   3.094  18.346  0.00  0.00    +0.000 A 
ATOM      7 CL   UNL     1       0.208   2.460  19.049  0.00  0.00    +0.000 Cl
ATOM      8  C   UNL     1       2.571   2.228  17.777  0.00  0.00    +0.000 A 
ATOM      9  C   UNL     1       3.735   2.749  17.225  0.00  0.00    +0.000 A 
ATOM     10  C   UNL     1       3.980   4.130  17.282  0.00  0.00    +0.000 A 
ATOM     11  C   UNL     1       5.252   4.636  16.717  0.00  0.00    +0.000 A 
ATOM     12  O   UNL     1       5.969   3.875  16.076  0.00  0.00    +0.000 OA
ENDROOT
BRANCH   1  13
ATOM     13  C   UNL     1       6.851   6.686  16.516  0.00  0.00    +0.000 C 
ATOM     14  O   UNL     1       7.647   6.166  15.746  0.00  0.00    +0.000 OA
BRANCH  13  15
ATOM     15  O   UNL     1       7.021   7.874  17.142  0.00  0.00    +0.000 OA
BRANCH  15  17
ATOM     16  C   UNL     1       8.487   9.410  18.243  0.00  0.00    +0.000 C 
ATOM     17  C   UNL     1       8.121   7.947  18.054  0.00  0.00    +0.000 C 
ENDBRANCH  15  17
ENDBRANCH  13  15
ENDBRANCH   1  13
BRANCH   3  18
ATOM     18  C   UNL     1       2.459   7.330  18.629  0.00  0.00    +0.000 C 
BRANCH  18  19
ATOM     19  C   UNL     1       1.906   8.406  17.688  0.00  0.00    +0.000 C 
BRANCH  19  20
ATOM     20  C   UNL     1       1.712   9.771  18.354  0.00  0.00    +0.000 C 
BRANCH  20  21
ATOM     21  C   UNL     1       0.259  10.175  18.346  0.00  0.00    +0.000 A 
ATOM     22  C   UNL     1      -0.652   9.539  17.488  0.00  0.00    +0.000 A 
ATOM     23  C   UNL     1      -1.990   9.945  17.447  0.00  0.00    +0.000 A 
ATOM     24  C   UNL     1      -2.423  10.992  18.262  0.00  0.00    +0.000 A 
ATOM     25  C   UNL     1      -1.526  11.625  19.114  0.00  0.00    +0.000 A 
ATOM     26  C   UNL     1      -0.191  11.220  19.157  0.00  0.00    +0.000 A 
ENDBRANCH  20  21
ENDBRANCH  19  20
ENDBRANCH  18  19
ENDBRANCH   3  18
TORSDOF 7
ENDMDL
MODEL 3
REMARK VINA RESULT:      -7.8      1.759      2.413
REMARK  Name = 
REMARK  8 active torsions:
REMARK  status: ('A' for Active; 'I' for Inactive)
REMARK    1  A    between atoms: C_1  and  C_2
REMARK    2  A    between atoms: C_2  and  O_3
REMARK    3  A    between atoms: O_3  and  C_4
REMARK    4  A    between atoms: C_4  and  C_6
REMARK    5  A    between atoms: N_8  and  C_9
REMARK    6  A    between atoms: C_9  and  C_10
REMARK    7  A    between atoms: C_10  and  C_11
REMARK    8  A    between atoms: C_11  and  C_12
REMARK                            x       y       z     vdW  Elec       q    Type
REMARK                         _______ _______ _______ _____ _____    ______ ____
ROOT
ATOM      1  C   UNL     1       4.622   5.906  16.964  0.00  0.00    +0.000 A 
ATOM      2  C   UNL     1       3.881   6.736  17.714  0.00  0.00    +0.000 A 
ATOM      3  N   UNL     1       2.998   6.374  18.728  0.00  0.00    +0.000 N 
ATOM      4  C   UNL     1       2.878   5.006  19.069  0.00  0.00    +0.000 A 
ATOM      5  C   UNL     1       2.088   4.533  20.130  0.00  0.00    +0.000 A 
ATOM      6  C   UNL     1       2.063   3.177  20.471  0.00  0.00    +0.000 A 
ATOM      7 CL   UNL     1       1.140   2.662  21.829  0.00  0.00    +0.000 Cl
ATOM      8  C   UNL     1       2.792   2.245  19.743  0.00  0.00    +0.000 A 
ATOM      9  C   UNL     1       3.545   2.673  18.657  0.00  0.00    +0.000 A 
ATOM     10  C   UNL     1       3.594   4.038  18.333  0.00  0.00    +0.000 A 
ATOM     11  C   UNL     1       4.441   4.454  17.192  0.00  0.00    +0.000 A 
ATOM     12  O   UNL     1       4.937   3.597  16.468  0.00  0.00    +0.000 OA
ENDROOT
BRANCH   1  13
ATOM     13  C   UNL     1       5.513   6.470  15.932  0.00  0.00    +0.000 C 
ATOM     14  O   UNL     1       5.119   7.047  14.928  0.00  0.00    +0.000 OA
BRANCH  13  15
ATOM     15  O   UNL     1       6.807   6.211  16.235  0.00  0.00    +0.000 OA
BRANCH  15  17
ATOM     16  C   UNL     1       7.701   8.011  17.531  0.00  0.00    +0.000 C 
ATOM     17  C   UNL     1       7.223   6.568  17.556  0.00  0.00    +0.000 C 
ENDBRANCH  15  17
ENDBRANCH  13  15
ENDBRANCH   1  13
BRANCH   3  18
ATOM     18  C   UNL     1       2.312   7.392  19.547  0.00  0.00    +0.000 C 
BRANCH  18  19
ATOM     19  C   UNL     1       1.772   8.553  18.703  0.00  0.00    +0.000 C 
BRANCH  19  20
ATOM     20  C   UNL     1       1.039   9.622  19.518  0.00  0.00    +0.000 C 
BRANCH  20  21
ATOM     21  C   UNL     1      -0.072  10.248  18.711  0.00  0.00    +0.000 A 
ATOM     22  C   UNL     1      -0.430  11.590  18.913  0.00  0.00    +0.000 A 
ATOM     23  C   UNL     1      -1.491  12.157  18.198  0.00  0.00    +0.000 A 
ATOM     24  C   UNL     1      -2.200  11.382  17.279  0.00  0.00    +0.000 A 
ATOM     25  C   UNL     1      -1.849  10.054  17.073  0.00  0.00    +0.000 A 
ATOM     26  C   UNL     1      -0.791   9.487  17.785  0.00  0.00    +0.000 A 
ENDBRANCH  20  21
ENDBRANCH  19  20
ENDBRANCH  18  19
ENDBRANCH   3  18
TORSDOF 7
ENDMDL
MODEL 4
REMARK VINA RESULT:      -7.7      3.055      5.483
REMARK  Name = 
REMARK  8 active torsions:
REMARK  status: ('A' for Active; 'I' for Inactive)
REMARK    1  A    between atoms: C_1  and  C_2
REMARK    2  A    between atoms: C_2  and  O_3
REMARK    3  A    between atoms: O_3  and  C_4
REMARK    4  A    between atoms: C_4  and  C_6
REMARK    5  A    between atoms: N_8  and  C_9
REMARK    6  A    between atoms: C_9  and  C_10
REMARK    7  A    between atoms: C_10  and  C_11
REMARK    8  A    between atoms: C_11  and  C_12
REMARK                            x       y       z     vdW  Elec       q    Type
REMARK                         _______ _______ _______ _____ _____    ______ ____
ROOT
ATOM      1  C   UNL     1       5.769   5.220  15.896  0.00  0.00    +0.000 A 
ATOM      2  C   UNL     1       5.792   4.407  16.963  0.00  0.00    +0.000 A 
ATOM      3  N   UNL     1       5.102   4.587  18.159  0.00  0.00    +0.000 N 
ATOM      4  C   UNL     1       4.239   5.702  18.286  0.00  0.00    +0.000 A 
ATOM      5  C   UNL     1       3.429   5.937  19.408  0.00  0.00    +0.000 A 
ATOM      6  C   UNL     1       2.538   7.015  19.450  0.00  0.00    +0.000 A 
ATOM      7 CL   UNL     1       1.511   7.213  20.817  0.00  0.00    +0.000 Cl
ATOM      8  C   UNL     1       2.456   7.914  18.394  0.00  0.00    +0.000 A 
ATOM      9  C   UNL     1       3.280   7.738  17.289  0.00  0.00    +0.000 A 
ATOM     10  C   UNL     1       4.152   6.638  17.234  0.00  0.00    +0.000 A 
ATOM     11  C   UNL     1       4.983   6.468  16.020  0.00  0.00    +0.000 A 
ATOM     12  O   UNL     1       5.012   7.363  15.181  0.00  0.00    +0.000 OA
ENDROOT
BRANCH   1  13
ATOM     13  C   UNL     1       6.563   4.865  14.703  0.00  0.00    +0.000 C 
ATOM     14  O   UNL     1       7.705   5.256  14.500  0.00  0.00    +0.000 OA
BRANCH  13  15
ATOM     15  O   UNL     1       5.832   4.098  13.862  0.00  0.00    +0.000 OA
BRANCH  15  17
ATOM     16  C   UNL     1       5.522   2.835  11.855  0.00  0.00    +0.000 C 
ATOM     17  C   UNL     1       6.477   3.717  12.644  0.00  0.00    +0.000 C 
ENDBRANCH  15  17
ENDBRANCH  13  15
ENDBRANCH   1  13
BRANCH   3  18
ATOM     18  C   UNL     1       5.134   3.567  19.224  0.00  0.00    +0.000 C 
BRANCH  18  19
ATOM     19  C   UNL     1       4.921   2.149  18.681  0.00  0.00    +0.000 C 
BRANCH  19  20
ATOM     20  C   UNL     1       3.860   1.347  19.441  0.00  0.00    +0.000 C 
BRANCH  20  21
ATOM     21  C   UNL     1       2.638   2.190  19.712  0.00  0.00    +0.000 A 
ATOM     22  C   UNL     1       1.779   2.556  18.664  0.00  0.00    +0.000 A 
ATOM     23  C   UNL     1       0.672   3.376  18.907  0.00  0.00    +0.000 A 
ATOM     24  C   UNL     1       0.421   3.836  20.201  0.00  0.00    +0.000 A 
ATOM     25  C   UNL     1       1.267   3.475  21.242  0.00  0.00    +0.000 A 
ATOM     26  C   UNL     1       2.371   2.657  21.002  0.00  0.00    +0.000 A 
ENDBRANCH  20  21
ENDBRANCH  19  20
ENDBRANCH  18  19
ENDBRANCH   3  18
TORSDOF 7
ENDMDL
MODEL 5
REMARK VINA RESULT:      -7.6      1.507      2.089
REMARK  Name = 
REMARK  8 active torsions:
REMARK  status: ('A' for Active; 'I' for Inactive)
REMARK    1  A    between atoms: C_1  and  C_2
REMARK    2  A    between atoms: C_2  and  O_3
REMARK    3  A    between atoms: O_3  and  C_4
REMARK    4  A    between atoms: C_4  and  C_6
REMARK    5  A    between atoms: N_8  and  C_9
REMARK    6  A    between atoms: C_9  and  C_10
REMARK    7  A    between atoms: C_10  and  C_11
REMARK    8  A    between atoms: C_11  and  C_12
REMARK                            x       y       z     vdW  Elec       q    Type
REMARK                         _______ _______ _______ _____ _____    ______ ____
ROOT
ATOM      1  C   UNL     1       4.678   5.933  16.976  0.00  0.00    +0.000 A 
ATOM      2  C   UNL     1       3.869   6.749  17.668  0.00  0.00    +0.000 A 
ATOM      3  N   UNL     1       2.964   6.376  18.658  0.00  0.00    +0.000 N 
ATOM      4  C   UNL     1       2.893   5.015  19.039  0.00  0.00    +0.000 A 
ATOM      5  C   UNL     1       2.084   4.538  20.082  0.00  0.00    +0.000 A 
ATOM      6  C   UNL     1       2.109   3.193  20.466  0.00  0.00    +0.000 A 
ATOM      7 CL   UNL     1       1.156   2.677  21.803  0.00  0.00    +0.000 Cl
ATOM      8  C   UNL     1       2.909   2.275  19.798  0.00  0.00    +0.000 A 
ATOM      9  C   UNL     1       3.685   2.705  18.729  0.00  0.00    +0.000 A 
ATOM     10  C   UNL     1       3.683   4.061  18.363  0.00  0.00    +0.000 A 
ATOM     11  C   UNL     1       4.557   4.482  17.243  0.00  0.00    +0.000 A 
ATOM     12  O   UNL     1       5.121   3.627  16.568  0.00  0.00    +0.000 OA
ENDROOT
BRANCH   1  13
ATOM     13  C   UNL     1       5.583   6.507  15.961  0.00  0.00    +0.000 C 
ATOM     14  O   UNL     1       5.204   7.019  14.916  0.00  0.00    +0.000 OA
BRANCH  13  15
ATOM     15  O   UNL     1       6.874   6.339  16.333  0.00  0.00    +0.000 OA
BRANCH  15  17
ATOM     16  C   UNL     1       7.797   6.395  18.539  0.00  0.00    +0.000 C 
ATOM     17  C   UNL     1       7.353   7.227  17.347  0.00  0.00    +0.000 C 
ENDBRANCH  15  17
ENDBRANCH  13  15
ENDBRANCH   1  13
BRANCH   3  18
ATOM     18  C   UNL     1       2.197   7.385  19.415  0.00  0.00    +0.000 C 
BRANCH  18  19
ATOM     19  C   UNL     1       2.194   8.754  18.726  0.00  0.00    +0.000 C 
BRANCH  19  20
ATOM     20  C   UNL     1       0.940   9.024  17.889  0.00  0.00    +0.000 C 
BRANCH  20  21
ATOM     21  C   UNL     1       0.046  10.033  18.566  0.00  0.00    +0.000 A 
ATOM     22  C   UNL     1       0.395  10.568  19.816  0.00  0.00    +0.000 A 
ATOM     23  C   UNL     1      -0.456  11.469  20.466  0.00  0.00    +0.000 A 
ATOM     24  C   UNL     1      -1.663  11.835  19.868  0.00  0.00    +0.000 A 
ATOM     25  C   UNL     1      -2.014  11.310  18.631  0.00  0.00    +0.000 A 
ATOM     26  C   UNL     1      -1.165  10.412  17.981  0.00  0.00    +0.000 A 
ENDBRANCH  20  21
ENDBRANCH  19  20
ENDBRANCH  18  19
ENDBRANCH   3  18
TORSDOF 7
ENDMDL
MODEL 6
REMARK VINA RESULT:      -7.6      1.593      1.852
REMARK  Name = 
REMARK  8 active torsions:
REMARK  status: ('A' for Active; 'I' for Inactive)
REMARK    1  A    between atoms: C_1  and  C_2
REMARK    2  A    between atoms: C_2  and  O_3
REMARK    3  A    between atoms: O_3  and  C_4
REMARK    4  A    between atoms: C_4  and  C_6
REMARK    5  A    between atoms: N_8  and  C_9
REMARK    6  A    between atoms: C_9  and  C_10
REMARK    7  A    between atoms: C_10  and  C_11
REMARK    8  A    between atoms: C_11  and  C_12
REMARK                            x       y       z     vdW  Elec       q    Type
REMARK                         _______ _______ _______ _____ _____    ______ ____
ROOT
ATOM      1  C   UNL     1       5.845   5.984  17.273  0.00  0.00    +0.000 A 
ATOM      2  C   UNL     1       4.836   6.759  17.699  0.00  0.00    +0.000 A 
ATOM      3  N   UNL     1       3.547   6.342  18.020  0.00  0.00    +0.000 N 
ATOM      4  C   UNL     1       3.241   4.962  17.950  0.00  0.00    +0.000 A 
ATOM      5  C   UNL     1       2.004   4.418  18.332  0.00  0.00    +0.000 A 
ATOM      6  C   UNL     1       1.779   3.037  18.314  0.00  0.00    +0.000 A 
ATOM      7 CL   UNL     1       0.273   2.417  18.868  0.00  0.00    +0.000 Cl
ATOM      8  C   UNL     1       2.764   2.160  17.877  0.00  0.00    +0.000 A 
ATOM      9  C   UNL     1       3.982   2.670  17.445  0.00  0.00    +0.000 A 
ATOM     10  C   UNL     1       4.218   4.054  17.493  0.00  0.00    +0.000 A 
ATOM     11  C   UNL     1       5.545   4.550  17.060  0.00  0.00    +0.000 A 
ATOM     12  O   UNL     1       6.331   3.774  16.524  0.00  0.00    +0.000 OA
ENDROOT
BRANCH   1  13
ATOM     13  C   UNL     1       7.155   6.600  16.985  0.00  0.00    +0.000 C 
ATOM     14  O   UNL     1       7.819   6.360  15.985  0.00  0.00    +0.000 OA
BRANCH  13  15
ATOM     15  O   UNL     1       7.525   7.415  18.000  0.00  0.00    +0.000 OA
BRANCH  15  17
ATOM     16  C   UNL     1       8.769   9.331  18.708  0.00  0.00    +0.000 C 
ATOM     17  C   UNL     1       7.860   8.756  17.633  0.00  0.00    +0.000 C 
ENDBRANCH  15  17
ENDBRANCH  13  15
ENDBRANCH   1  13
BRANCH   3  18
ATOM     18  C   UNL     1       2.553   7.282  18.572  0.00  0.00    +0.000 C 
BRANCH  18  19
ATOM     19  C   UNL     1       2.532   8.618  17.821  0.00  0.00    +0.000 C 
BRANCH  19  20
ATOM     20  C   UNL     1       1.168   9.314  17.833  0.00  0.00    +0.000 C 
BRANCH  20  21
ATOM     21  C   UNL     1       1.149  10.447  18.829  0.00  0.00    +0.000 A 
ATOM     22  C   UNL     1       1.751  11.677  18.521  0.00  0.00    +0.000 A 
ATOM     23  C   UNL     1       1.775  12.712  19.462  0.00  0.00    +0.000 A 
ATOM     24  C   UNL     1       1.197  12.519  20.718  0.00  0.00    +0.000 A 
ATOM     25  C   UNL     1       0.598  11.305  21.028  0.00  0.00    +0.000 A 
ATOM     26  C   UNL     1       0.573  10.272  20.090  0.00  0.00    +0.000 A 
ENDBRANCH  20  21
ENDBRANCH  19  20
ENDBRANCH  18  19
ENDBRANCH   3  18
TORSDOF 7
ENDMDL
MODEL 7
REMARK VINA RESULT:      -7.6      0.881      1.772
REMARK  Name = 
REMARK  8 active torsions:
REMARK  status: ('A' for Active; 'I' for Inactive)
REMARK    1  A    between atoms: C_1  and  C_2
REMARK    2  A    between atoms: C_2  and  O_3
REMARK    3  A    between atoms: O_3  and  C_4
REMARK    4  A    between atoms: C_4  and  C_6
REMARK    5  A    between atoms: N_8  and  C_9
REMARK    6  A    between atoms: C_9  and  C_10
REMARK    7  A    between atoms: C_10  and  C_11
REMARK    8  A    between atoms: C_11  and  C_12
REMARK                            x       y       z     vdW  Elec       q    Type
REMARK                         _______ _______ _______ _____ _____    ______ ____
ROOT
ATOM      1  C   UNL     1       5.677   6.038  17.554  0.00  0.00    +0.000 A 
ATOM      2  C   UNL     1       4.471   6.625  17.515  0.00  0.00    +0.000 A 
ATOM      3  N   UNL     1       3.301   6.157  18.107  0.00  0.00    +0.000 N 
ATOM      4  C   UNL     1       3.355   4.972  18.879  0.00  0.00    +0.000 A 
ATOM      5  C   UNL     1       2.261   4.455  19.591  0.00  0.00    +0.000 A 
ATOM      6  C   UNL     1       2.389   3.321  20.399  0.00  0.00    +0.000 A 
ATOM      7 CL   UNL     1       1.036   2.775  21.313  0.00  0.00    +0.000 Cl
ATOM      8  C   UNL     1       3.598   2.643  20.490  0.00  0.00    +0.000 A 
ATOM      9  C   UNL     1       4.687   3.100  19.759  0.00  0.00    +0.000 A 
ATOM     10  C   UNL     1       4.567   4.257  18.972  0.00  0.00    +0.000 A 
ATOM     11  C   UNL     1       5.765   4.730  18.241  0.00  0.00    +0.000 A 
ATOM     12  O   UNL     1       6.766   4.022  18.207  0.00  0.00    +0.000 OA
ENDROOT
BRANCH   1  13
ATOM     13  C   UNL     1       6.815   6.684  16.871  0.00  0.00    +0.000 C 
ATOM     14  O   UNL     1       7.263   7.782  17.175  0.00  0.00    +0.000 OA
BRANCH  13  15
ATOM     15  O   UNL     1       7.247   5.913  15.845  0.00  0.00    +0.000 OA
BRANCH  15  17
ATOM     16  C   UNL     1       6.451   4.038  14.591  0.00  0.00    +0.000 C 
ATOM     17  C   UNL     1       6.249   5.513  14.901  0.00  0.00    +0.000 C 
ENDBRANCH  15  17
ENDBRANCH  13  15
ENDBRANCH   1  13
BRANCH   3  18
ATOM     18  C   UNL     1       2.056   6.948  18.072  0.00  0.00    +0.000 C 
BRANCH  18  19
ATOM     19  C   UNL     1       2.116   8.172  18.994  0.00  0.00    +0.000 C 
BRANCH  19  20
ATOM     20  C   UNL     1       1.742   7.871  20.448  0.00  0.00    +0.000 C 
BRANCH  20  21
ATOM     21  C   UNL     1       0.842   8.945  21.007  0.00  0.00    +0.000 A 
ATOM     22  C   UNL     1       0.350   9.965  20.178  0.00  0.00    +0.000 A 
ATOM     23  C   UNL     1      -0.446  10.988  20.706  0.00  0.00    +0.000 A 
ATOM     24  C   UNL     1      -0.752  10.995  22.067  0.00  0.00    +0.000 A 
ATOM     25  C   UNL     1      -0.269   9.987  22.893  0.00  0.00    +0.000 A 
ATOM     26  C   UNL     1       0.524   8.967  22.368  0.00  0.00    +0.000 A 
ENDBRANCH  20  21
ENDBRANCH  19  20
ENDBRANCH  18  19
ENDBRANCH   3  18
TORSDOF 7
ENDMDL
MODEL 8
REMARK VINA RESULT:      -7.6      1.664      2.181
REMARK  Name = 
REMARK  8 active torsions:
REMARK  status: ('A' for Active; 'I' for Inactive)
REMARK    1  A    between atoms: C_1  and  C_2
REMARK    2  A    between atoms: C_2  and  O_3
REMARK    3  A    between atoms: O_3  and  C_4
REMARK    4  A    between atoms: C_4  and  C_6
REMARK    5  A    between atoms: N_8  and  C_9
REMARK    6  A    between atoms: C_9  and  C_10
REMARK    7  A    between atoms: C_10  and  C_11
REMARK    8  A    between atoms: C_11  and  C_12
REMARK                            x       y       z     vdW  Elec       q    Type
REMARK                         _______ _______ _______ _____ _____    ______ ____
ROOT
ATOM      1  C   UNL     1       4.674   5.953  16.958  0.00  0.00    +0.000 A 
ATOM      2  C   UNL     1       3.878   6.784  17.645  0.00  0.00    +0.000 A 
ATOM      3  N   UNL     1       2.970   6.431  18.640  0.00  0.00    +0.000 N 
ATOM      4  C   UNL     1       2.883   5.074  19.032  0.00  0.00    +0.000 A 
ATOM      5  C   UNL     1       2.069   4.616  20.080  0.00  0.00    +0.000 A 
ATOM      6  C   UNL     1       2.077   3.274  20.475  0.00  0.00    +0.000 A 
ATOM      7 CL   UNL     1       1.120   2.780  21.817  0.00  0.00    +0.000 Cl
ATOM      8  C   UNL     1       2.864   2.340  19.812  0.00  0.00    +0.000 A 
ATOM      9  C   UNL     1       3.643   2.752  18.738  0.00  0.00    +0.000 A 
ATOM     10  C   UNL     1       3.658   4.105  18.362  0.00  0.00    +0.000 A 
ATOM     11  C   UNL     1       4.534   4.505  17.237  0.00  0.00    +0.000 A 
ATOM     12  O   UNL     1       5.086   3.638  16.567  0.00  0.00    +0.000 OA
ENDROOT
BRANCH   1  13
ATOM     13  C   UNL     1       5.585   6.506  15.937  0.00  0.00    +0.000 C 
ATOM     14  O   UNL     1       5.213   6.981  14.872  0.00  0.00    +0.000 OA
BRANCH  13  15
ATOM     15  O   UNL     1       6.873   6.367  16.330  0.00  0.00    +0.000 OA
BRANCH  15  17
ATOM     16  C   UNL     1       7.802   6.474  18.531  0.00  0.00    +0.000 C 
ATOM     17  C   UNL     1       7.323   7.280  17.335  0.00  0.00    +0.000 C 
ENDBRANCH  15  17
ENDBRANCH  13  15
ENDBRANCH   1  13
BRANCH   3  18
ATOM     18  C   UNL     1       2.219   7.456  19.391  0.00  0.00    +0.000 C 
BRANCH  18  19
ATOM     19  C   UNL     1       1.402   8.372  18.473  0.00  0.00    +0.000 C 
BRANCH  19  20
ATOM     20  C   UNL     1       1.306   9.818  18.967  0.00  0.00    +0.000 C 
BRANCH  20  21
ATOM     21  C   UNL     1      -0.095  10.353  18.800  0.00  0.00    +0.000 A 
ATOM     22  C   UNL     1      -0.846  10.037  17.657  0.00  0.00    +0.000 A 
ATOM     23  C   UNL     1      -2.127  10.572  17.480  0.00  0.00    +0.000 A 
ATOM     24  C   UNL     1      -2.661  11.427  18.445  0.00  0.00    +0.000 A 
ATOM     25  C   UNL     1      -1.922  11.742  19.579  0.00  0.00    +0.000 A 
ATOM     26  C   UNL     1      -0.645  11.210  19.757  0.00  0.00    +0.000 A 
ENDBRANCH  20  21
ENDBRANCH  19  20
ENDBRANCH  18  19
ENDBRANCH   3  18
TORSDOF 7
ENDMDL
MODEL 9
REMARK VINA RESULT:      -7.5      0.839      1.395
REMARK  Name = 
REMARK  8 active torsions:
REMARK  status: ('A' for Active; 'I' for Inactive)
REMARK    1  A    between atoms: C_1  and  C_2
REMARK    2  A    between atoms: C_2  and  O_3
REMARK    3  A    between atoms: O_3  and  C_4
REMARK    4  A    between atoms: C_4  and  C_6
REMARK    5  A    between atoms: N_8  and  C_9
REMARK    6  A    between atoms: C_9  and  C_10
REMARK    7  A    between atoms: C_10  and  C_11
REMARK    8  A    between atoms: C_11  and  C_12
REMARK                            x       y       z     vdW  Elec       q    Type
REMARK                         _______ _______ _______ _____ _____    ______ ____
ROOT
ATOM      1  C   UNL     1       5.781   6.098  17.419  0.00  0.00    +0.000 A 
ATOM      2  C   UNL     1       4.582   6.693  17.327  0.00  0.00    +0.000 A 
ATOM      3  N   UNL     1       3.385   6.236  17.873  0.00  0.00    +0.000 N 
ATOM      4  C   UNL     1       3.399   5.056  18.654  0.00  0.00    +0.000 A 
ATOM      5  C   UNL     1       2.273   4.551  19.324  0.00  0.00    +0.000 A 
ATOM      6  C   UNL     1       2.360   3.421  20.144  0.00  0.00    +0.000 A 
ATOM      7 CL   UNL     1       0.968   2.890  21.005  0.00  0.00    +0.000 Cl
ATOM      8  C   UNL     1       3.560   2.736  20.290  0.00  0.00    +0.000 A 
ATOM      9  C   UNL     1       4.682   3.181  19.601  0.00  0.00    +0.000 A 
ATOM     10  C   UNL     1       4.602   4.333  18.802  0.00  0.00    +0.000 A 
ATOM     11  C   UNL     1       5.832   4.794  18.118  0.00  0.00    +0.000 A 
ATOM     12  O   UNL     1       6.829   4.080  18.131  0.00  0.00    +0.000 OA
ENDROOT
BRANCH   1  13
ATOM     13  C   UNL     1       6.951   6.732  16.780  0.00  0.00    +0.000 C 
ATOM     14  O   UNL     1       7.674   6.172  15.967  0.00  0.00    +0.000 OA
BRANCH  13  15
ATOM     15  O   UNL     1       7.126   7.986  17.258  0.00  0.00    +0.000 OA
BRANCH  15  17
ATOM     16  C   UNL     1       8.570   9.620  18.242  0.00  0.00    +0.000 C 
ATOM     17  C   UNL     1       8.182   8.150  18.209  0.00  0.00    +0.000 C 
ENDBRANCH  15  17
ENDBRANCH  13  15
ENDBRANCH   1  13
BRANCH   3  18
ATOM     18  C   UNL     1       2.147   7.035  17.782  0.00  0.00    +0.000 C 
BRANCH  18  19
ATOM     19  C   UNL     1       2.325   8.453  18.336  0.00  0.00    +0.000 C 
BRANCH  19  20
ATOM     20  C   UNL     1       1.208   9.420  17.934  0.00  0.00    +0.000 C 
BRANCH  20  21
ATOM     21  C   UNL     1       0.850  10.336  19.078  0.00  0.00    +0.000 A 
ATOM     22  C   UNL     1      -0.018   9.904  20.092  0.00  0.00    +0.000 A 
ATOM     23  C   UNL     1      -0.387  10.769  21.128  0.00  0.00    +0.000 A 
ATOM     24  C   UNL     1       0.109  12.073  21.151  0.00  0.00    +0.000 A 
ATOM     25  C   UNL     1       0.970  12.507  20.150  0.00  0.00    +0.000 A 
ATOM     26  C   UNL     1       1.339  11.645  19.117  0.00  0.00    +0.000 A 
ENDBRANCH  20  21
ENDBRANCH  19  20
ENDBRANCH  18  19
ENDBRANCH   3  18
TORSDOF 7
ENDMDL
