MODEL 1
REMARK VINA RESULT:      -9.0      0.000      0.000
REMARK  Name = 
REMARK  7 active torsions:
REMARK  status: ('A' for Active; 'I' for Inactive)
REMARK    1  A    between atoms: C_1  and  C_2
REMARK    2  A    between atoms: C_2  and  O_3
REMARK    3  A    between atoms: O_3  and  C_4
REMARK    4  A    between atoms: C_7  and  C_8
REMARK    5  A    between atoms: C_9  and  C_10
REMARK    6  A    between atoms: N_12  and  N_13
REMARK    7  A    between atoms: C_14  and  C_15
REMARK                            x       y       z     vdW  Elec       q    Type
REMARK                         _______ _______ _______ _____ _____    ______ ____
ROOT
ATOM      1  C   UNL     1       5.169   5.775  18.185  0.00  0.00    +0.000 A 
ATOM      2  C   UNL     1       6.532   6.036  17.995  0.00  0.00    +0.000 A 
ATOM      3  N   UNL     1       7.255   4.889  18.233  0.00  0.00    +0.000 NA
ATOM      4  N   UNL     1       6.418   3.921  18.554  0.00  0.00    +0.000 NA
ATOM      5  N   UNL     1       5.146   4.369  18.366  0.00  0.00    +0.000 N 
ATOM      6  C   UNL     1       4.035   3.486  18.433  0.00  0.00    +0.000 A 
ATOM      7  N   UNL     1       2.901   3.762  17.779  0.00  0.00    +0.000 NA
ATOM      8  O   UNL     1       2.054   2.711  18.116  0.00  0.00    +0.000 OA
ATOM      9  N   UNL     1       2.673   1.821  18.987  0.00  0.00    +0.000 NA
ATOM     10  C   UNL     1       3.903   2.296  19.174  0.00  0.00    +0.000 A 
ATOM     11  N   UNL     1       4.795   1.759  20.025  0.00  0.00    +0.000 N 
ATOM     12  H   UNL     1       4.485   1.031  20.661  0.00  0.00    +0.000 HD
ATOM     13  H   UNL     1       5.635   2.249  20.320  0.00  0.00    +0.000 HD
ENDROOT
BRANCH   1  17
ATOM     14  C   UNL     1       1.770   8.359  18.829  0.00  0.00    +0.000 A 
ATOM     15  C   UNL     1       2.512   8.447  17.659  0.00  0.00    +0.000 A 
ATOM     16  C   UNL     1       3.581   7.572  17.424  0.00  0.00    +0.000 A 
ATOM     17  C   UNL     1       3.995   6.651  18.387  0.00  0.00    +0.000 A 
ATOM     18  C   UNL     1       3.274   6.638  19.598  0.00  0.00    +0.000 A 
ATOM     19  C   UNL     1       2.151   7.450  19.806  0.00  0.00    +0.000 A 
BRANCH  14  20
ATOM     20  O   UNL     1       0.719   9.220  18.925  0.00  0.00    +0.000 OA
BRANCH  20  22
ATOM     21  C   UNL     1      -0.338   9.736  20.984  0.00  0.00    +0.000 C 
ATOM     22  C   UNL     1       0.764  10.134  20.021  0.00  0.00    +0.000 C 
ENDBRANCH  20  22
ENDBRANCH  14  20
ENDBRANCH   1  17
BRANCH   2  23
ATOM     23  C   UNL     1       7.232   7.290  17.689  0.00  0.00    +0.000 C 
ATOM     24  O   UNL     1       6.981   7.985  16.709  0.00  0.00    +0.000 OA
ATOM     25  N   UNL     1       8.233   7.615  18.604  0.00  0.00    +0.000 N 
ATOM     26  H   UNL     1       8.430   7.001  19.386  0.00  0.00    +0.000 HD
BRANCH  25  27
ATOM     27  N   UNL     1       8.946   8.771  18.424  0.00  0.00    +0.000 NA
ATOM     28  C   UNL     1       8.976   9.609  19.407  0.00  0.00    +0.000 C 
BRANCH  28  29
ATOM     29  C   UNL     1       9.731  10.879  19.307  0.00  0.00    +0.000 A 
ATOM     30  C   UNL     1      10.113  11.582  20.459  0.00  0.00    +0.000 A 
ATOM     31  C   UNL     1      10.814  12.791  20.346  0.00  0.00    +0.000 A 
ATOM     32  C   UNL     1      11.123  13.290  19.081  0.00  0.00    +0.000 A 
ATOM     33 CL   UNL     1      11.974  14.779  18.940  0.00  0.00    +0.000 Cl
ATOM     34  C   UNL     1      10.750  12.594  17.931  0.00  0.00    +0.000 A 
ATOM     35  C   UNL     1      10.053  11.386  18.043  0.00  0.00    +0.000 A 
ENDBRANCH  28  29
ENDBRANCH  25  27
ENDBRANCH   2  23
TORSDOF 6
ENDMDL
MODEL 2
REMARK VINA RESULT:      -9.0      0.559      1.025
REMARK  Name = 
REMARK  7 active torsions:
REMARK  status: ('A' for Active; 'I' for Inactive)
REMARK    1  A    between atoms: C_1  and  C_2
REMARK    2  A    between atoms: C_2  and  O_3
REMARK    3  A    between atoms: O_3  and  C_4
REMARK    4  A    between atoms: C_7  and  C_8
REMARK    5  A    between atoms: C_9  and  C_10
REMARK    6  A    between atoms: N_12  and  N_13
REMARK    7  A    between atoms: C_14  and  C_15
REMARK                            x       y       z     vdW  Elec       q    Type
REMARK                         _______ _______ _______ _____ _____    ______ ____
ROOT
ATOM      1  C   UNL     1       5.141   5.748  18.217  0.00  0.00    +0.000 A 
ATOM      2  C   UNL     1       6.501   6.014  18.011  0.00  0.00    +0.000 A 
ATOM      3  N   UNL     1       7.230   4.867  18.227  0.00  0.00    +0.000 NA
ATOM      4  N   UNL     1       6.400   3.894  18.550  0.00  0.00    +0.000 NA
ATOM      5  N   UNL     1       5.124   4.341  18.385  0.00  0.00    +0.000 N 
ATOM      6  C   UNL     1       4.016   3.454  18.458  0.00  0.00    +0.000 A 
ATOM      7  N   UNL     1       2.873   3.733  17.823  0.00  0.00    +0.000 NA
ATOM      8  O   UNL     1       2.033   2.677  18.162  0.00  0.00    +0.000 OA
ATOM      9  N   UNL     1       2.666   1.780  19.015  0.00  0.00    +0.000 NA
ATOM     10  C   UNL     1       3.897   2.256  19.190  0.00  0.00    +0.000 A 
ATOM     11  N   UNL     1       4.803   1.713  20.023  0.00  0.00    +0.000 N 
ATOM     12  H   UNL     1       4.503   0.979  20.656  0.00  0.00    +0.000 HD
ATOM     13  H   UNL     1       5.645   2.203  20.310  0.00  0.00    +0.000 HD
ENDROOT
BRANCH   1  17
ATOM     14  C   UNL     1       1.745   8.316  18.934  0.00  0.00    +0.000 A 
ATOM     15  C   UNL     1       2.490   8.439  17.768  0.00  0.00    +0.000 A 
ATOM     16  C   UNL     1       3.557   7.570  17.508  0.00  0.00    +0.000 A 
ATOM     17  C   UNL     1       3.969   6.620  18.443  0.00  0.00    +0.000 A 
ATOM     18  C   UNL     1       3.245   6.571  19.652  0.00  0.00    +0.000 A 
ATOM     19  C   UNL     1       2.123   7.378  19.883  0.00  0.00    +0.000 A 
BRANCH  14  20
ATOM     20  O   UNL     1       0.695   9.176  19.054  0.00  0.00    +0.000 OA
BRANCH  20  22
ATOM     21  C   UNL     1      -0.392  11.237  18.616  0.00  0.00    +0.000 C 
ATOM     22  C   UNL     1       0.944  10.520  18.642  0.00  0.00    +0.000 C 
ENDBRANCH  20  22
ENDBRANCH  14  20
ENDBRANCH   1  17
BRANCH   2  23
ATOM     23  C   UNL     1       7.195   7.273  17.706  0.00  0.00    +0.000 C 
ATOM     24  O   UNL     1       6.925   7.979  16.739  0.00  0.00    +0.000 OA
ATOM     25  N   UNL     1       8.210   7.589  18.608  0.00  0.00    +0.000 N 
ATOM     26  H   UNL     1       8.422   6.966  19.379  0.00  0.00    +0.000 HD
BRANCH  25  27
ATOM     27  N   UNL     1       8.918   8.748  18.429  0.00  0.00    +0.000 NA
ATOM     28  C   UNL     1       8.945   9.585  19.412  0.00  0.00    +0.000 C 
BRANCH  28  29
ATOM     29  C   UNL     1       9.695  10.859  19.314  0.00  0.00    +0.000 A 
ATOM     30  C   UNL     1      10.022  11.406  18.064  0.00  0.00    +0.000 A 
ATOM     31  C   UNL     1      10.746  12.604  17.990  0.00  0.00    +0.000 A 
ATOM     32  C   UNL     1      11.144  13.242  19.164  0.00  0.00    +0.000 A 
ATOM     33 CL   UNL     1      12.042  14.706  19.074  0.00  0.00    +0.000 Cl
ATOM     34  C   UNL     1      10.818  12.706  20.410  0.00  0.00    +0.000 A 
ATOM     35  C   UNL     1      10.092  11.511  20.486  0.00  0.00    +0.000 A 
ENDBRANCH  28  29
ENDBRANCH  25  27
ENDBRANCH   2  23
TORSDOF 6
ENDMDL
MODEL 3
REMARK VINA RESULT:      -8.8      1.059      1.393
REMARK  Name = 
REMARK  7 active torsions:
REMARK  status: ('A' for Active; 'I' for Inactive)
REMARK    1  A    between atoms: C_1  and  C_2
REMARK    2  A    between atoms: C_2  and  O_3
REMARK    3  A    between atoms: O_3  and  C_4
REMARK    4  A    between atoms: C_7  and  C_8
REMARK    5  A    between atoms: C_9  and  C_10
REMARK    6  A    between atoms: N_12  and  N_13
REMARK    7  A    between atoms: C_14  and  C_15
REMARK                            x       y       z     vdW  Elec       q    Type
REMARK                         _______ _______ _______ _____ _____    ______ ____
ROOT
ATOM      1  C   UNL     1       4.327   5.692  17.863  0.00  0.00    +0.000 A 
ATOM      2  C   UNL     1       5.631   5.914  17.402  0.00  0.00    +0.000 A 
ATOM      3  N   UNL     1       6.255   4.705  17.194  0.00  0.00    +0.000 NA
ATOM      4  N   UNL     1       5.410   3.737  17.493  0.00  0.00    +0.000 NA
ATOM      5  N   UNL     1       4.188   4.288  17.731  0.00  0.00    +0.000 N 
ATOM      6  C   UNL     1       3.029   3.479  17.876  0.00  0.00    +0.000 A 
ATOM      7  N   UNL     1       1.815   3.967  17.602  0.00  0.00    +0.000 NA
ATOM      8  O   UNL     1       0.954   2.915  17.901  0.00  0.00    +0.000 OA
ATOM      9  N   UNL     1       1.651   1.808  18.373  0.00  0.00    +0.000 NA
ATOM     10  C   UNL     1       2.937   2.154  18.348  0.00  0.00    +0.000 A 
ATOM     11  N   UNL     1       3.934   1.379  18.811  0.00  0.00    +0.000 N 
ATOM     12  H   UNL     1       3.697   0.539  19.327  0.00  0.00    +0.000 HD
ATOM     13  H   UNL     1       4.868   1.736  18.987  0.00  0.00    +0.000 HD
ENDROOT
BRANCH   1  17
ATOM     14  C   UNL     1       1.479   8.232  19.884  0.00  0.00    +0.000 A 
ATOM     15  C   UNL     1       1.957   8.569  18.625  0.00  0.00    +0.000 A 
ATOM     16  C   UNL     1       2.837   7.718  17.943  0.00  0.00    +0.000 A 
ATOM     17  C   UNL     1       3.337   6.559  18.538  0.00  0.00    +0.000 A 
ATOM     18  C   UNL     1       2.898   6.282  19.848  0.00  0.00    +0.000 A 
ATOM     19  C   UNL     1       1.951   7.083  20.502  0.00  0.00    +0.000 A 
BRANCH  14  20
ATOM     20  O   UNL     1       0.584   9.104  20.427  0.00  0.00    +0.000 OA
BRANCH  20  22
ATOM     21  C   UNL     1      -0.275   9.356  22.622  0.00  0.00    +0.000 C 
ATOM     22  C   UNL     1       0.916   9.610  21.719  0.00  0.00    +0.000 C 
ENDBRANCH  20  22
ENDBRANCH  14  20
ENDBRANCH   1  17
BRANCH   2  23
ATOM     23  C   UNL     1       6.380   7.164  17.214  0.00  0.00    +0.000 C 
ATOM     24  O   UNL     1       6.056   8.034  16.411  0.00  0.00    +0.000 OA
ATOM     25  N   UNL     1       7.514   7.267  18.018  0.00  0.00    +0.000 N 
ATOM     26  H   UNL     1       7.765   6.515  18.648  0.00  0.00    +0.000 HD
BRANCH  25  27
ATOM     27  N   UNL     1       8.285   8.397  17.934  0.00  0.00    +0.000 NA
ATOM     28  C   UNL     1       8.565   9.007  19.039  0.00  0.00    +0.000 C 
BRANCH  28  29
ATOM     29  C   UNL     1       9.402  10.229  19.047  0.00  0.00    +0.000 A 
ATOM     30  C   UNL     1       9.815  10.827  17.847  0.00  0.00    +0.000 A 
ATOM     31  C   UNL     1      10.620  11.974  17.873  0.00  0.00    +0.000 A 
ATOM     32  C   UNL     1      11.010  12.512  19.099  0.00  0.00    +0.000 A 
ATOM     33 CL   UNL     1      12.006  13.914  19.133  0.00  0.00    +0.000 Cl
ATOM     34  C   UNL     1      10.599  11.926  20.296  0.00  0.00    +0.000 A 
ATOM     35  C   UNL     1       9.794  10.782  20.272  0.00  0.00    +0.000 A 
ENDBRANCH  28  29
ENDBRANCH  25  27
ENDBRANCH   2  23
TORSDOF 6
ENDMDL
MODEL 4
REMARK VINA RESULT:      -8.8      0.319      1.254
REMARK  Name = 
REMARK  7 active torsions:
REMARK  status: ('A' for Active; 'I' for Inactive)
REMARK    1  A    between atoms: C_1  and  C_2
REMARK    2  A    between atoms: C_2  and  O_3
REMARK    3  A    between atoms: O_3  and  C_4
REMARK    4  A    between atoms: C_7  and  C_8
REMARK    5  A    between atoms: C_9  and  C_10
REMARK    6  A    between atoms: N_12  and  N_13
REMARK    7  A    between atoms: C_14  and  C_15
REMARK                            x       y       z     vdW  Elec       q    Type
REMARK                         _______ _______ _______ _____ _____    ______ ____
ROOT
ATOM      1  C   UNL     1       5.046   5.817  18.188  0.00  0.00    +0.000 A 
ATOM      2  C   UNL     1       6.402   6.060  17.934  0.00  0.00    +0.000 A 
ATOM      3  N   UNL     1       7.115   4.894  18.097  0.00  0.00    +0.000 NA
ATOM      4  N   UNL     1       6.278   3.931  18.433  0.00  0.00    +0.000 NA
ATOM      5  N   UNL     1       5.006   4.407  18.327  0.00  0.00    +0.000 N 
ATOM      6  C   UNL     1       3.883   3.542  18.425  0.00  0.00    +0.000 A 
ATOM      7  N   UNL     1       2.722   3.858  17.841  0.00  0.00    +0.000 NA
ATOM      8  O   UNL     1       1.874   2.811  18.190  0.00  0.00    +0.000 OA
ATOM      9  N   UNL     1       2.521   1.884  18.999  0.00  0.00    +0.000 NA
ATOM     10  C   UNL     1       3.768   2.331  19.135  0.00  0.00    +0.000 A 
ATOM     11  N   UNL     1       4.693   1.751  19.921  0.00  0.00    +0.000 N 
ATOM     12  H   UNL     1       4.403   1.009  20.549  0.00  0.00    +0.000 HD
ATOM     13  H   UNL     1       5.556   2.217  20.185  0.00  0.00    +0.000 HD
ENDROOT
BRANCH   1  17
ATOM     14  C   UNL     1       1.673   8.392  18.984  0.00  0.00    +0.000 A 
ATOM     15  C   UNL     1       2.075   7.447  19.918  0.00  0.00    +0.000 A 
ATOM     16  C   UNL     1       3.204   6.650  19.686  0.00  0.00    +0.000 A 
ATOM     17  C   UNL     1       3.901   6.707  18.479  0.00  0.00    +0.000 A 
ATOM     18  C   UNL     1       3.422   7.618  17.516  0.00  0.00    +0.000 A 
ATOM     19  C   UNL     1       2.348   8.480  17.775  0.00  0.00    +0.000 A 
BRANCH  14  20
ATOM     20  O   UNL     1       0.599   9.151  19.340  0.00  0.00    +0.000 OA
BRANCH  20  22
ATOM     21  C   UNL     1       0.493  10.719  21.116  0.00  0.00    +0.000 C 
ATOM     22  C   UNL     1       0.352   9.256  20.742  0.00  0.00    +0.000 C 
ENDBRANCH  20  22
ENDBRANCH  14  20
ENDBRANCH   1  17
BRANCH   2  23
ATOM     23  C   UNL     1       7.109   7.311  17.630  0.00  0.00    +0.000 C 
ATOM     24  O   UNL     1       6.826   8.037  16.681  0.00  0.00    +0.000 OA
ATOM     25  N   UNL     1       8.155   7.595  18.507  0.00  0.00    +0.000 N 
ATOM     26  H   UNL     1       8.377   6.956  19.262  0.00  0.00    +0.000 HD
BRANCH  25  27
ATOM     27  N   UNL     1       8.879   8.744  18.326  0.00  0.00    +0.000 NA
ATOM     28  C   UNL     1       8.939   9.570  19.317  0.00  0.00    +0.000 C 
BRANCH  28  29
ATOM     29  C   UNL     1       9.709  10.832  19.216  0.00  0.00    +0.000 A 
ATOM     30  C   UNL     1      10.042  11.374  17.966  0.00  0.00    +0.000 A 
ATOM     31  C   UNL     1      10.785  12.560  17.890  0.00  0.00    +0.000 A 
ATOM     32  C   UNL     1      11.193  13.193  19.063  0.00  0.00    +0.000 A 
ATOM     33 CL   UNL     1      12.113  14.643  18.971  0.00  0.00    +0.000 Cl
ATOM     34  C   UNL     1      10.861  12.663  20.310  0.00  0.00    +0.000 A 
ATOM     35  C   UNL     1      10.117  11.480  20.388  0.00  0.00    +0.000 A 
ENDBRANCH  28  29
ENDBRANCH  25  27
ENDBRANCH   2  23
TORSDOF 6
ENDMDL
MODEL 5
REMARK VINA RESULT:      -8.8      1.022      1.075
REMARK  Name = 
REMARK  7 active torsions:
REMARK  status: ('A' for Active; 'I' for Inactive)
REMARK    1  A    between atoms: C_1  and  C_2
REMARK    2  A    between atoms: C_2  and  O_3
REMARK    3  A    between atoms: O_3  and  C_4
REMARK    4  A    between atoms: C_7  and  C_8
REMARK    5  A    between atoms: C_9  and  C_10
REMARK    6  A    between atoms: N_12  and  N_13
REMARK    7  A    between atoms: C_14  and  C_15
REMARK                            x       y       z     vdW  Elec       q    Type
REMARK                         _______ _______ _______ _____ _____    ______ ____
ROOT
ATOM      1  C   UNL     1       4.386   5.802  17.925  0.00  0.00    +0.000 A 
ATOM      2  C   UNL     1       5.751   5.899  17.624  0.00  0.00    +0.000 A 
ATOM      3  N   UNL     1       6.306   4.639  17.602  0.00  0.00    +0.000 NA
ATOM      4  N   UNL     1       5.361   3.757  17.866  0.00  0.00    +0.000 NA
ATOM      5  N   UNL     1       4.162   4.403  17.893  0.00  0.00    +0.000 N 
ATOM      6  C   UNL     1       2.937   3.684  17.951  0.00  0.00    +0.000 A 
ATOM      7  N   UNL     1       1.807   4.219  17.479  0.00  0.00    +0.000 NA
ATOM      8  O   UNL     1       0.840   3.254  17.747  0.00  0.00    +0.000 OA
ATOM      9  N   UNL     1       1.389   2.155  18.398  0.00  0.00    +0.000 NA
ATOM     10  C   UNL     1       2.689   2.417  18.515  0.00  0.00    +0.000 A 
ATOM     11  N   UNL     1       3.560   1.627  19.169  0.00  0.00    +0.000 N 
ATOM     12  H   UNL     1       3.199   0.855  19.718  0.00  0.00    +0.000 HD
ATOM     13  H   UNL     1       4.488   1.940  19.437  0.00  0.00    +0.000 HD
ENDROOT
BRANCH   1  17
ATOM     14  C   UNL     1       1.504   8.694  19.328  0.00  0.00    +0.000 A 
ATOM     15  C   UNL     1       2.073   8.819  18.067  0.00  0.00    +0.000 A 
ATOM     16  C   UNL     1       2.965   7.851  17.588  0.00  0.00    +0.000 A 
ATOM     17  C   UNL     1       3.386   6.787  18.388  0.00  0.00    +0.000 A 
ATOM     18  C   UNL     1       2.854   6.730  19.692  0.00  0.00    +0.000 A 
ATOM     19  C   UNL     1       1.895   7.645  20.147  0.00  0.00    +0.000 A 
BRANCH  14  20
ATOM     20  O   UNL     1       0.606   9.661  19.666  0.00  0.00    +0.000 OA
BRANCH  20  22
ATOM     21  C   UNL     1      -1.297  10.294  18.401  0.00  0.00    +0.000 C 
ATOM     22  C   UNL     1       0.189  10.519  18.604  0.00  0.00    +0.000 C 
ENDBRANCH  20  22
ENDBRANCH  14  20
ENDBRANCH   1  17
BRANCH   2  23
ATOM     23  C   UNL     1       6.608   7.076  17.433  0.00  0.00    +0.000 C 
ATOM     24  O   UNL     1       6.392   7.943  16.590  0.00  0.00    +0.000 OA
ATOM     25  N   UNL     1       7.711   7.115  18.284  0.00  0.00    +0.000 N 
ATOM     26  H   UNL     1       7.871   6.366  18.948  0.00  0.00    +0.000 HD
BRANCH  25  27
ATOM     27  N   UNL     1       8.574   8.175  18.202  0.00  0.00    +0.000 NA
ATOM     28  C   UNL     1       8.416   9.136  19.052  0.00  0.00    +0.000 C 
BRANCH  28  29
ATOM     29  C   UNL     1       9.310  10.318  19.047  0.00  0.00    +0.000 A 
ATOM     30  C   UNL     1       9.887  10.789  20.235  0.00  0.00    +0.000 A 
ATOM     31  C   UNL     1      10.718  11.918  20.214  0.00  0.00    +0.000 A 
ATOM     32  C   UNL     1      10.962  12.570  19.006  0.00  0.00    +0.000 A 
ATOM     33 CL   UNL     1      11.973  13.961  18.980  0.00  0.00    +0.000 Cl
ATOM     34  C   UNL     1      10.395  12.104  17.819  0.00  0.00    +0.000 A 
ATOM     35  C   UNL     1       9.567  10.976  17.838  0.00  0.00    +0.000 A 
ENDBRANCH  28  29
ENDBRANCH  25  27
ENDBRANCH   2  23
TORSDOF 6
ENDMDL
MODEL 6
REMARK VINA RESULT:      -8.7      0.906      1.046
REMARK  Name = 
REMARK  7 active torsions:
REMARK  status: ('A' for Active; 'I' for Inactive)
REMARK    1  A    between atoms: C_1  and  C_2
REMARK    2  A    between atoms: C_2  and  O_3
REMARK    3  A    between atoms: O_3  and  C_4
REMARK    4  A    between atoms: C_7  and  C_8
REMARK    5  A    between atoms: C_9  and  C_10
REMARK    6  A    between atoms: N_12  and  N_13
REMARK    7  A    between atoms: C_14  and  C_15
REMARK                            x       y       z     vdW  Elec       q    Type
REMARK                         _______ _______ _______ _____ _____    ______ ____
ROOT
ATOM      1  C   UNL     1       5.209   5.528  17.963  0.00  0.00    +0.000 A 
ATOM      2  C   UNL     1       6.562   5.697  17.641  0.00  0.00    +0.000 A 
ATOM      3  N   UNL     1       7.252   4.544  17.940  0.00  0.00    +0.000 NA
ATOM      4  N   UNL     1       6.403   3.658  18.425  0.00  0.00    +0.000 NA
ATOM      5  N   UNL     1       5.140   4.151  18.292  0.00  0.00    +0.000 N 
ATOM      6  C   UNL     1       4.001   3.337  18.536  0.00  0.00    +0.000 A 
ATOM      7  N   UNL     1       2.831   3.604  17.948  0.00  0.00    +0.000 NA
ATOM      8  O   UNL     1       1.969   2.637  18.458  0.00  0.00    +0.000 OA
ATOM      9  N   UNL     1       2.620   1.809  19.367  0.00  0.00    +0.000 NA
ATOM     10  C   UNL     1       3.880   2.236  19.407  0.00  0.00    +0.000 A 
ATOM     11  N   UNL     1       4.816   1.742  20.237  0.00  0.00    +0.000 N 
ATOM     12  H   UNL     1       4.528   1.099  20.967  0.00  0.00    +0.000 HD
ATOM     13  H   UNL     1       5.697   2.215  20.412  0.00  0.00    +0.000 HD
ENDROOT
BRANCH   1  17
ATOM     14  C   UNL     1       1.987   8.329  18.602  0.00  0.00    +0.000 A 
ATOM     15  C   UNL     1       2.736   8.370  17.434  0.00  0.00    +0.000 A 
ATOM     16  C   UNL     1       3.745   7.426  17.200  0.00  0.00    +0.000 A 
ATOM     17  C   UNL     1       4.095   6.479  18.163  0.00  0.00    +0.000 A 
ATOM     18  C   UNL     1       3.372   6.512  19.372  0.00  0.00    +0.000 A 
ATOM     19  C   UNL     1       2.304   7.397  19.578  0.00  0.00    +0.000 A 
BRANCH  14  20
ATOM     20  O   UNL     1       0.994   9.259  18.696  0.00  0.00    +0.000 OA
BRANCH  20  22
ATOM     21  C   UNL     1      -0.467   9.840  20.470  0.00  0.00    +0.000 C 
ATOM     22  C   UNL     1       0.940   9.985  19.924  0.00  0.00    +0.000 C 
ENDBRANCH  20  22
ENDBRANCH  14  20
ENDBRANCH   1  17
BRANCH   2  23
ATOM     23  C   UNL     1       7.288   6.876  17.152  0.00  0.00    +0.000 C 
ATOM     24  O   UNL     1       7.849   6.922  16.060  0.00  0.00    +0.000 OA
ATOM     25  N   UNL     1       7.305   7.942  18.051  0.00  0.00    +0.000 N 
ATOM     26  H   UNL     1       6.854   7.856  18.954  0.00  0.00    +0.000 HD
BRANCH  25  27
ATOM     27  N   UNL     1       7.945   9.099  17.695  0.00  0.00    +0.000 NA
ATOM     28  C   UNL     1       8.679   9.671  18.591  0.00  0.00    +0.000 C 
BRANCH  28  29
ATOM     29  C   UNL     1       9.419  10.920  18.293  0.00  0.00    +0.000 A 
ATOM     30  C   UNL     1       8.745  12.065  17.843  0.00  0.00    +0.000 A 
ATOM     31  C   UNL     1       9.463  13.233  17.550  0.00  0.00    +0.000 A 
ATOM     32  C   UNL     1      10.849  13.245  17.703  0.00  0.00    +0.000 A 
ATOM     33 CL   UNL     1      11.732  14.675  17.334  0.00  0.00    +0.000 Cl
ATOM     34  C   UNL     1      11.524  12.112  18.154  0.00  0.00    +0.000 A 
ATOM     35  C   UNL     1      10.809  10.946  18.450  0.00  0.00    +0.000 A 
ENDBRANCH  28  29
ENDBRANCH  25  27
ENDBRANCH   2  23
TORSDOF 6
ENDMDL
MODEL 7
REMARK VINA RESULT:      -8.7      1.259      1.587
REMARK  Name = 
REMARK  7 active torsions:
REMARK  status: ('A' for Active; 'I' for Inactive)
REMARK    1  A    between atoms: C_1  and  C_2
REMARK    2  A    between atoms: C_2  and  O_3
REMARK    3  A    between atoms: O_3  and  C_4
REMARK    4  A    between atoms: C_7  and  C_8
REMARK    5  A    between atoms: C_9  and  C_10
REMARK    6  A    between atoms: N_12  and  N_13
REMARK    7  A    between atoms: C_14  and  C_15
REMARK                            x       y       z     vdW  Elec       q    Type
REMARK                         _______ _______ _______ _____ _____    ______ ____
ROOT
ATOM      1  C   UNL     1       4.493   5.766  18.450  0.00  0.00    +0.000 A 
ATOM      2  C   UNL     1       5.825   5.849  18.024  0.00  0.00    +0.000 A 
ATOM      3  N   UNL     1       6.470   4.665  18.304  0.00  0.00    +0.000 NA
ATOM      4  N   UNL     1       5.612   3.843  18.877  0.00  0.00    +0.000 NA
ATOM      5  N   UNL     1       4.372   4.405  18.823  0.00  0.00    +0.000 N 
ATOM      6  C   UNL     1       3.210   3.665  19.175  0.00  0.00    +0.000 A 
ATOM      7  N   UNL     1       2.016   3.985  18.667  0.00  0.00    +0.000 NA
ATOM      8  O   UNL     1       1.143   3.083  19.268  0.00  0.00    +0.000 OA
ATOM      9  N   UNL     1       1.812   2.241  20.150  0.00  0.00    +0.000 NA
ATOM     10  C   UNL     1       3.094   2.595  20.084  0.00  0.00    +0.000 A 
ATOM     11  N   UNL     1       4.060   2.069  20.857  0.00  0.00    +0.000 N 
ATOM     12  H   UNL     1       3.793   1.462  21.625  0.00  0.00    +0.000 HD
ATOM     13  H   UNL     1       4.977   2.494  20.952  0.00  0.00    +0.000 HD
ENDROOT
BRANCH   1  17
ATOM     14  C   UNL     1       1.421   8.721  19.138  0.00  0.00    +0.000 A 
ATOM     15  C   UNL     1       1.745   7.797  20.122  0.00  0.00    +0.000 A 
ATOM     16  C   UNL     1       2.780   6.874  19.922  0.00  0.00    +0.000 A 
ATOM     17  C   UNL     1       3.453   6.786  18.703  0.00  0.00    +0.000 A 
ATOM     18  C   UNL     1       3.049   7.684  17.694  0.00  0.00    +0.000 A 
ATOM     19  C   UNL     1       2.075   8.666  17.916  0.00  0.00    +0.000 A 
BRANCH  14  20
ATOM     20  O   UNL     1       0.439   9.608  19.464  0.00  0.00    +0.000 OA
BRANCH  20  22
ATOM     21  C   UNL     1      -1.299  10.084  17.923  0.00  0.00    +0.000 C 
ATOM     22  C   UNL     1       0.061  10.521  18.434  0.00  0.00    +0.000 C 
ENDBRANCH  20  22
ENDBRANCH  14  20
ENDBRANCH   1  17
BRANCH   2  23
ATOM     23  C   UNL     1       6.578   6.971  17.447  0.00  0.00    +0.000 C 
ATOM     24  O   UNL     1       6.364   7.426  16.327  0.00  0.00    +0.000 OA
ATOM     25  N   UNL     1       7.580   7.465  18.281  0.00  0.00    +0.000 N 
ATOM     26  H   UNL     1       7.745   7.044  19.187  0.00  0.00    +0.000 HD
BRANCH  25  27
ATOM     27  N   UNL     1       8.340   8.520  17.850  0.00  0.00    +0.000 NA
ATOM     28  C   UNL     1       8.427   9.546  18.631  0.00  0.00    +0.000 C 
BRANCH  28  29
ATOM     29  C   UNL     1       9.237  10.728  18.253  0.00  0.00    +0.000 A 
ATOM     30  C   UNL     1      10.633  10.713  18.378  0.00  0.00    +0.000 A 
ATOM     31  C   UNL     1      11.382  11.847  18.031  0.00  0.00    +0.000 A 
ATOM     32  C   UNL     1      10.728  12.988  17.568  0.00  0.00    +0.000 A 
ATOM     33 CL   UNL     1      11.645  14.383  17.153  0.00  0.00    +0.000 Cl
ATOM     34  C   UNL     1       9.340  13.008  17.438  0.00  0.00    +0.000 A 
ATOM     35  C   UNL     1       8.591  11.877  17.781  0.00  0.00    +0.000 A 
ENDBRANCH  28  29
ENDBRANCH  25  27
ENDBRANCH   2  23
TORSDOF 6
ENDMDL
MODEL 8
REMARK VINA RESULT:      -8.6      0.839      1.210
REMARK  Name = 
REMARK  7 active torsions:
REMARK  status: ('A' for Active; 'I' for Inactive)
REMARK    1  A    between atoms: C_1  and  C_2
REMARK    2  A    between atoms: C_2  and  O_3
REMARK    3  A    between atoms: O_3  and  C_4
REMARK    4  A    between atoms: C_7  and  C_8
REMARK    5  A    between atoms: C_9  and  C_10
REMARK    6  A    between atoms: N_12  and  N_13
REMARK    7  A    between atoms: C_14  and  C_15
REMARK                            x       y       z     vdW  Elec       q    Type
REMARK                         _______ _______ _______ _____ _____    ______ ____
ROOT
ATOM      1  C   UNL     1       4.551   5.914  17.936  0.00  0.00    +0.000 A 
ATOM      2  C   UNL     1       5.905   6.077  17.617  0.00  0.00    +0.000 A 
ATOM      3  N   UNL     1       6.517   4.845  17.573  0.00  0.00    +0.000 NA
ATOM      4  N   UNL     1       5.618   3.917  17.840  0.00  0.00    +0.000 NA
ATOM      5  N   UNL     1       4.391   4.506  17.892  0.00  0.00    +0.000 N 
ATOM      6  C   UNL     1       3.202   3.731  17.958  0.00  0.00    +0.000 A 
ATOM      7  N   UNL     1       2.041   4.218  17.508  0.00  0.00    +0.000 NA
ATOM      8  O   UNL     1       1.124   3.206  17.779  0.00  0.00    +0.000 OA
ATOM      9  N   UNL     1       1.733   2.127  18.409  0.00  0.00    +0.000 NA
ATOM     10  C   UNL     1       3.021   2.447  18.511  0.00  0.00    +0.000 A 
ATOM     11  N   UNL     1       3.937   1.692  19.143  0.00  0.00    +0.000 N 
ATOM     12  H   UNL     1       3.620   0.897  19.688  0.00  0.00    +0.000 HD
ATOM     13  H   UNL     1       4.853   2.045  19.401  0.00  0.00    +0.000 HD
ENDROOT
BRANCH   1  17
ATOM     14  C   UNL     1       1.480   8.620  19.311  0.00  0.00    +0.000 A 
ATOM     15  C   UNL     1       1.914   7.577  20.118  0.00  0.00    +0.000 A 
ATOM     16  C   UNL     1       2.950   6.732  19.697  0.00  0.00    +0.000 A 
ATOM     17  C   UNL     1       3.512   6.846  18.425  0.00  0.00    +0.000 A 
ATOM     18  C   UNL     1       2.996   7.863  17.596  0.00  0.00    +0.000 A 
ATOM     19  C   UNL     1       2.022   8.766  18.042  0.00  0.00    +0.000 A 
BRANCH  14  20
ATOM     20  O   UNL     1       0.509   9.413  19.846  0.00  0.00    +0.000 OA
BRANCH  20  22
ATOM     21  C   UNL     1       1.133  11.600  20.513  0.00  0.00    +0.000 C 
ATOM     22  C   UNL     1       0.507  10.771  19.408  0.00  0.00    +0.000 C 
ENDBRANCH  20  22
ENDBRANCH  14  20
ENDBRANCH   1  17
BRANCH   2  23
ATOM     23  C   UNL     1       6.703   7.296  17.428  0.00  0.00    +0.000 C 
ATOM     24  O   UNL     1       6.416   8.176  16.622  0.00  0.00    +0.000 OA
ATOM     25  N   UNL     1       7.838   7.357  18.235  0.00  0.00    +0.000 N 
ATOM     26  H   UNL     1       8.057   6.597  18.868  0.00  0.00    +0.000 HD
BRANCH  25  27
ATOM     27  N   UNL     1       8.653   8.455  18.150  0.00  0.00    +0.000 NA
ATOM     28  C   UNL     1       8.623   9.293  19.134  0.00  0.00    +0.000 C 
BRANCH  28  29
ATOM     29  C   UNL     1       9.479  10.502  19.135  0.00  0.00    +0.000 A 
ATOM     30  C   UNL     1      10.010  11.007  20.331  0.00  0.00    +0.000 A 
ATOM     31  C   UNL     1      10.805  12.161  20.316  0.00  0.00    +0.000 A 
ATOM     32  C   UNL     1      11.057  12.807  19.106  0.00  0.00    +0.000 A 
ATOM     33 CL   UNL     1      12.023  14.230  19.087  0.00  0.00    +0.000 Cl
ATOM     34  C   UNL     1      10.535  12.308  17.912  0.00  0.00    +0.000 A 
ATOM     35  C   UNL     1       9.744  11.154  17.925  0.00  0.00    +0.000 A 
ENDBRANCH  28  29
ENDBRANCH  25  27
ENDBRANCH   2  23
TORSDOF 6
ENDMDL
MODEL 9
REMARK VINA RESULT:      -8.6      1.061      1.142
REMARK  Name = 
REMARK  7 active torsions:
REMARK  status: ('A' for Active; 'I' for Inactive)
REMARK    1  A    between atoms: C_1  and  C_2
REMARK    2  A    between atoms: C_2  and  O_3
REMARK    3  A    between atoms: O_3  and  C_4
REMARK    4  A    between atoms: C_7  and  C_8
REMARK    5  A    between atoms: C_9  and  C_10
REMARK    6  A    between atoms: N_12  and  N_13
REMARK    7  A    between atoms: C_14  and  C_15
REMARK                            x       y       z     vdW  Elec       q    Type
REMARK                         _______ _______ _______ _____ _____    ______ ____
ROOT
ATOM      1  C   UNL     1       4.567   5.782  18.376  0.00  0.00    +0.000 A 
ATOM      2  C   UNL     1       5.917   5.889  18.017  0.00  0.00    +0.000 A 
ATOM      3  N   UNL     1       6.575   4.729  18.360  0.00  0.00    +0.000 NA
ATOM      4  N   UNL     1       5.709   3.898  18.908  0.00  0.00    +0.000 NA
ATOM      5  N   UNL     1       4.460   4.426  18.776  0.00  0.00    +0.000 N 
ATOM      6  C   UNL     1       3.301   3.666  19.087  0.00  0.00    +0.000 A 
ATOM      7  N   UNL     1       2.126   3.942  18.510  0.00  0.00    +0.000 NA
ATOM      8  O   UNL     1       1.246   3.033  19.088  0.00  0.00    +0.000 OA
ATOM      9  N   UNL     1       1.889   2.230  20.023  0.00  0.00    +0.000 NA
ATOM     10  C   UNL     1       3.163   2.615  20.015  0.00  0.00    +0.000 A 
ATOM     11  N   UNL     1       4.101   2.132  20.849  0.00  0.00    +0.000 N 
ATOM     12  H   UNL     1       3.809   1.537  21.617  0.00  0.00    +0.000 HD
ATOM     13  H   UNL     1       5.001   2.583  20.980  0.00  0.00    +0.000 HD
ENDROOT
BRANCH   1  17
ATOM     14  C   UNL     1       1.456   8.722  18.938  0.00  0.00    +0.000 A 
ATOM     15  C   UNL     1       2.168   8.667  17.748  0.00  0.00    +0.000 A 
ATOM     16  C   UNL     1       3.139   7.678  17.542  0.00  0.00    +0.000 A 
ATOM     17  C   UNL     1       3.490   6.780  18.551  0.00  0.00    +0.000 A 
ATOM     18  C   UNL     1       2.808   6.910  19.777  0.00  0.00    +0.000 A 
ATOM     19  C   UNL     1       1.775   7.840  19.960  0.00  0.00    +0.000 A 
BRANCH  14  20
ATOM     20  O   UNL     1       0.496   9.687  19.005  0.00  0.00    +0.000 OA
BRANCH  20  22
ATOM     21  C   UNL     1      -0.609  11.394  20.224  0.00  0.00    +0.000 C 
ATOM     22  C   UNL     1       0.057  10.035  20.318  0.00  0.00    +0.000 C 
ENDBRANCH  20  22
ENDBRANCH  14  20
ENDBRANCH   1  17
BRANCH   2  23
ATOM     23  C   UNL     1       6.671   7.015  17.452  0.00  0.00    +0.000 C 
ATOM     24  O   UNL     1       6.460   7.481  16.335  0.00  0.00    +0.000 OA
ATOM     25  N   UNL     1       7.671   7.502  18.292  0.00  0.00    +0.000 N 
ATOM     26  H   UNL     1       7.833   7.074  19.196  0.00  0.00    +0.000 HD
BRANCH  25  27
ATOM     27  N   UNL     1       8.431   8.562  17.873  0.00  0.00    +0.000 NA
ATOM     28  C   UNL     1       8.522   9.578  18.666  0.00  0.00    +0.000 C 
BRANCH  28  29
ATOM     29  C   UNL     1       9.332  10.764  18.301  0.00  0.00    +0.000 A 
ATOM     30  C   UNL     1      10.726  10.758  18.457  0.00  0.00    +0.000 A 
ATOM     31  C   UNL     1      11.475  11.895  18.121  0.00  0.00    +0.000 A 
ATOM     32  C   UNL     1      10.825  13.029  17.638  0.00  0.00    +0.000 A 
ATOM     33 CL   UNL     1      11.742  14.428  17.237  0.00  0.00    +0.000 Cl
ATOM     34  C   UNL     1       9.440  13.040  17.476  0.00  0.00    +0.000 A 
ATOM     35  C   UNL     1       8.691  11.906  17.808  0.00  0.00    +0.000 A 
ENDBRANCH  28  29
ENDBRANCH  25  27
ENDBRANCH   2  23
TORSDOF 6
ENDMDL
