MODEL 1
REMARK VINA RESULT:      -6.9      0.000      0.000
REMARK  Name = 
REMARK  4 active torsions:
REMARK  status: ('A' for Active; 'I' for Inactive)
REMARK    1  A    between atoms: C_1  and  C_2
REMARK    2  A    between atoms: C_4  and  C_5
REMARK    3  A    between atoms: C_11  and  N_12
REMARK    4  A    between atoms: C_24  and  C_25
REMARK                            x       y       z     vdW  Elec       q    Type
REMARK                         _______ _______ _______ _____ _____    ______ ____
ROOT
ATOM      1  C   UNL     1       2.647   4.570  20.445  0.00  0.00    +0.000 A 
ATOM      2  C   UNL     1       1.938   4.171  21.596  0.00  0.00    +0.000 A 
ATOM      3  N   UNL     1       2.025   2.971  22.209  0.00  0.00    +0.000 NA
ATOM      4  C   UNL     1       2.860   2.092  21.633  0.00  0.00    +0.000 A 
ATOM      5  C   UNL     1       3.602   2.348  20.482  0.00  0.00    +0.000 A 
ATOM      6 CL   UNL     1       4.480   0.981  19.868  0.00  0.00    +0.000 Cl
ATOM      7  C   UNL     1       3.534   3.623  19.838  0.00  0.00    +0.000 A 
ENDROOT
BRANCH   7   8
ATOM      8  N   UNL     1       4.266   3.863  18.663  0.00  0.00    +0.000 N 
ATOM      9  C   UNL     1       5.669   4.298  18.665  0.00  0.00    +0.000 C 
ATOM     10  C   UNL     1       5.914   5.350  17.587  0.00  0.00    +0.000 C 
ATOM     11  C   UNL     1       5.384   4.916  16.208  0.00  0.00    +0.000 C 
ATOM     12  C   UNL     1       6.250   3.829  15.527  0.00  0.00    +0.000 C 
ATOM     13  C   UNL     1       7.324   4.605  14.791  0.00  0.00    +0.000 C 
ATOM     14  N   UNL     1       6.679   5.838  14.476  0.00  0.00    +0.000 N 
ATOM     15  C   UNL     1       5.556   6.083  15.245  0.00  0.00    +0.000 C 
ATOM     16  O   UNL     1       4.888   7.095  15.190  0.00  0.00    +0.000 OA
ATOM     17  C   UNL     1       3.918   4.490  16.330  0.00  0.00    +0.000 C 
ATOM     18  C   UNL     1       3.767   3.373  17.367  0.00  0.00    +0.000 C 
ATOM     19  H   UNL     1       7.015   6.542  13.830  0.00  0.00    +0.000 HD
ENDBRANCH   7   8
BRANCH   1  23
ATOM     20  C   UNL     1       2.441   8.627  17.330  0.00  0.00    +0.000 C 
ATOM     21  C   UNL     1       2.321   7.875  18.615  0.00  0.00    +0.000 A 
ATOM     22  C   UNL     1       2.935   6.600  18.859  0.00  0.00    +0.000 A 
ATOM     23  C   UNL     1       2.448   5.969  19.988  0.00  0.00    +0.000 A 
ATOM     24  S   UNL     1       1.500   7.071  20.909  0.00  0.00    +0.000 S 
ATOM     25  C   UNL     1       1.622   8.299  19.731  0.00  0.00    +0.000 A 
BRANCH  25  26
ATOM     26  C   UNL     1       0.988   9.578  19.979  0.00  0.00    +0.000 C 
ATOM     27  O   UNL     1      -0.094   9.931  19.515  0.00  0.00    +0.000 OA
ENDBRANCH  25  26
ENDBRANCH   1  23
TORSDOF 3
ENDMDL
MODEL 2
REMARK VINA RESULT:      -6.2      6.450      9.479
REMARK  Name = 
REMARK  4 active torsions:
REMARK  status: ('A' for Active; 'I' for Inactive)
REMARK    1  A    between atoms: C_1  and  C_2
REMARK    2  A    between atoms: C_4  and  C_5
REMARK    3  A    between atoms: C_11  and  N_12
REMARK    4  A    between atoms: C_24  and  C_25
REMARK                            x       y       z     vdW  Elec       q    Type
REMARK                         _______ _______ _______ _____ _____    ______ ____
ROOT
ATOM      1  C   UNL     1      -0.390  11.771  21.769  0.00  0.00    +0.000 A 
ATOM      2  C   UNL     1      -1.375  11.419  22.714  0.00  0.00    +0.000 A 
ATOM      3  N   UNL     1      -2.061  12.272  23.504  0.00  0.00    +0.000 NA
ATOM      4  C   UNL     1      -1.740  13.568  23.365  0.00  0.00    +0.000 A 
ATOM      5  C   UNL     1      -0.770  14.048  22.487  0.00  0.00    +0.000 A 
ATOM      6 CL   UNL     1      -0.449  15.749  22.624  0.00  0.00    +0.000 Cl
ATOM      7  C   UNL     1      -0.054  13.156  21.630  0.00  0.00    +0.000 A 
ENDROOT
BRANCH   7   8
ATOM      8  N   UNL     1       0.940  13.647  20.766  0.00  0.00    +0.000 N 
ATOM      9  C   UNL     1       2.376  13.436  20.992  0.00  0.00    +0.000 C 
ATOM     10  C   UNL     1       3.170  14.694  20.653  0.00  0.00    +0.000 C 
ATOM     11  C   UNL     1       2.820  15.257  19.263  0.00  0.00    +0.000 C 
ATOM     12  C   UNL     1       3.396  14.423  18.095  0.00  0.00    +0.000 C 
ATOM     13  C   UNL     1       4.793  14.974  17.888  0.00  0.00    +0.000 C 
ATOM     14  N   UNL     1       4.671  16.336  18.297  0.00  0.00    +0.000 N 
ATOM     15  C   UNL     1       3.561  16.575  19.085  0.00  0.00    +0.000 C 
ATOM     16  O   UNL     1       3.293  17.645  19.593  0.00  0.00    +0.000 OA
ATOM     17  C   UNL     1       1.303  15.437  19.149  0.00  0.00    +0.000 C 
ATOM     18  C   UNL     1       0.583  14.112  19.416  0.00  0.00    +0.000 C 
ATOM     19  H   UNL     1       5.346  17.073  18.132  0.00  0.00    +0.000 HD
ENDBRANCH   7   8
BRANCH   1  23
ATOM     20  C   UNL     1       1.599   9.282  17.761  0.00  0.00    +0.000 C 
ATOM     21  C   UNL     1       1.109   9.461  19.161  0.00  0.00    +0.000 A 
ATOM     22  C   UNL     1       0.258  10.539  19.582  0.00  0.00    +0.000 A 
ATOM     23  C   UNL     1       0.181  10.667  20.955  0.00  0.00    +0.000 A 
ATOM     24  S   UNL     1       0.872   9.282  21.709  0.00  0.00    +0.000 S 
ATOM     25  C   UNL     1       1.394   8.624  20.225  0.00  0.00    +0.000 A 
BRANCH  25  26
ATOM     26  C   UNL     1       2.079   7.347  20.223  0.00  0.00    +0.000 C 
ATOM     27  O   UNL     1       1.636   6.308  20.706  0.00  0.00    +0.000 OA
ENDBRANCH  25  26
ENDBRANCH   1  23
TORSDOF 3
ENDMDL
MODEL 3
REMARK VINA RESULT:      -6.2      6.993      9.861
REMARK  Name = 
REMARK  4 active torsions:
REMARK  status: ('A' for Active; 'I' for Inactive)
REMARK    1  A    between atoms: C_1  and  C_2
REMARK    2  A    between atoms: C_4  and  C_5
REMARK    3  A    between atoms: C_11  and  N_12
REMARK    4  A    between atoms: C_24  and  C_25
REMARK                            x       y       z     vdW  Elec       q    Type
REMARK                         _______ _______ _______ _____ _____    ______ ____
ROOT
ATOM      1  C   UNL     1      -1.487  12.266  22.230  0.00  0.00    +0.000 A 
ATOM      2  C   UNL     1      -2.491  11.905  23.151  0.00  0.00    +0.000 A 
ATOM      3  N   UNL     1      -3.303  12.752  23.818  0.00  0.00    +0.000 NA
ATOM      4  C   UNL     1      -3.097  14.056  23.574  0.00  0.00    +0.000 A 
ATOM      5  C   UNL     1      -2.124  14.550  22.707  0.00  0.00    +0.000 A 
ATOM      6 CL   UNL     1      -1.974  16.280  22.699  0.00  0.00    +0.000 Cl
ATOM      7  C   UNL     1      -1.274  13.660  21.979  0.00  0.00    +0.000 A 
ENDROOT
BRANCH   7   8
ATOM      8  N   UNL     1      -0.279  14.169  21.127  0.00  0.00    +0.000 N 
ATOM      9  C   UNL     1      -0.572  14.774  19.821  0.00  0.00    +0.000 C 
ATOM     10  C   UNL     1       0.461  14.351  18.781  0.00  0.00    +0.000 C 
ATOM     11  C   UNL     1       1.908  14.557  19.269  0.00  0.00    +0.000 C 
ATOM     12  C   UNL     1       2.348  16.040  19.291  0.00  0.00    +0.000 C 
ATOM     13  C   UNL     1       2.858  16.306  17.889  0.00  0.00    +0.000 C 
ATOM     14  N   UNL     1       3.346  15.032  17.471  0.00  0.00    +0.000 N 
ATOM     15  C   UNL     1       2.848  13.981  18.219  0.00  0.00    +0.000 C 
ATOM     16  O   UNL     1       3.080  12.809  18.003  0.00  0.00    +0.000 OA
ATOM     17  C   UNL     1       2.093  13.881  20.630  0.00  0.00    +0.000 C 
ATOM     18  C   UNL     1       1.077  14.421  21.641  0.00  0.00    +0.000 C 
ATOM     19  H   UNL     1       3.927  14.849  16.661  0.00  0.00    +0.000 HD
ENDBRANCH   7   8
BRANCH   1  23
ATOM     20  C   UNL     1       0.947   9.628  18.581  0.00  0.00    +0.000 C 
ATOM     21  C   UNL     1       0.372   9.889  19.934  0.00  0.00    +0.000 A 
ATOM     22  C   UNL     1      -0.606  10.904  20.209  0.00  0.00    +0.000 A 
ATOM     23  C   UNL     1      -0.765  11.156  21.558  0.00  0.00    +0.000 A 
ATOM     24  S   UNL     1       0.029   9.936  22.476  0.00  0.00    +0.000 S 
ATOM     25  C   UNL     1       0.689   9.196  21.089  0.00  0.00    +0.000 A 
BRANCH  25  26
ATOM     26  C   UNL     1       1.503   8.007  21.245  0.00  0.00    +0.000 C 
ATOM     27  O   UNL     1       1.247   6.908  20.758  0.00  0.00    +0.000 OA
ENDBRANCH  25  26
ENDBRANCH   1  23
TORSDOF 3
ENDMDL
MODEL 4
REMARK VINA RESULT:      -6.1      6.895     11.068
REMARK  Name = 
REMARK  4 active torsions:
REMARK  status: ('A' for Active; 'I' for Inactive)
REMARK    1  A    between atoms: C_1  and  C_2
REMARK    2  A    between atoms: C_4  and  C_5
REMARK    3  A    between atoms: C_11  and  N_12
REMARK    4  A    between atoms: C_24  and  C_25
REMARK                            x       y       z     vdW  Elec       q    Type
REMARK                         _______ _______ _______ _____ _____    ______ ____
ROOT
ATOM      1  C   UNL     1       0.784  12.251  19.277  0.00  0.00    +0.000 A 
ATOM      2  C   UNL     1       1.642  11.401  18.550  0.00  0.00    +0.000 A 
ATOM      3  N   UNL     1       1.732  10.061  18.680  0.00  0.00    +0.000 NA
ATOM      4  C   UNL     1       0.928   9.519  19.609  0.00  0.00    +0.000 A 
ATOM      5  C   UNL     1       0.050  10.246  20.411  0.00  0.00    +0.000 A 
ATOM      6 CL   UNL     1      -0.755   9.311  21.633  0.00  0.00    +0.000 Cl
ATOM      7  C   UNL     1      -0.068  11.663  20.266  0.00  0.00    +0.000 A 
ENDROOT
BRANCH   7   8
ATOM      8  N   UNL     1      -0.937  12.391  21.097  0.00  0.00    +0.000 N 
ATOM      9  C   UNL     1      -0.486  13.112  22.295  0.00  0.00    +0.000 C 
ATOM     10  C   UNL     1      -1.487  12.950  23.435  0.00  0.00    +0.000 C 
ATOM     11  C   UNL     1      -2.931  13.270  23.004  0.00  0.00    +0.000 C 
ATOM     12  C   UNL     1      -3.198  14.782  22.812  0.00  0.00    +0.000 C 
ATOM     13  C   UNL     1      -3.576  15.279  24.193  0.00  0.00    +0.000 C 
ATOM     14  N   UNL     1      -4.177  14.136  24.799  0.00  0.00    +0.000 N 
ATOM     15  C   UNL     1      -3.856  12.948  24.169  0.00  0.00    +0.000 C 
ATOM     16  O   UNL     1      -4.206  11.849  24.548  0.00  0.00    +0.000 OA
ATOM     17  C   UNL     1      -3.286  12.460  21.754  0.00  0.00    +0.000 C 
ATOM     18  C   UNL     1      -2.287  12.742  20.628  0.00  0.00    +0.000 C 
ATOM     19  H   UNL     1      -4.717  14.127  25.656  0.00  0.00    +0.000 HD
ENDBRANCH   7   8
BRANCH   1  23
ATOM     20  C   UNL     1      -0.838  17.056  18.577  0.00  0.00    +0.000 C 
ATOM     21  C   UNL     1       0.132  15.920  18.574  0.00  0.00    +0.000 A 
ATOM     22  C   UNL     1      -0.251  14.537  18.627  0.00  0.00    +0.000 A 
ATOM     23  C   UNL     1       0.803  13.691  18.912  0.00  0.00    +0.000 A 
ATOM     24  S   UNL     1       2.290  14.549  18.784  0.00  0.00    +0.000 S 
ATOM     25  C   UNL     1       1.509  16.040  18.512  0.00  0.00    +0.000 A 
BRANCH  25  26
ATOM     26  C   UNL     1       2.312  17.227  18.294  0.00  0.00    +0.000 C 
ATOM     27  O   UNL     1       2.283  17.922  17.282  0.00  0.00    +0.000 OA
ENDBRANCH  25  26
ENDBRANCH   1  23
TORSDOF 3
ENDMDL
MODEL 5
REMARK VINA RESULT:      -6.1      7.071     10.470
REMARK  Name = 
REMARK  4 active torsions:
REMARK  status: ('A' for Active; 'I' for Inactive)
REMARK    1  A    between atoms: C_1  and  C_2
REMARK    2  A    between atoms: C_4  and  C_5
REMARK    3  A    between atoms: C_11  and  N_12
REMARK    4  A    between atoms: C_24  and  C_25
REMARK                            x       y       z     vdW  Elec       q    Type
REMARK                         _______ _______ _______ _____ _____    ______ ____
ROOT
ATOM      1  C   UNL     1      -2.376  14.833  20.849  0.00  0.00    +0.000 A 
ATOM      2  C   UNL     1      -2.650  16.207  20.695  0.00  0.00    +0.000 A 
ATOM      3  N   UNL     1      -1.931  17.086  19.966  0.00  0.00    +0.000 NA
ATOM      4  C   UNL     1      -0.849  16.576  19.357  0.00  0.00    +0.000 A 
ATOM      5  C   UNL     1      -0.451  15.243  19.444  0.00  0.00    +0.000 A 
ATOM      6 CL   UNL     1       1.070  14.891  18.685  0.00  0.00    +0.000 Cl
ATOM      7  C   UNL     1      -1.218  14.299  20.196  0.00  0.00    +0.000 A 
ENDROOT
BRANCH   7   8
ATOM      8  N   UNL     1      -0.795  12.964  20.300  0.00  0.00    +0.000 N 
ATOM      9  C   UNL     1       0.255  12.523  21.229  0.00  0.00    +0.000 C 
ATOM     10  C   UNL     1       1.162  11.488  20.571  0.00  0.00    +0.000 C 
ATOM     11  C   UNL     1       0.371  10.342  19.914  0.00  0.00    +0.000 C 
ATOM     12  C   UNL     1      -0.240   9.349  20.932  0.00  0.00    +0.000 C 
ATOM     13  C   UNL     1       0.864   8.343  21.192  0.00  0.00    +0.000 C 
ATOM     14  N   UNL     1       1.593   8.334  19.965  0.00  0.00    +0.000 N 
ATOM     15  C   UNL     1       1.358   9.446  19.178  0.00  0.00    +0.000 C 
ATOM     16  O   UNL     1       1.915   9.675  18.123  0.00  0.00    +0.000 OA
ATOM     17  C   UNL     1      -0.685  10.921  18.969  0.00  0.00    +0.000 C 
ATOM     18  C   UNL     1      -1.610  11.883  19.722  0.00  0.00    +0.000 C 
ATOM     19  H   UNL     1       2.292   7.654  19.690  0.00  0.00    +0.000 HD
ENDBRANCH   7   8
BRANCH   1  23
ATOM     20  C   UNL     1      -4.498  12.411  24.829  0.00  0.00    +0.000 C 
ATOM     21  C   UNL     1      -4.391  12.917  23.428  0.00  0.00    +0.000 A 
ATOM     22  C   UNL     1      -3.163  13.343  22.819  0.00  0.00    +0.000 A 
ATOM     23  C   UNL     1      -3.351  14.041  21.642  0.00  0.00    +0.000 A 
ATOM     24  S   UNL     1      -4.986  13.883  21.127  0.00  0.00    +0.000 S 
ATOM     25  C   UNL     1      -5.441  13.036  22.535  0.00  0.00    +0.000 A 
BRANCH  25  26
ATOM     26  C   UNL     1      -6.812  12.584  22.672  0.00  0.00    +0.000 C 
ATOM     27  O   UNL     1      -7.271  11.561  22.170  0.00  0.00    +0.000 OA
ENDBRANCH  25  26
ENDBRANCH   1  23
TORSDOF 3
ENDMDL
MODEL 6
REMARK VINA RESULT:      -6.1      1.451      1.830
REMARK  Name = 
REMARK  4 active torsions:
REMARK  status: ('A' for Active; 'I' for Inactive)
REMARK    1  A    between atoms: C_1  and  C_2
REMARK    2  A    between atoms: C_4  and  C_5
REMARK    3  A    between atoms: C_11  and  N_12
REMARK    4  A    between atoms: C_24  and  C_25
REMARK                            x       y       z     vdW  Elec       q    Type
REMARK                         _______ _______ _______ _____ _____    ______ ____
ROOT
ATOM      1  C   UNL     1       1.977   4.915  20.073  0.00  0.00    +0.000 A 
ATOM      2  C   UNL     1       1.139   4.340  21.050  0.00  0.00    +0.000 A 
ATOM      3  N   UNL     1       1.118   3.041  21.417  0.00  0.00    +0.000 NA
ATOM      4  C   UNL     1       1.975   2.245  20.759  0.00  0.00    +0.000 A 
ATOM      5  C   UNL     1       2.840   2.679  19.756  0.00  0.00    +0.000 A 
ATOM      6 CL   UNL     1       3.726   1.411  18.967  0.00  0.00    +0.000 Cl
ATOM      7  C   UNL     1       2.886   4.056  19.375  0.00  0.00    +0.000 A 
ENDROOT
BRANCH   7   8
ATOM      8  N   UNL     1       3.743   4.479  18.346  0.00  0.00    +0.000 N 
ATOM      9  C   UNL     1       3.730   3.895  16.998  0.00  0.00    +0.000 C 
ATOM     10  C   UNL     1       5.149   3.731  16.462  0.00  0.00    +0.000 C 
ATOM     11  C   UNL     1       5.980   5.022  16.589  0.00  0.00    +0.000 C 
ATOM     12  C   UNL     1       5.583   6.116  15.569  0.00  0.00    +0.000 C 
ATOM     13  C   UNL     1       6.398   5.796  14.332  0.00  0.00    +0.000 C 
ATOM     14  N   UNL     1       7.569   5.177  14.863  0.00  0.00    +0.000 N 
ATOM     15  C   UNL     1       7.406   4.711  16.155  0.00  0.00    +0.000 C 
ATOM     16  O   UNL     1       8.248   4.100  16.780  0.00  0.00    +0.000 OA
ATOM     17  C   UNL     1       5.922   5.532  18.032  0.00  0.00    +0.000 C 
ATOM     18  C   UNL     1       4.470   5.754  18.466  0.00  0.00    +0.000 C 
ATOM     19  H   UNL     1       8.428   4.989  14.360  0.00  0.00    +0.000 HD
ENDBRANCH   7   8
BRANCH   1  23
ATOM     20  C   UNL     1       1.715   9.459  17.731  0.00  0.00    +0.000 C 
ATOM     21  C   UNL     1       1.742   8.507  18.881  0.00  0.00    +0.000 A 
ATOM     22  C   UNL     1       2.221   7.157  18.795  0.00  0.00    +0.000 A 
ATOM     23  C   UNL     1       1.877   6.385  19.888  0.00  0.00    +0.000 A 
ATOM     24  S   UNL     1       1.267   7.393  21.143  0.00  0.00    +0.000 S 
ATOM     25  C   UNL     1       1.323   8.792  20.169  0.00  0.00    +0.000 A 
BRANCH  25  26
ATOM     26  C   UNL     1       0.916  10.062  20.736  0.00  0.00    +0.000 C 
ATOM     27  O   UNL     1       1.168  10.438  21.878  0.00  0.00    +0.000 OA
ENDBRANCH  25  26
ENDBRANCH   1  23
TORSDOF 3
ENDMDL
MODEL 7
REMARK VINA RESULT:      -6.0      8.059     12.047
REMARK  Name = 
REMARK  4 active torsions:
REMARK  status: ('A' for Active; 'I' for Inactive)
REMARK    1  A    between atoms: C_1  and  C_2
REMARK    2  A    between atoms: C_4  and  C_5
REMARK    3  A    between atoms: C_11  and  N_12
REMARK    4  A    between atoms: C_24  and  C_25
REMARK                            x       y       z     vdW  Elec       q    Type
REMARK                         _______ _______ _______ _____ _____    ______ ____
ROOT
ATOM      1  C   UNL     1      -4.132  12.017  18.849  0.00  0.00    +0.000 A 
ATOM      2  C   UNL     1      -4.811  11.492  17.731  0.00  0.00    +0.000 A 
ATOM      3  N   UNL     1      -6.127  11.627  17.464  0.00  0.00    +0.000 NA
ATOM      4  C   UNL     1      -6.831  12.316  18.376  0.00  0.00    +0.000 A 
ATOM      5  C   UNL     1      -6.289  12.867  19.535  0.00  0.00    +0.000 A 
ATOM      6 CL   UNL     1      -7.453  13.572  20.614  0.00  0.00    +0.000 Cl
ATOM      7  C   UNL     1      -4.892  12.749  19.817  0.00  0.00    +0.000 A 
ENDROOT
BRANCH   7   8
ATOM      8  N   UNL     1      -4.360  13.287  21.001  0.00  0.00    +0.000 N 
ATOM      9  C   UNL     1      -4.077  14.717  21.178  0.00  0.00    +0.000 C 
ATOM     10  C   UNL     1      -2.765  14.923  21.930  0.00  0.00    +0.000 C 
ATOM     11  C   UNL     1      -2.690  14.093  23.225  0.00  0.00    +0.000 C 
ATOM     12  C   UNL     1      -3.579  14.645  24.365  0.00  0.00    +0.000 C 
ATOM     13  C   UNL     1      -2.711  15.676  25.059  0.00  0.00    +0.000 C 
ATOM     14  N   UNL     1      -1.389  15.182  24.852  0.00  0.00    +0.000 N 
ATOM     15  C   UNL     1      -1.299  14.267  23.819  0.00  0.00    +0.000 C 
ATOM     16  O   UNL     1      -0.265  13.763  23.430  0.00  0.00    +0.000 OA
ATOM     17  C   UNL     1      -2.998  12.626  22.915  0.00  0.00    +0.000 C 
ATOM     18  C   UNL     1      -4.367  12.494  22.242  0.00  0.00    +0.000 C 
ATOM     19  H   UNL     1      -0.550  15.501  25.323  0.00  0.00    +0.000 HD
ENDBRANCH   7   8
BRANCH   1  23
ATOM     20  C   UNL     1       0.751  12.513  20.306  0.00  0.00    +0.000 C 
ATOM     21  C   UNL     1      -0.400  11.972  19.522  0.00  0.00    +0.000 A 
ATOM     22  C   UNL     1      -1.676  12.622  19.418  0.00  0.00    +0.000 A 
ATOM     23  C   UNL     1      -2.662  11.806  18.899  0.00  0.00    +0.000 A 
ATOM     24  S   UNL     1      -1.953  10.381  18.243  0.00  0.00    +0.000 S 
ATOM     25  C   UNL     1      -0.394  10.797  18.793  0.00  0.00    +0.000 A 
BRANCH  25  26
ATOM     26  C   UNL     1       0.716   9.913  18.497  0.00  0.00    +0.000 C 
ATOM     27  O   UNL     1       1.231   9.134  19.296  0.00  0.00    +0.000 OA
ENDBRANCH  25  26
ENDBRANCH   1  23
TORSDOF 3
ENDMDL
MODEL 8
REMARK VINA RESULT:      -6.0      8.409     12.134
REMARK  Name = 
REMARK  4 active torsions:
REMARK  status: ('A' for Active; 'I' for Inactive)
REMARK    1  A    between atoms: C_1  and  C_2
REMARK    2  A    between atoms: C_4  and  C_5
REMARK    3  A    between atoms: C_11  and  N_12
REMARK    4  A    between atoms: C_24  and  C_25
REMARK                            x       y       z     vdW  Elec       q    Type
REMARK                         _______ _______ _______ _____ _____    ______ ____
ROOT
ATOM      1  C   UNL     1      -3.385  11.964  18.913  0.00  0.00    +0.000 A 
ATOM      2  C   UNL     1      -3.761  11.306  17.725  0.00  0.00    +0.000 A 
ATOM      3  N   UNL     1      -4.994  11.295  17.177  0.00  0.00    +0.000 NA
ATOM      4  C   UNL     1      -5.932  11.968  17.861  0.00  0.00    +0.000 A 
ATOM      5  C   UNL     1      -5.702  12.641  19.059  0.00  0.00    +0.000 A 
ATOM      6 CL   UNL     1      -7.125  13.295  19.808  0.00  0.00    +0.000 Cl
ATOM      7  C   UNL     1      -4.394  12.678  19.636  0.00  0.00    +0.000 A 
ENDROOT
BRANCH   7   8
ATOM      8  N   UNL     1      -4.176  13.338  20.858  0.00  0.00    +0.000 N 
ATOM      9  C   UNL     1      -3.982  14.790  20.963  0.00  0.00    +0.000 C 
ATOM     10  C   UNL     1      -2.895  15.121  21.981  0.00  0.00    +0.000 C 
ATOM     11  C   UNL     1      -3.112  14.408  23.329  0.00  0.00    +0.000 C 
ATOM     12  C   UNL     1      -4.264  15.011  24.169  0.00  0.00    +0.000 C 
ATOM     13  C   UNL     1      -3.615  16.136  24.950  0.00  0.00    +0.000 C 
ATOM     14  N   UNL     1      -2.269  15.691  25.109  0.00  0.00    +0.000 N 
ATOM     15  C   UNL     1      -1.910  14.697  24.217  0.00  0.00    +0.000 C 
ATOM     16  O   UNL     1      -0.800  14.213  24.133  0.00  0.00    +0.000 OA
ATOM     17  C   UNL     1      -3.298  12.906  23.093  0.00  0.00    +0.000 C 
ATOM     18  C   UNL     1      -4.461  12.653  22.129  0.00  0.00    +0.000 C 
ATOM     19  H   UNL     1      -1.577  16.088  25.733  0.00  0.00    +0.000 HD
ENDBRANCH   7   8
BRANCH   1  23
ATOM     20  C   UNL     1       0.952  10.319  21.079  0.00  0.00    +0.000 C 
ATOM     21  C   UNL     1       0.084  11.198  20.239  0.00  0.00    +0.000 A 
ATOM     22  C   UNL     1      -1.346  11.253  20.348  0.00  0.00    +0.000 A 
ATOM     23  C   UNL     1      -1.948  11.901  19.287  0.00  0.00    +0.000 A 
ATOM     24  S   UNL     1      -0.756  12.715  18.349  0.00  0.00    +0.000 S 
ATOM     25  C   UNL     1       0.531  12.072  19.265  0.00  0.00    +0.000 A 
BRANCH  25  26
ATOM     26  C   UNL     1       1.890  12.449  18.930  0.00  0.00    +0.000 C 
ATOM     27  O   UNL     1       2.480  13.431  19.375  0.00  0.00    +0.000 OA
ENDBRANCH  25  26
ENDBRANCH   1  23
TORSDOF 3
ENDMDL
MODEL 9
REMARK VINA RESULT:      -5.9      7.046      9.946
REMARK  Name = 
REMARK  4 active torsions:
REMARK  status: ('A' for Active; 'I' for Inactive)
REMARK    1  A    between atoms: C_1  and  C_2
REMARK    2  A    between atoms: C_4  and  C_5
REMARK    3  A    between atoms: C_11  and  N_12
REMARK    4  A    between atoms: C_24  and  C_25
REMARK                            x       y       z     vdW  Elec       q    Type
REMARK                         _______ _______ _______ _____ _____    ______ ____
ROOT
ATOM      1  C   UNL     1      -0.928  12.474  21.484  0.00  0.00    +0.000 A 
ATOM      2  C   UNL     1      -1.907  12.155  22.447  0.00  0.00    +0.000 A 
ATOM      3  N   UNL     1      -2.273  12.922  23.496  0.00  0.00    +0.000 NA
ATOM      4  C   UNL     1      -1.610  14.083  23.616  0.00  0.00    +0.000 A 
ATOM      5  C   UNL     1      -0.605  14.509  22.750  0.00  0.00    +0.000 A 
ATOM      6 CL   UNL     1       0.189  15.977  23.230  0.00  0.00    +0.000 Cl
ATOM      7  C   UNL     1      -0.226  13.715  21.624  0.00  0.00    +0.000 A 
ENDROOT
BRANCH   7   8
ATOM      8  N   UNL     1       0.807  14.141  20.771  0.00  0.00    +0.000 N 
ATOM      9  C   UNL     1       2.212  13.759  20.958  0.00  0.00    +0.000 C 
ATOM     10  C   UNL     1       3.138  14.938  20.675  0.00  0.00    +0.000 C 
ATOM     11  C   UNL     1       2.837  15.615  19.325  0.00  0.00    +0.000 C 
ATOM     12  C   UNL     1       3.302  14.790  18.102  0.00  0.00    +0.000 C 
ATOM     13  C   UNL     1       4.749  15.193  17.900  0.00  0.00    +0.000 C 
ATOM     14  N   UNL     1       4.786  16.534  18.386  0.00  0.00    +0.000 N 
ATOM     15  C   UNL     1       3.719  16.850  19.207  0.00  0.00    +0.000 C 
ATOM     16  O   UNL     1       3.578  17.912  19.778  0.00  0.00    +0.000 OA
ATOM     17  C   UNL     1       1.349  15.969  19.248  0.00  0.00    +0.000 C 
ATOM     18  C   UNL     1       0.487  14.720  19.455  0.00  0.00    +0.000 C 
ATOM     19  H   UNL     1       5.538  17.200  18.250  0.00  0.00    +0.000 HD
ENDBRANCH   7   8
BRANCH   1  23
ATOM     20  C   UNL     1      -1.718  10.046  17.048  0.00  0.00    +0.000 C 
ATOM     21  C   UNL     1      -1.040  10.354  18.343  0.00  0.00    +0.000 A 
ATOM     22  C   UNL     1      -1.649  11.097  19.410  0.00  0.00    +0.000 A 
ATOM     23  C   UNL     1      -0.745  11.509  20.371  0.00  0.00    +0.000 A 
ATOM     24  S   UNL     1       0.762  10.711  20.133  0.00  0.00    +0.000 S 
ATOM     25  C   UNL     1       0.242   9.966  18.691  0.00  0.00    +0.000 A 
BRANCH  25  26
ATOM     26  C   UNL     1       1.150   9.082  17.988  0.00  0.00    +0.000 C 
ATOM     27  O   UNL     1       2.157   9.441  17.382  0.00  0.00    +0.000 OA
ENDBRANCH  25  26
ENDBRANCH   1  23
TORSDOF 3
ENDMDL
