MODEL 1
REMARK VINA RESULT:      -8.2      0.000      0.000
REMARK  Name = 
REMARK  9 active torsions:
REMARK  status: ('A' for Active; 'I' for Inactive)
REMARK    1  A    between atoms: C_1  and  C_2
REMARK    2  A    between atoms: C_2  and  O_3
REMARK    3  A    between atoms: O_3  and  C_4
REMARK    4  A    between atoms: C_9  and  N_10
REMARK    5  A    between atoms: C_11  and  C_13
REMARK    6  A    between atoms: C_13  and  O_14
REMARK    7  A    between atoms: O_14  and  C_15
REMARK    8  A    between atoms: C_18  and  S_19
REMARK    9  A    between atoms: S_19  and  N_22
REMARK                            x       y       z     vdW  Elec       q    Type
REMARK                         _______ _______ _______ _____ _____    ______ ____
ROOT
ATOM      1  O   UNL     1       7.278   8.059  17.098  0.00  0.00    +0.000 OA
ENDROOT
BRANCH   1   2
ATOM      2  C   UNL     1       6.511   6.975  17.443  0.00  0.00    +0.000 A 
ATOM      3  C   UNL     1       5.355   6.543  16.783  0.00  0.00    +0.000 A 
ATOM      4  C   UNL     1       4.678   5.394  17.211  0.00  0.00    +0.000 A 
ATOM      5  C   UNL     1       5.152   4.676  18.312  0.00  0.00    +0.000 A 
ATOM      6  C   UNL     1       6.282   5.127  18.999  0.00  0.00    +0.000 A 
ATOM      7  C   UNL     1       6.975   6.252  18.544  0.00  0.00    +0.000 A 
BRANCH   5   8
ATOM      8  S   UNL     1       4.232   3.268  18.907  0.00  0.00    +0.000 S 
ATOM      9  O   UNL     1       3.582   2.676  17.755  0.00  0.00    +0.000 OA
ATOM     10  O   UNL     1       5.122   2.490  19.741  0.00  0.00    +0.000 OA
BRANCH   8  11
ATOM     11  N   UNL     1       3.034   3.903  19.909  0.00  0.00    +0.000 NA
ATOM     12  C   UNL     1       2.744   3.299  21.215  0.00  0.00    +0.000 C 
ATOM     13  C   UNL     1       1.322   2.790  21.075  0.00  0.00    +0.000 C 
ATOM     14  C   UNL     1       0.657   3.796  20.152  0.00  0.00    +0.000 C 
ATOM     15  C   UNL     1       1.780   4.408  19.320  0.00  0.00    +0.000 C 
ENDBRANCH   8  11
ENDBRANCH   5   8
ENDBRANCH   1   2
BRANCH   1  16
ATOM     16  C   UNL     1       8.397   8.288  17.936  0.00  0.00    +0.000 C 
BRANCH  16  18
ATOM     17  N   UNL     1       9.389   9.935  19.476  0.00  0.00    +0.000 N 
ATOM     18  C   UNL     1       8.590   9.739  18.363  0.00  0.00    +0.000 C 
ATOM     19  O   UNL     1       8.011  10.617  17.722  0.00  0.00    +0.000 OA
ATOM     20  H   UNL     1       9.977   9.162  19.779  0.00  0.00    +0.000 HD
BRANCH  17  26
ATOM     21  C   UNL     1      10.451  12.144  19.542  0.00  0.00    +0.000 A 
ATOM     22  C   UNL     1      10.588  13.401  20.156  0.00  0.00    +0.000 A 
ATOM     23  C   UNL     1       9.975  13.673  21.379  0.00  0.00    +0.000 A 
ATOM     24  C   UNL     1       9.207  12.697  21.994  0.00  0.00    +0.000 A 
ATOM     25  C   UNL     1       9.018  11.467  21.368  0.00  0.00    +0.000 A 
ATOM     26  C   UNL     1       9.606  11.178  20.127  0.00  0.00    +0.000 A 
BRANCH  21  27
ATOM     27  O   UNL     1      11.107  11.801  18.376  0.00  0.00    +0.000 OA
BRANCH  27  29
ATOM     28  C   UNL     1      12.333  13.195  16.832  0.00  0.00    +0.000 C 
ATOM     29  C   UNL     1      10.964  12.750  17.308  0.00  0.00    +0.000 C 
ENDBRANCH  27  29
ENDBRANCH  21  27
ENDBRANCH  17  26
ENDBRANCH  16  18
ENDBRANCH   1  16
TORSDOF 8
ENDMDL
MODEL 2
REMARK VINA RESULT:      -7.9      3.872     10.084
REMARK  Name = 
REMARK  9 active torsions:
REMARK  status: ('A' for Active; 'I' for Inactive)
REMARK    1  A    between atoms: C_1  and  C_2
REMARK    2  A    between atoms: C_2  and  O_3
REMARK    3  A    between atoms: O_3  and  C_4
REMARK    4  A    between atoms: C_9  and  N_10
REMARK    5  A    between atoms: C_11  and  C_13
REMARK    6  A    between atoms: C_13  and  O_14
REMARK    7  A    between atoms: O_14  and  C_15
REMARK    8  A    between atoms: C_18  and  S_19
REMARK    9  A    between atoms: S_19  and  N_22
REMARK                            x       y       z     vdW  Elec       q    Type
REMARK                         _______ _______ _______ _____ _____    ______ ____
ROOT
ATOM      1  O   UNL     1       8.968   9.370  19.138  0.00  0.00    +0.000 OA
ENDROOT
BRANCH   1   2
ATOM      2  C   UNL     1       9.499  10.635  19.166  0.00  0.00    +0.000 A 
ATOM      3  C   UNL     1      10.174  11.218  20.244  0.00  0.00    +0.000 A 
ATOM      4  C   UNL     1      10.706  12.509  20.136  0.00  0.00    +0.000 A 
ATOM      5  C   UNL     1      10.555  13.228  18.948  0.00  0.00    +0.000 A 
ATOM      6  C   UNL     1       9.846  12.665  17.883  0.00  0.00    +0.000 A 
ATOM      7  C   UNL     1       9.351  11.361  17.984  0.00  0.00    +0.000 A 
BRANCH   5   8
ATOM      8  S   UNL     1      11.154  14.906  18.850  0.00  0.00    +0.000 S 
ATOM      9  O   UNL     1      11.994  15.118  20.012  0.00  0.00    +0.000 OA
ATOM     10  O   UNL     1      11.669  15.105  17.513  0.00  0.00    +0.000 OA
BRANCH   8  11
ATOM     11  N   UNL     1       9.789  15.882  19.011  0.00  0.00    +0.000 NA
ATOM     12  C   UNL     1       8.896  15.747  20.168  0.00  0.00    +0.000 C 
ATOM     13  C   UNL     1       7.584  15.281  19.565  0.00  0.00    +0.000 C 
ATOM     14  C   UNL     1       7.536  15.960  18.208  0.00  0.00    +0.000 C 
ATOM     15  C   UNL     1       8.989  16.221  17.819  0.00  0.00    +0.000 C 
ENDBRANCH   8  11
ENDBRANCH   5   8
ENDBRANCH   1   2
BRANCH   1  16
ATOM     16  C   UNL     1       8.347   9.012  17.916  0.00  0.00    +0.000 C 
BRANCH  16  18
ATOM     17  N   UNL     1       6.697   7.435  16.991  0.00  0.00    +0.000 N 
ATOM     18  C   UNL     1       7.723   7.621  17.900  0.00  0.00    +0.000 C 
ATOM     19  O   UNL     1       8.144   6.784  18.700  0.00  0.00    +0.000 OA
ATOM     20  H   UNL     1       6.592   8.123  16.248  0.00  0.00    +0.000 HD
BRANCH  17  26
ATOM     21  C   UNL     1       6.230   5.255  15.971  0.00  0.00    +0.000 A 
ATOM     22  C   UNL     1       5.468   4.074  15.939  0.00  0.00    +0.000 A 
ATOM     23  C   UNL     1       4.328   3.934  16.730  0.00  0.00    +0.000 A 
ATOM     24  C   UNL     1       3.946   4.966  17.573  0.00  0.00    +0.000 A 
ATOM     25  C   UNL     1       4.725   6.118  17.655  0.00  0.00    +0.000 A 
ATOM     26  C   UNL     1       5.888   6.273  16.885  0.00  0.00    +0.000 A 
BRANCH  21  27
ATOM     27  O   UNL     1       7.316   5.472  15.146  0.00  0.00    +0.000 OA
BRANCH  27  29
ATOM     28  C   UNL     1       8.146   5.539  12.879  0.00  0.00    +0.000 C 
ATOM     29  C   UNL     1       7.225   4.840  13.860  0.00  0.00    +0.000 C 
ENDBRANCH  27  29
ENDBRANCH  21  27
ENDBRANCH  17  26
ENDBRANCH  16  18
ENDBRANCH   1  16
TORSDOF 8
ENDMDL
MODEL 3
REMARK VINA RESULT:      -7.7      0.704      1.090
REMARK  Name = 
REMARK  9 active torsions:
REMARK  status: ('A' for Active; 'I' for Inactive)
REMARK    1  A    between atoms: C_1  and  C_2
REMARK    2  A    between atoms: C_2  and  O_3
REMARK    3  A    between atoms: O_3  and  C_4
REMARK    4  A    between atoms: C_9  and  N_10
REMARK    5  A    between atoms: C_11  and  C_13
REMARK    6  A    between atoms: C_13  and  O_14
REMARK    7  A    between atoms: O_14  and  C_15
REMARK    8  A    between atoms: C_18  and  S_19
REMARK    9  A    between atoms: S_19  and  N_22
REMARK                            x       y       z     vdW  Elec       q    Type
REMARK                         _______ _______ _______ _____ _____    ______ ____
ROOT
ATOM      1  O   UNL     1       7.109   7.903  17.115  0.00  0.00    +0.000 OA
ENDROOT
BRANCH   1   2
ATOM      2  C   UNL     1       6.371   6.787  17.420  0.00  0.00    +0.000 A 
ATOM      3  C   UNL     1       5.328   6.258  16.653  0.00  0.00    +0.000 A 
ATOM      4  C   UNL     1       4.673   5.086  17.054  0.00  0.00    +0.000 A 
ATOM      5  C   UNL     1       5.055   4.445  18.235  0.00  0.00    +0.000 A 
ATOM      6  C   UNL     1       6.068   4.993  19.026  0.00  0.00    +0.000 A 
ATOM      7  C   UNL     1       6.743   6.141  18.600  0.00  0.00    +0.000 A 
BRANCH   5   8
ATOM      8  S   UNL     1       4.154   3.007  18.787  0.00  0.00    +0.000 S 
ATOM      9  O   UNL     1       3.816   2.245  17.602  0.00  0.00    +0.000 OA
ATOM     10  O   UNL     1       4.911   2.408  19.865  0.00  0.00    +0.000 OA
BRANCH   8  11
ATOM     11  N   UNL     1       2.722   3.599  19.450  0.00  0.00    +0.000 NA
ATOM     12  C   UNL     1       1.675   4.173  18.597  0.00  0.00    +0.000 C 
ATOM     13  C   UNL     1       1.610   5.626  19.026  0.00  0.00    +0.000 C 
ATOM     14  C   UNL     1       1.926   5.590  20.511  0.00  0.00    +0.000 C 
ATOM     15  C   UNL     1       2.757   4.329  20.731  0.00  0.00    +0.000 C 
ENDBRANCH   8  11
ENDBRANCH   5   8
ENDBRANCH   1   2
BRANCH   1  16
ATOM     16  C   UNL     1       8.243   8.111  17.938  0.00  0.00    +0.000 C 
BRANCH  16  18
ATOM     17  N   UNL     1       9.318   9.746  19.434  0.00  0.00    +0.000 N 
ATOM     18  C   UNL     1       8.474   9.560  18.354  0.00  0.00    +0.000 C 
ATOM     19  O   UNL     1       7.883  10.445  17.734  0.00  0.00    +0.000 OA
ATOM     20  H   UNL     1       9.906   8.965  19.716  0.00  0.00    +0.000 HD
BRANCH  17  26
ATOM     21  C   UNL     1      10.455  11.918  19.478  0.00  0.00    +0.000 A 
ATOM     22  C   UNL     1      10.636  13.175  20.081  0.00  0.00    +0.000 A 
ATOM     23  C   UNL     1      10.035  13.478  21.302  0.00  0.00    +0.000 A 
ATOM     24  C   UNL     1       9.235  12.535  21.928  0.00  0.00    +0.000 A 
ATOM     25  C   UNL     1       9.004  11.306  21.313  0.00  0.00    +0.000 A 
ATOM     26  C   UNL     1       9.579  10.986  20.074  0.00  0.00    +0.000 A 
BRANCH  21  27
ATOM     27  O   UNL     1      11.096  11.543  18.314  0.00  0.00    +0.000 OA
BRANCH  27  29
ATOM     28  C   UNL     1      11.299  13.243  16.612  0.00  0.00    +0.000 C 
ATOM     29  C   UNL     1      11.977  12.537  17.770  0.00  0.00    +0.000 C 
ENDBRANCH  27  29
ENDBRANCH  21  27
ENDBRANCH  17  26
ENDBRANCH  16  18
ENDBRANCH   1  16
TORSDOF 8
ENDMDL
MODEL 4
REMARK VINA RESULT:      -7.7      5.895      8.321
REMARK  Name = 
REMARK  9 active torsions:
REMARK  status: ('A' for Active; 'I' for Inactive)
REMARK    1  A    between atoms: C_1  and  C_2
REMARK    2  A    between atoms: C_2  and  O_3
REMARK    3  A    between atoms: O_3  and  C_4
REMARK    4  A    between atoms: C_9  and  N_10
REMARK    5  A    between atoms: C_11  and  C_13
REMARK    6  A    between atoms: C_13  and  O_14
REMARK    7  A    between atoms: O_14  and  C_15
REMARK    8  A    between atoms: C_18  and  S_19
REMARK    9  A    between atoms: S_19  and  N_22
REMARK                            x       y       z     vdW  Elec       q    Type
REMARK                         _______ _______ _______ _____ _____    ______ ____
ROOT
ATOM      1  O   UNL     1       1.608   6.845  20.743  0.00  0.00    +0.000 OA
ENDROOT
BRANCH   1   2
ATOM      2  C   UNL     1       2.426   6.679  19.654  0.00  0.00    +0.000 A 
ATOM      3  C   UNL     1       2.592   7.591  18.606  0.00  0.00    +0.000 A 
ATOM      4  C   UNL     1       3.490   7.323  17.565  0.00  0.00    +0.000 A 
ATOM      5  C   UNL     1       4.220   6.132  17.564  0.00  0.00    +0.000 A 
ATOM      6  C   UNL     1       4.027   5.200  18.587  0.00  0.00    +0.000 A 
ATOM      7  C   UNL     1       3.158   5.491  19.643  0.00  0.00    +0.000 A 
BRANCH   5   8
ATOM      8  S   UNL     1       5.291   5.757  16.188  0.00  0.00    +0.000 S 
ATOM      9  O   UNL     1       5.054   4.370  15.839  0.00  0.00    +0.000 OA
ATOM     10  O   UNL     1       5.124   6.809  15.209  0.00  0.00    +0.000 OA
BRANCH   8  11
ATOM     11  N   UNL     1       6.861   5.879  16.791  0.00  0.00    +0.000 NA
ATOM     12  C   UNL     1       7.467   4.778  17.547  0.00  0.00    +0.000 C 
ATOM     13  C   UNL     1       7.679   5.358  18.933  0.00  0.00    +0.000 C 
ATOM     14  C   UNL     1       7.987   6.823  18.679  0.00  0.00    +0.000 C 
ATOM     15  C   UNL     1       7.333   7.163  17.342  0.00  0.00    +0.000 C 
ENDBRANCH   8  11
ENDBRANCH   5   8
ENDBRANCH   1   2
BRANCH   1  16
ATOM     16  C   UNL     1       1.685   8.119  21.358  0.00  0.00    +0.000 C 
BRANCH  16  18
ATOM     17  N   UNL     1       0.388  10.208  21.503  0.00  0.00    +0.000 N 
ATOM     18  C   UNL     1       0.345   8.825  21.534  0.00  0.00    +0.000 C 
ATOM     19  O   UNL     1      -0.658   8.134  21.719  0.00  0.00    +0.000 OA
ATOM     20  H   UNL     1       1.227  10.647  21.131  0.00  0.00    +0.000 HD
BRANCH  17  26
ATOM     21  C   UNL     1      -1.152  11.972  20.779  0.00  0.00    +0.000 A 
ATOM     22  C   UNL     1      -2.288  12.762  21.029  0.00  0.00    +0.000 A 
ATOM     23  C   UNL     1      -2.922  12.736  22.270  0.00  0.00    +0.000 A 
ATOM     24  C   UNL     1      -2.437  11.909  23.272  0.00  0.00    +0.000 A 
ATOM     25  C   UNL     1      -1.346  11.081  23.018  0.00  0.00    +0.000 A 
ATOM     26  C   UNL     1      -0.705  11.073  21.770  0.00  0.00    +0.000 A 
BRANCH  21  27
ATOM     27  O   UNL     1      -0.442  12.028  19.596  0.00  0.00    +0.000 OA
BRANCH  27  29
ATOM     28  C   UNL     1       1.098  13.454  18.401  0.00  0.00    +0.000 C 
ATOM     29  C   UNL     1      -0.259  13.352  19.071  0.00  0.00    +0.000 C 
ENDBRANCH  27  29
ENDBRANCH  21  27
ENDBRANCH  17  26
ENDBRANCH  16  18
ENDBRANCH   1  16
TORSDOF 8
ENDMDL
MODEL 5
REMARK VINA RESULT:      -7.6      1.403      2.676
REMARK  Name = 
REMARK  9 active torsions:
REMARK  status: ('A' for Active; 'I' for Inactive)
REMARK    1  A    between atoms: C_1  and  C_2
REMARK    2  A    between atoms: C_2  and  O_3
REMARK    3  A    between atoms: O_3  and  C_4
REMARK    4  A    between atoms: C_9  and  N_10
REMARK    5  A    between atoms: C_11  and  C_13
REMARK    6  A    between atoms: C_13  and  O_14
REMARK    7  A    between atoms: O_14  and  C_15
REMARK    8  A    between atoms: C_18  and  S_19
REMARK    9  A    between atoms: S_19  and  N_22
REMARK                            x       y       z     vdW  Elec       q    Type
REMARK                         _______ _______ _______ _____ _____    ______ ____
ROOT
ATOM      1  O   UNL     1       8.007   7.890  17.112  0.00  0.00    +0.000 OA
ENDROOT
BRANCH   1   2
ATOM      2  C   UNL     1       7.121   6.874  17.371  0.00  0.00    +0.000 A 
ATOM      3  C   UNL     1       6.112   6.426  16.512  0.00  0.00    +0.000 A 
ATOM      4  C   UNL     1       5.293   5.350  16.876  0.00  0.00    +0.000 A 
ATOM      5  C   UNL     1       5.475   4.724  18.112  0.00  0.00    +0.000 A 
ATOM      6  C   UNL     1       6.454   5.195  18.990  0.00  0.00    +0.000 A 
ATOM      7  C   UNL     1       7.293   6.244  18.604  0.00  0.00    +0.000 A 
BRANCH   5   8
ATOM      8  S   UNL     1       4.367   3.416  18.607  0.00  0.00    +0.000 S 
ATOM      9  O   UNL     1       4.093   2.628  17.422  0.00  0.00    +0.000 OA
ATOM     10  O   UNL     1       4.922   2.804  19.795  0.00  0.00    +0.000 OA
BRANCH   8  11
ATOM     11  N   UNL     1       2.937   4.184  19.063  0.00  0.00    +0.000 NA
ATOM     12  C   UNL     1       2.037   4.762  18.058  0.00  0.00    +0.000 C 
ATOM     13  C   UNL     1       2.064   6.249  18.355  0.00  0.00    +0.000 C 
ATOM     14  C   UNL     1       2.228   6.325  19.863  0.00  0.00    +0.000 C 
ATOM     15  C   UNL     1       2.913   5.024  20.275  0.00  0.00    +0.000 C 
ENDBRANCH   8  11
ENDBRANCH   5   8
ENDBRANCH   1   2
BRANCH   1  16
ATOM     16  C   UNL     1       7.638   9.151  17.643  0.00  0.00    +0.000 C 
BRANCH  16  18
ATOM     17  N   UNL     1       9.011  11.166  17.992  0.00  0.00    +0.000 N 
ATOM     18  C   UNL     1       8.744   9.872  18.405  0.00  0.00    +0.000 C 
ATOM     19  O   UNL     1       9.333   9.259  19.296  0.00  0.00    +0.000 OA
ATOM     20  H   UNL     1       8.322  11.627  17.404  0.00  0.00    +0.000 HD
BRANCH  17  26
ATOM     21  C   UNL     1       9.961  12.639  19.706  0.00  0.00    +0.000 A 
ATOM     22  C   UNL     1      11.054  13.372  20.199  0.00  0.00    +0.000 A 
ATOM     23  C   UNL     1      12.212  13.531  19.439  0.00  0.00    +0.000 A 
ATOM     24  C   UNL     1      12.296  12.947  18.184  0.00  0.00    +0.000 A 
ATOM     25  C   UNL     1      11.241  12.173  17.709  0.00  0.00    +0.000 A 
ATOM     26  C   UNL     1      10.074  11.980  18.464  0.00  0.00    +0.000 A 
BRANCH  21  27
ATOM     27  O   UNL     1       8.764  12.526  20.386  0.00  0.00    +0.000 OA
BRANCH  27  29
ATOM     28  C   UNL     1       8.348  12.882  22.738  0.00  0.00    +0.000 C 
ATOM     29  C   UNL     1       8.868  11.923  21.684  0.00  0.00    +0.000 C 
ENDBRANCH  27  29
ENDBRANCH  21  27
ENDBRANCH  17  26
ENDBRANCH  16  18
ENDBRANCH   1  16
TORSDOF 8
ENDMDL
MODEL 6
REMARK VINA RESULT:      -7.6      1.427      2.856
REMARK  Name = 
REMARK  9 active torsions:
REMARK  status: ('A' for Active; 'I' for Inactive)
REMARK    1  A    between atoms: C_1  and  C_2
REMARK    2  A    between atoms: C_2  and  O_3
REMARK    3  A    between atoms: O_3  and  C_4
REMARK    4  A    between atoms: C_9  and  N_10
REMARK    5  A    between atoms: C_11  and  C_13
REMARK    6  A    between atoms: C_13  and  O_14
REMARK    7  A    between atoms: O_14  and  C_15
REMARK    8  A    between atoms: C_18  and  S_19
REMARK    9  A    between atoms: S_19  and  N_22
REMARK                            x       y       z     vdW  Elec       q    Type
REMARK                         _______ _______ _______ _____ _____    ______ ____
ROOT
ATOM      1  O   UNL     1       7.660   6.502  17.405  0.00  0.00    +0.000 OA
ENDROOT
BRANCH   1   2
ATOM      2  C   UNL     1       6.626   5.624  17.611  0.00  0.00    +0.000 A 
ATOM      3  C   UNL     1       6.373   4.914  18.789  0.00  0.00    +0.000 A 
ATOM      4  C   UNL     1       5.257   4.073  18.888  0.00  0.00    +0.000 A 
ATOM      5  C   UNL     1       4.394   3.930  17.799  0.00  0.00    +0.000 A 
ATOM      6  C   UNL     1       4.666   4.605  16.606  0.00  0.00    +0.000 A 
ATOM      7  C   UNL     1       5.759   5.473  16.527  0.00  0.00    +0.000 A 
BRANCH   5   8
ATOM      8  S   UNL     1       3.029   2.786  17.901  0.00  0.00    +0.000 S 
ATOM      9  O   UNL     1       2.283   2.912  16.665  0.00  0.00    +0.000 OA
ATOM     10  O   UNL     1       3.565   1.508  18.319  0.00  0.00    +0.000 OA
BRANCH   8  11
ATOM     11  N   UNL     1       2.057   3.355  19.155  0.00  0.00    +0.000 NA
ATOM     12  C   UNL     1       1.748   4.784  19.283  0.00  0.00    +0.000 C 
ATOM     13  C   UNL     1       2.398   5.183  20.593  0.00  0.00    +0.000 C 
ATOM     14  C   UNL     1       2.271   3.945  21.464  0.00  0.00    +0.000 C 
ATOM     15  C   UNL     1       2.180   2.764  20.501  0.00  0.00    +0.000 C 
ENDBRANCH   8  11
ENDBRANCH   5   8
ENDBRANCH   1   2
BRANCH   1  16
ATOM     16  C   UNL     1       8.011   7.283  18.534  0.00  0.00    +0.000 C 
BRANCH  16  18
ATOM     17  N   UNL     1       9.191   9.362  19.129  0.00  0.00    +0.000 N 
ATOM     18  C   UNL     1       8.351   8.737  18.224  0.00  0.00    +0.000 C 
ATOM     19  O   UNL     1       7.843   9.255  17.229  0.00  0.00    +0.000 OA
ATOM     20  H   UNL     1       9.710   8.774  19.778  0.00  0.00    +0.000 HD
BRANCH  17  26
ATOM     21  C   UNL     1       9.365  11.521  20.276  0.00  0.00    +0.000 A 
ATOM     22  C   UNL     1       9.795  12.860  20.273  0.00  0.00    +0.000 A 
ATOM     23  C   UNL     1      10.305  13.447  19.117  0.00  0.00    +0.000 A 
ATOM     24  C   UNL     1      10.406  12.700  17.954  0.00  0.00    +0.000 A 
ATOM     25  C   UNL     1      10.036  11.357  17.959  0.00  0.00    +0.000 A 
ATOM     26  C   UNL     1       9.540  10.738  19.117  0.00  0.00    +0.000 A 
BRANCH  21  27
ATOM     27  O   UNL     1       8.775  10.923  21.372  0.00  0.00    +0.000 OA
BRANCH  27  29
ATOM     28  C   UNL     1       7.278  11.838  23.031  0.00  0.00    +0.000 C 
ATOM     29  C   UNL     1       8.711  11.751  22.543  0.00  0.00    +0.000 C 
ENDBRANCH  27  29
ENDBRANCH  21  27
ENDBRANCH  17  26
ENDBRANCH  16  18
ENDBRANCH   1  16
TORSDOF 8
ENDMDL
MODEL 7
REMARK VINA RESULT:      -7.5      6.228      9.124
REMARK  Name = 
REMARK  9 active torsions:
REMARK  status: ('A' for Active; 'I' for Inactive)
REMARK    1  A    between atoms: C_1  and  C_2
REMARK    2  A    between atoms: C_2  and  O_3
REMARK    3  A    between atoms: O_3  and  C_4
REMARK    4  A    between atoms: C_9  and  N_10
REMARK    5  A    between atoms: C_11  and  C_13
REMARK    6  A    between atoms: C_13  and  O_14
REMARK    7  A    between atoms: O_14  and  C_15
REMARK    8  A    between atoms: C_18  and  S_19
REMARK    9  A    between atoms: S_19  and  N_22
REMARK                            x       y       z     vdW  Elec       q    Type
REMARK                         _______ _______ _______ _____ _____    ______ ____
ROOT
ATOM      1  O   UNL     1       1.778   9.083  17.382  0.00  0.00    +0.000 OA
ENDROOT
BRANCH   1   2
ATOM      2  C   UNL     1       2.548   8.029  17.807  0.00  0.00    +0.000 A 
ATOM      3  C   UNL     1       2.174   7.067  18.751  0.00  0.00    +0.000 A 
ATOM      4  C   UNL     1       3.037   6.012  19.073  0.00  0.00    +0.000 A 
ATOM      5  C   UNL     1       4.289   5.924  18.458  0.00  0.00    +0.000 A 
ATOM      6  C   UNL     1       4.683   6.906  17.545  0.00  0.00    +0.000 A 
ATOM      7  C   UNL     1       3.801   7.934  17.199  0.00  0.00    +0.000 A 
BRANCH   5   8
ATOM      8  S   UNL     1       5.419   4.632  18.943  0.00  0.00    +0.000 S 
ATOM      9  O   UNL     1       6.500   5.272  19.666  0.00  0.00    +0.000 OA
ATOM     10  O   UNL     1       4.638   3.578  19.553  0.00  0.00    +0.000 OA
BRANCH   8  11
ATOM     11  N   UNL     1       6.048   4.019  17.504  0.00  0.00    +0.000 NA
ATOM     12  C   UNL     1       7.329   4.500  16.974  0.00  0.00    +0.000 C 
ATOM     13  C   UNL     1       6.956   5.169  15.666  0.00  0.00    +0.000 C 
ATOM     14  C   UNL     1       5.787   4.350  15.149  0.00  0.00    +0.000 C 
ATOM     15  C   UNL     1       5.142   3.719  16.380  0.00  0.00    +0.000 C 
ENDBRANCH   8  11
ENDBRANCH   5   8
ENDBRANCH   1   2
BRANCH   1  16
ATOM     16  C   UNL     1       1.654  10.143  18.314  0.00  0.00    +0.000 C 
BRANCH  16  18
ATOM     17  N   UNL     1      -0.576  11.184  18.203  0.00  0.00    +0.000 N 
ATOM     18  C   UNL     1       0.256  10.321  18.896  0.00  0.00    +0.000 C 
ATOM     19  O   UNL     1      -0.024   9.724  19.936  0.00  0.00    +0.000 OA
ATOM     20  H   UNL     1      -0.309  11.441  17.256  0.00  0.00    +0.000 HD
BRANCH  17  26
ATOM     21  C   UNL     1      -3.003  11.246  17.868  0.00  0.00    +0.000 A 
ATOM     22  C   UNL     1      -4.280  11.594  18.342  0.00  0.00    +0.000 A 
ATOM     23  C   UNL     1      -4.433  12.360  19.497  0.00  0.00    +0.000 A 
ATOM     24  C   UNL     1      -3.312  12.775  20.199  0.00  0.00    +0.000 A 
ATOM     25  C   UNL     1      -2.044  12.390  19.769  0.00  0.00    +0.000 A 
ATOM     26  C   UNL     1      -1.866  11.601  18.623  0.00  0.00    +0.000 A 
BRANCH  21  27
ATOM     27  O   UNL     1      -2.800  10.563  16.685  0.00  0.00    +0.000 OA
BRANCH  27  29
ATOM     28  C   UNL     1      -3.374  10.119  14.382  0.00  0.00    +0.000 C 
ATOM     29  C   UNL     1      -3.732  10.884  15.641  0.00  0.00    +0.000 C 
ENDBRANCH  27  29
ENDBRANCH  21  27
ENDBRANCH  17  26
ENDBRANCH  16  18
ENDBRANCH   1  16
TORSDOF 8
ENDMDL
MODEL 8
REMARK VINA RESULT:      -7.5      1.422      2.716
REMARK  Name = 
REMARK  9 active torsions:
REMARK  status: ('A' for Active; 'I' for Inactive)
REMARK    1  A    between atoms: C_1  and  C_2
REMARK    2  A    between atoms: C_2  and  O_3
REMARK    3  A    between atoms: O_3  and  C_4
REMARK    4  A    between atoms: C_9  and  N_10
REMARK    5  A    between atoms: C_11  and  C_13
REMARK    6  A    between atoms: C_13  and  O_14
REMARK    7  A    between atoms: O_14  and  C_15
REMARK    8  A    between atoms: C_18  and  S_19
REMARK    9  A    between atoms: S_19  and  N_22
REMARK                            x       y       z     vdW  Elec       q    Type
REMARK                         _______ _______ _______ _____ _____    ______ ____
ROOT
ATOM      1  O   UNL     1       8.259   7.969  17.677  0.00  0.00    +0.000 OA
ENDROOT
BRANCH   1   2
ATOM      2  C   UNL     1       7.268   7.034  17.836  0.00  0.00    +0.000 A 
ATOM      3  C   UNL     1       7.329   5.904  18.658  0.00  0.00    +0.000 A 
ATOM      4  C   UNL     1       6.231   5.041  18.765  0.00  0.00    +0.000 A 
ATOM      5  C   UNL     1       5.067   5.301  18.036  0.00  0.00    +0.000 A 
ATOM      6  C   UNL     1       5.017   6.406  17.182  0.00  0.00    +0.000 A 
ATOM      7  C   UNL     1       6.102   7.284  17.110  0.00  0.00    +0.000 A 
BRANCH   5   8
ATOM      8  S   UNL     1       3.709   4.147  18.105  0.00  0.00    +0.000 S 
ATOM      9  O   UNL     1       2.554   4.826  17.553  0.00  0.00    +0.000 OA
ATOM     10  O   UNL     1       4.173   2.896  17.546  0.00  0.00    +0.000 OA
BRANCH   8  11
ATOM     11  N   UNL     1       3.422   3.885  19.746  0.00  0.00    +0.000 NA
ATOM     12  C   UNL     1       3.283   2.526  20.281  0.00  0.00    +0.000 C 
ATOM     13  C   UNL     1       1.851   2.472  20.777  0.00  0.00    +0.000 C 
ATOM     14  C   UNL     1       1.573   3.883  21.264  0.00  0.00    +0.000 C 
ATOM     15  C   UNL     1       2.520   4.790  20.483  0.00  0.00    +0.000 C 
ENDBRANCH   8  11
ENDBRANCH   5   8
ENDBRANCH   1   2
BRANCH   1  16
ATOM     16  C   UNL     1       7.846   9.312  17.857  0.00  0.00    +0.000 C 
BRANCH  16  18
ATOM     17  N   UNL     1       9.099  11.433  17.864  0.00  0.00    +0.000 N 
ATOM     18  C   UNL     1       8.888  10.221  18.499  0.00  0.00    +0.000 C 
ATOM     19  O   UNL     1       9.481   9.813  19.499  0.00  0.00    +0.000 OA
ATOM     20  H   UNL     1       8.403  11.741  17.188  0.00  0.00    +0.000 HD
BRANCH  17  26
ATOM     21  C   UNL     1       9.856  13.338  19.209  0.00  0.00    +0.000 A 
ATOM     22  C   UNL     1      10.889  14.212  19.592  0.00  0.00    +0.000 A 
ATOM     23  C   UNL     1      12.117  14.205  18.932  0.00  0.00    +0.000 A 
ATOM     24  C   UNL     1      12.333  13.314  17.892  0.00  0.00    +0.000 A 
ATOM     25  C   UNL     1      11.337  12.406  17.540  0.00  0.00    +0.000 A 
ATOM     26  C   UNL     1      10.101  12.379  18.204  0.00  0.00    +0.000 A 
BRANCH  21  27
ATOM     27  O   UNL     1       8.597  13.367  19.775  0.00  0.00    +0.000 OA
BRANCH  27  29
ATOM     28  C   UNL     1       7.383  14.031  21.754  0.00  0.00    +0.000 C 
ATOM     29  C   UNL     1       8.584  13.283  21.208  0.00  0.00    +0.000 C 
ENDBRANCH  27  29
ENDBRANCH  21  27
ENDBRANCH  17  26
ENDBRANCH  16  18
ENDBRANCH   1  16
TORSDOF 8
ENDMDL
MODEL 9
REMARK VINA RESULT:      -7.4      5.769      8.293
REMARK  Name = 
REMARK  9 active torsions:
REMARK  status: ('A' for Active; 'I' for Inactive)
REMARK    1  A    between atoms: C_1  and  C_2
REMARK    2  A    between atoms: C_2  and  O_3
REMARK    3  A    between atoms: O_3  and  C_4
REMARK    4  A    between atoms: C_9  and  N_10
REMARK    5  A    between atoms: C_11  and  C_13
REMARK    6  A    between atoms: C_13  and  O_14
REMARK    7  A    between atoms: O_14  and  C_15
REMARK    8  A    between atoms: C_18  and  S_19
REMARK    9  A    between atoms: S_19  and  N_22
REMARK                            x       y       z     vdW  Elec       q    Type
REMARK                         _______ _______ _______ _____ _____    ______ ____
ROOT
ATOM      1  O   UNL     1       1.436   8.751  17.959  0.00  0.00    +0.000 OA
ENDROOT
BRANCH   1   2
ATOM      2  C   UNL     1       2.334   7.763  18.276  0.00  0.00    +0.000 A 
ATOM      3  C   UNL     1       2.192   6.823  19.302  0.00  0.00    +0.000 A 
ATOM      4  C   UNL     1       3.166   5.836  19.502  0.00  0.00    +0.000 A 
ATOM      5  C   UNL     1       4.295   5.795  18.680  0.00  0.00    +0.000 A 
ATOM      6  C   UNL     1       4.461   6.757  17.681  0.00  0.00    +0.000 A 
ATOM      7  C   UNL     1       3.467   7.716  17.461  0.00  0.00    +0.000 A 
BRANCH   5   8
ATOM      8  S   UNL     1       5.574   4.593  19.002  0.00  0.00    +0.000 S 
ATOM      9  O   UNL     1       6.677   5.309  19.611  0.00  0.00    +0.000 OA
ATOM     10  O   UNL     1       4.956   3.470  19.673  0.00  0.00    +0.000 OA
BRANCH   8  11
ATOM     11  N   UNL     1       6.078   4.055  17.486  0.00  0.00    +0.000 NA
ATOM     12  C   UNL     1       7.316   4.559  16.879  0.00  0.00    +0.000 C 
ATOM     13  C   UNL     1       6.842   5.297  15.641  0.00  0.00    +0.000 C 
ATOM     14  C   UNL     1       5.627   4.509  15.181  0.00  0.00    +0.000 C 
ATOM     15  C   UNL     1       5.081   3.817  16.426  0.00  0.00    +0.000 C 
ENDBRANCH   8  11
ENDBRANCH   5   8
ENDBRANCH   1   2
BRANCH   1  16
ATOM     16  C   UNL     1       1.952  10.069  18.022  0.00  0.00    +0.000 C 
BRANCH  16  18
ATOM     17  N   UNL     1       0.215  10.408  19.735  0.00  0.00    +0.000 N 
ATOM     18  C   UNL     1       1.279  10.970  19.053  0.00  0.00    +0.000 C 
ATOM     19  O   UNL     1       1.699  12.120  19.183  0.00  0.00    +0.000 OA
ATOM     20  H   UNL     1       0.107   9.397  19.696  0.00  0.00    +0.000 HD
BRANCH  17  26
ATOM     21  C   UNL     1      -1.681  11.905  20.154  0.00  0.00    +0.000 A 
ATOM     22  C   UNL     1      -2.567  12.507  21.064  0.00  0.00    +0.000 A 
ATOM     23  C   UNL     1      -2.375  12.387  22.439  0.00  0.00    +0.000 A 
ATOM     24  C   UNL     1      -1.304  11.651  22.921  0.00  0.00    +0.000 A 
ATOM     25  C   UNL     1      -0.451  11.004  22.030  0.00  0.00    +0.000 A 
ATOM     26  C   UNL     1      -0.637  11.092  20.642  0.00  0.00    +0.000 A 
BRANCH  21  27
ATOM     27  O   UNL     1      -1.782  12.067  18.786  0.00  0.00    +0.000 OA
BRANCH  27  29
ATOM     28  C   UNL     1      -2.491  10.236  17.380  0.00  0.00    +0.000 C 
ATOM     29  C   UNL     1      -2.929  11.440  18.193  0.00  0.00    +0.000 C 
ENDBRANCH  27  29
ENDBRANCH  21  27
ENDBRANCH  17  26
ENDBRANCH  16  18
ENDBRANCH   1  16
TORSDOF 8
ENDMDL
