MODEL 1
REMARK VINA RESULT:      -8.0      0.000      0.000
REMARK  Name = 
REMARK  12 active torsions:
REMARK  status: ('A' for Active; 'I' for Inactive)
REMARK    1  A    between atoms: C_1  and  C_2
REMARK    2  A    between atoms: C_2  and  N_3
REMARK    3  A    between atoms: C_6  and  C_7
REMARK    4  A    between atoms: C_10  and  O_11
REMARK    5  A    between atoms: O_11  and  C_12
REMARK    6  A    between atoms: C_12  and  C_13
REMARK    7  A    between atoms: C_13  and  C_14
REMARK    8  A    between atoms: C_14  and  C_15
REMARK    9  A    between atoms: C_14  and  C_16
REMARK   10  A    between atoms: C_16  and  C_17
REMARK   11  A    between atoms: C_17  and  N_18
REMARK   12  A    between atoms: N_21  and  C_22
REMARK                            x       y       z     vdW  Elec       q    Type
REMARK                         _______ _______ _______ _____ _____    ______ ____
ROOT
ATOM      1  C   UNL     1       1.466   3.733  18.716  0.00  0.00    +0.000 C 
ENDROOT
BRANCH   1   2
ATOM      2  C   UNL     1       1.105   4.083  20.173  0.00  0.00    +0.000 C 
ATOM      3  C   UNL     1       1.256   2.881  21.115  0.00  0.00    +0.000 C 
BRANCH   2   4
ATOM      4  C   UNL     1       1.974   5.235  20.704  0.00  0.00    +0.000 C 
BRANCH   4   5
ATOM      5  C   UNL     1       2.288   6.285  19.642  0.00  0.00    +0.000 C 
BRANCH   5   6
ATOM      6  N   UNL     1       1.791   7.593  20.000  0.00  0.00    +0.000 N 
ATOM      7  C   UNL     1       1.129   7.875  21.248  0.00  0.00    +0.000 C 
ATOM      8  C   UNL     1       1.031   9.391  21.225  0.00  0.00    +0.000 C 
ATOM      9  N   UNL     1       1.004   9.699  19.810  0.00  0.00    +0.000 N 
ATOM     10  C   UNL     1       1.547   8.614  19.078  0.00  0.00    +0.000 C 
ATOM     11  O   UNL     1       1.796   8.550  17.886  0.00  0.00    +0.000 OA
BRANCH   9  12
ATOM     12  C   UNL     1       0.626  10.952  19.280  0.00  0.00    +0.000 A 
ATOM     13  C   UNL     1       1.580  11.926  18.988  0.00  0.00    +0.000 A 
ATOM     14  C   UNL     1       1.164  13.135  18.456  0.00  0.00    +0.000 A 
ATOM     15  N   UNL     1      -0.125  13.441  18.206  0.00  0.00    +0.000 NA
ATOM     16  C   UNL     1      -1.034  12.491  18.502  0.00  0.00    +0.000 A 
ATOM     17  C   UNL     1      -0.713  11.246  19.020  0.00  0.00    +0.000 A 
ENDBRANCH   9  12
ENDBRANCH   5   6
ENDBRANCH   4   5
ENDBRANCH   2   4
ENDBRANCH   1   2
BRANCH   1  18
ATOM     18  C   UNL     1       1.553   2.235  18.470  0.00  0.00    +0.000 C 
BRANCH  18  19
ATOM     19  O   UNL     1       2.924   1.871  18.284  0.00  0.00    +0.000 OA
BRANCH  19  23
ATOM     20  C   UNL     1       5.547   5.105  17.879  0.00  0.00    +0.000 A 
ATOM     21  C   UNL     1       5.486   4.346  19.053  0.00  0.00    +0.000 A 
ATOM     22  C   UNL     1       4.602   3.262  19.152  0.00  0.00    +0.000 A 
ATOM     23  C   UNL     1       3.761   2.938  18.087  0.00  0.00    +0.000 A 
ATOM     24  C   UNL     1       3.835   3.676  16.907  0.00  0.00    +0.000 A 
ATOM     25  C   UNL     1       4.717   4.753  16.807  0.00  0.00    +0.000 A 
BRANCH  20  29
ATOM     26  N   UNL     1       7.884   7.677  18.108  0.00  0.00    +0.000 N 
ATOM     27  N   UNL     1       7.433   7.964  16.878  0.00  0.00    +0.000 NA
ATOM     28  N   UNL     1       6.511   7.041  16.637  0.00  0.00    +0.000 NA
ATOM     29  C   UNL     1       6.452   6.237  17.752  0.00  0.00    +0.000 A 
ATOM     30  N   UNL     1       7.319   6.618  18.707  0.00  0.00    +0.000 NA
BRANCH  26  32
ATOM     31  C   UNL     1       8.781   9.944  18.392  0.00  0.00    +0.000 C 
ATOM     32  C   UNL     1       8.886   8.479  18.771  0.00  0.00    +0.000 C 
ENDBRANCH  26  32
ENDBRANCH  20  29
ENDBRANCH  19  23
ENDBRANCH  18  19
ENDBRANCH   1  18
TORSDOF 10
ENDMDL
MODEL 2
REMARK VINA RESULT:      -7.8      2.286      7.966
REMARK  Name = 
REMARK  12 active torsions:
REMARK  status: ('A' for Active; 'I' for Inactive)
REMARK    1  A    between atoms: C_1  and  C_2
REMARK    2  A    between atoms: C_2  and  N_3
REMARK    3  A    between atoms: C_6  and  C_7
REMARK    4  A    between atoms: C_10  and  O_11
REMARK    5  A    between atoms: O_11  and  C_12
REMARK    6  A    between atoms: C_12  and  C_13
REMARK    7  A    between atoms: C_13  and  C_14
REMARK    8  A    between atoms: C_14  and  C_15
REMARK    9  A    between atoms: C_14  and  C_16
REMARK   10  A    between atoms: C_16  and  C_17
REMARK   11  A    between atoms: C_17  and  N_18
REMARK   12  A    between atoms: N_21  and  C_22
REMARK                            x       y       z     vdW  Elec       q    Type
REMARK                         _______ _______ _______ _____ _____    ______ ____
ROOT
ATOM      1  C   UNL     1       5.543   7.542  17.870  0.00  0.00    +0.000 C 
ENDROOT
BRANCH   1   2
ATOM      2  C   UNL     1       6.965   7.218  17.375  0.00  0.00    +0.000 C 
ATOM      3  C   UNL     1       7.916   8.416  17.511  0.00  0.00    +0.000 C 
BRANCH   2   4
ATOM      4  C   UNL     1       7.565   6.025  18.139  0.00  0.00    +0.000 C 
BRANCH   4   5
ATOM      5  C   UNL     1       7.409   4.701  17.398  0.00  0.00    +0.000 C 
BRANCH   5   6
ATOM      6  N   UNL     1       6.096   4.127  17.572  0.00  0.00    +0.000 N 
ATOM      7  C   UNL     1       5.206   3.837  16.477  0.00  0.00    +0.000 C 
ATOM      8  C   UNL     1       4.100   3.050  17.161  0.00  0.00    +0.000 C 
ATOM      9  N   UNL     1       4.132   3.548  18.520  0.00  0.00    +0.000 N 
ATOM     10  C   UNL     1       5.394   4.137  18.781  0.00  0.00    +0.000 C 
ATOM     11  O   UNL     1       5.834   4.557  19.837  0.00  0.00    +0.000 OA
BRANCH   9  12
ATOM     12  C   UNL     1       3.104   3.335  19.465  0.00  0.00    +0.000 A 
ATOM     13  C   UNL     1       1.803   3.772  19.224  0.00  0.00    +0.000 A 
ATOM     14  C   UNL     1       0.825   3.528  20.173  0.00  0.00    +0.000 A 
ATOM     15  N   UNL     1       1.054   2.893  21.341  0.00  0.00    +0.000 NA
ATOM     16  C   UNL     1       2.320   2.484  21.561  0.00  0.00    +0.000 A 
ATOM     17  C   UNL     1       3.361   2.667  20.663  0.00  0.00    +0.000 A 
ENDBRANCH   9  12
ENDBRANCH   5   6
ENDBRANCH   4   5
ENDBRANCH   2   4
ENDBRANCH   1   2
BRANCH   1  18
ATOM     18  C   UNL     1       4.469   7.216  16.844  0.00  0.00    +0.000 C 
BRANCH  18  19
ATOM     19  O   UNL     1       3.354   6.615  17.510  0.00  0.00    +0.000 OA
BRANCH  19  23
ATOM     20  C   UNL     1       1.166   9.136  20.033  0.00  0.00    +0.000 A 
ATOM     21  C   UNL     1       1.687   7.916  20.478  0.00  0.00    +0.000 A 
ATOM     22  C   UNL     1       2.426   7.100  19.609  0.00  0.00    +0.000 A 
ATOM     23  C   UNL     1       2.634   7.486  18.285  0.00  0.00    +0.000 A 
ATOM     24  C   UNL     1       2.136   8.711  17.843  0.00  0.00    +0.000 A 
ATOM     25  C   UNL     1       1.405   9.525  18.709  0.00  0.00    +0.000 A 
BRANCH  20  29
ATOM     26  N   UNL     1      -0.990  11.329  21.667  0.00  0.00    +0.000 N 
ATOM     27  N   UNL     1      -0.227  11.018  22.725  0.00  0.00    +0.000 NA
ATOM     28  N   UNL     1       0.669  10.161  22.251  0.00  0.00    +0.000 NA
ATOM     29  C   UNL     1       0.394  10.000  20.912  0.00  0.00    +0.000 A 
ATOM     30  N   UNL     1      -0.661  10.731  20.512  0.00  0.00    +0.000 NA
BRANCH  26  32
ATOM     31  C   UNL     1      -2.455  12.824  20.385  0.00  0.00    +0.000 C 
ATOM     32  C   UNL     1      -2.076  12.277  21.749  0.00  0.00    +0.000 C 
ENDBRANCH  26  32
ENDBRANCH  20  29
ENDBRANCH  19  23
ENDBRANCH  18  19
ENDBRANCH   1  18
TORSDOF 10
ENDMDL
MODEL 3
REMARK VINA RESULT:      -7.7      3.204      4.284
REMARK  Name = 
REMARK  12 active torsions:
REMARK  status: ('A' for Active; 'I' for Inactive)
REMARK    1  A    between atoms: C_1  and  C_2
REMARK    2  A    between atoms: C_2  and  N_3
REMARK    3  A    between atoms: C_6  and  C_7
REMARK    4  A    between atoms: C_10  and  O_11
REMARK    5  A    between atoms: O_11  and  C_12
REMARK    6  A    between atoms: C_12  and  C_13
REMARK    7  A    between atoms: C_13  and  C_14
REMARK    8  A    between atoms: C_14  and  C_15
REMARK    9  A    between atoms: C_14  and  C_16
REMARK   10  A    between atoms: C_16  and  C_17
REMARK   11  A    between atoms: C_17  and  N_18
REMARK   12  A    between atoms: N_21  and  C_22
REMARK                            x       y       z     vdW  Elec       q    Type
REMARK                         _______ _______ _______ _____ _____    ______ ____
ROOT
ATOM      1  C   UNL     1       1.798   5.227  20.180  0.00  0.00    +0.000 C 
ENDROOT
BRANCH   1   2
ATOM      2  C   UNL     1       2.105   6.734  20.272  0.00  0.00    +0.000 C 
ATOM      3  C   UNL     1       2.489   7.334  18.911  0.00  0.00    +0.000 C 
BRANCH   2   4
ATOM      4  C   UNL     1       0.905   7.516  20.832  0.00  0.00    +0.000 C 
BRANCH   4   5
ATOM      5  C   UNL     1       1.316   8.763  21.611  0.00  0.00    +0.000 C 
BRANCH   5   6
ATOM      6  N   UNL     1       0.427   9.875  21.373  0.00  0.00    +0.000 N 
ATOM      7  C   UNL     1       0.417  10.635  20.149  0.00  0.00    +0.000 C 
ATOM      8  C   UNL     1      -0.821  11.499  20.316  0.00  0.00    +0.000 C 
ATOM      9  N   UNL     1      -0.944  11.627  21.753  0.00  0.00    +0.000 N 
ATOM     10  C   UNL     1      -0.235  10.576  22.386  0.00  0.00    +0.000 C 
ATOM     11  O   UNL     1      -0.203  10.284  23.569  0.00  0.00    +0.000 OA
BRANCH   9  12
ATOM     12  C   UNL     1      -1.769  12.576  22.396  0.00  0.00    +0.000 A 
ATOM     13  C   UNL     1      -1.248  13.461  23.338  0.00  0.00    +0.000 A 
ATOM     14  C   UNL     1      -2.093  14.384  23.932  0.00  0.00    +0.000 A 
ATOM     15  N   UNL     1      -3.411  14.478  23.662  0.00  0.00    +0.000 NA
ATOM     16  C   UNL     1      -3.899  13.609  22.754  0.00  0.00    +0.000 A 
ATOM     17  C   UNL     1      -3.129  12.663  22.095  0.00  0.00    +0.000 A 
ENDBRANCH   9  12
ENDBRANCH   5   6
ENDBRANCH   4   5
ENDBRANCH   2   4
ENDBRANCH   1   2
BRANCH   1  18
ATOM     18  C   UNL     1       2.676   4.386  21.093  0.00  0.00    +0.000 C 
BRANCH  18  19
ATOM     19  O   UNL     1       3.097   3.215  20.387  0.00  0.00    +0.000 OA
BRANCH  19  23
ATOM     20  C   UNL     1       5.335   4.141  16.975  0.00  0.00    +0.000 A 
ATOM     21  C   UNL     1       5.693   4.611  18.244  0.00  0.00    +0.000 A 
ATOM     22  C   UNL     1       4.927   4.272  19.369  0.00  0.00    +0.000 A 
ATOM     23  C   UNL     1       3.787   3.479  19.233  0.00  0.00    +0.000 A 
ATOM     24  C   UNL     1       3.439   2.990  17.975  0.00  0.00    +0.000 A 
ATOM     25  C   UNL     1       4.204   3.323  16.856  0.00  0.00    +0.000 A 
BRANCH  20  29
ATOM     26  N   UNL     1       6.869   4.555  13.877  0.00  0.00    +0.000 N 
ATOM     27  N   UNL     1       7.602   5.452  14.552  0.00  0.00    +0.000 NA
ATOM     28  N   UNL     1       7.122   5.414  15.788  0.00  0.00    +0.000 NA
ATOM     29  C   UNL     1       6.110   4.480  15.792  0.00  0.00    +0.000 A 
ATOM     30  N   UNL     1       5.925   3.917  14.585  0.00  0.00    +0.000 NA
BRANCH  26  32
ATOM     31  C   UNL     1       6.063   3.304  11.925  0.00  0.00    +0.000 C 
ATOM     32  C   UNL     1       7.102   4.259  12.482  0.00  0.00    +0.000 C 
ENDBRANCH  26  32
ENDBRANCH  20  29
ENDBRANCH  19  23
ENDBRANCH  18  19
ENDBRANCH   1  18
TORSDOF 10
ENDMDL
MODEL 4
REMARK VINA RESULT:      -7.6      2.791      4.820
REMARK  Name = 
REMARK  12 active torsions:
REMARK  status: ('A' for Active; 'I' for Inactive)
REMARK    1  A    between atoms: C_1  and  C_2
REMARK    2  A    between atoms: C_2  and  N_3
REMARK    3  A    between atoms: C_6  and  C_7
REMARK    4  A    between atoms: C_10  and  O_11
REMARK    5  A    between atoms: O_11  and  C_12
REMARK    6  A    between atoms: C_12  and  C_13
REMARK    7  A    between atoms: C_13  and  C_14
REMARK    8  A    between atoms: C_14  and  C_15
REMARK    9  A    between atoms: C_14  and  C_16
REMARK   10  A    between atoms: C_16  and  C_17
REMARK   11  A    between atoms: C_17  and  N_18
REMARK   12  A    between atoms: N_21  and  C_22
REMARK                            x       y       z     vdW  Elec       q    Type
REMARK                         _______ _______ _______ _____ _____    ______ ____
ROOT
ATOM      1  C   UNL     1       1.118   7.553  20.843  0.00  0.00    +0.000 C 
ENDROOT
BRANCH   1   2
ATOM      2  C   UNL     1       1.101   9.036  20.427  0.00  0.00    +0.000 C 
ATOM      3  C   UNL     1       1.405   9.226  18.934  0.00  0.00    +0.000 C 
BRANCH   2   4
ATOM      4  C   UNL     1      -0.257   9.688  20.738  0.00  0.00    +0.000 C 
BRANCH   4   5
ATOM      5  C   UNL     1      -0.125  11.059  21.393  0.00  0.00    +0.000 C 
BRANCH   5   6
ATOM      6  N   UNL     1       0.017  12.119  20.423  0.00  0.00    +0.000 N 
ATOM      7  C   UNL     1      -0.770  12.203  19.219  0.00  0.00    +0.000 C 
ATOM      8  C   UNL     1      -0.409  13.582  18.694  0.00  0.00    +0.000 C 
ATOM      9  N   UNL     1       0.923  13.797  19.217  0.00  0.00    +0.000 N 
ATOM     10  C   UNL     1       1.141  12.945  20.328  0.00  0.00    +0.000 C 
ATOM     11  O   UNL     1       2.088  12.921  21.095  0.00  0.00    +0.000 OA
BRANCH   9  12
ATOM     12  C   UNL     1       1.798  14.809  18.764  0.00  0.00    +0.000 A 
ATOM     13  C   UNL     1       2.932  14.498  18.016  0.00  0.00    +0.000 A 
ATOM     14  C   UNL     1       3.753  15.525  17.582  0.00  0.00    +0.000 A 
ATOM     15  N   UNL     1       3.529  16.828  17.846  0.00  0.00    +0.000 NA
ATOM     16  C   UNL     1       2.432  17.110  18.577  0.00  0.00    +0.000 A 
ATOM     17  C   UNL     1       1.543  16.153  19.041  0.00  0.00    +0.000 A 
ENDBRANCH   9  12
ENDBRANCH   5   6
ENDBRANCH   4   5
ENDBRANCH   2   4
ENDBRANCH   1   2
BRANCH   1  18
ATOM     18  C   UNL     1       2.369   6.822  20.382  0.00  0.00    +0.000 C 
BRANCH  18  19
ATOM     19  O   UNL     1       1.995   5.784  19.472  0.00  0.00    +0.000 OA
BRANCH  19  23
ATOM     20  C   UNL     1       4.837   5.265  16.446  0.00  0.00    +0.000 A 
ATOM     21  C   UNL     1       4.482   6.534  16.916  0.00  0.00    +0.000 A 
ATOM     22  C   UNL     1       3.533   6.672  17.939  0.00  0.00    +0.000 A 
ATOM     23  C   UNL     1       2.918   5.546  18.488  0.00  0.00    +0.000 A 
ATOM     24  C   UNL     1       3.286   4.278  18.039  0.00  0.00    +0.000 A 
ATOM     25  C   UNL     1       4.233   4.141  17.023  0.00  0.00    +0.000 A 
BRANCH  20  29
ATOM     26  N   UNL     1       6.757   4.581  13.622  0.00  0.00    +0.000 N 
ATOM     27  N   UNL     1       7.707   5.211  14.327  0.00  0.00    +0.000 NA
ATOM     28  N   UNL     1       7.112   5.548  15.464  0.00  0.00    +0.000 NA
ATOM     29  C   UNL     1       5.816   5.094  15.383  0.00  0.00    +0.000 A 
ATOM     30  N   UNL     1       5.559   4.474  14.217  0.00  0.00    +0.000 NA
BRANCH  26  32
ATOM     31  C   UNL     1       6.029   2.905  11.983  0.00  0.00    +0.000 C 
ATOM     32  C   UNL     1       7.010   4.013  12.318  0.00  0.00    +0.000 C 
ENDBRANCH  26  32
ENDBRANCH  20  29
ENDBRANCH  19  23
ENDBRANCH  18  19
ENDBRANCH   1  18
TORSDOF 10
ENDMDL
MODEL 5
REMARK VINA RESULT:      -7.4      1.334      2.195
REMARK  Name = 
REMARK  12 active torsions:
REMARK  status: ('A' for Active; 'I' for Inactive)
REMARK    1  A    between atoms: C_1  and  C_2
REMARK    2  A    between atoms: C_2  and  N_3
REMARK    3  A    between atoms: C_6  and  C_7
REMARK    4  A    between atoms: C_10  and  O_11
REMARK    5  A    between atoms: O_11  and  C_12
REMARK    6  A    between atoms: C_12  and  C_13
REMARK    7  A    between atoms: C_13  and  C_14
REMARK    8  A    between atoms: C_14  and  C_15
REMARK    9  A    between atoms: C_14  and  C_16
REMARK   10  A    between atoms: C_16  and  C_17
REMARK   11  A    between atoms: C_17  and  N_18
REMARK   12  A    between atoms: N_21  and  C_22
REMARK                            x       y       z     vdW  Elec       q    Type
REMARK                         _______ _______ _______ _____ _____    ______ ____
ROOT
ATOM      1  C   UNL     1       2.622   3.975  17.469  0.00  0.00    +0.000 C 
ENDROOT
BRANCH   1   2
ATOM      2  C   UNL     1       1.826   4.077  18.785  0.00  0.00    +0.000 C 
ATOM      3  C   UNL     1       1.636   2.711  19.458  0.00  0.00    +0.000 C 
BRANCH   2   4
ATOM      4  C   UNL     1       2.515   5.024  19.783  0.00  0.00    +0.000 C 
BRANCH   4   5
ATOM      5  C   UNL     1       3.001   6.319  19.139  0.00  0.00    +0.000 C 
BRANCH   5   6
ATOM      6  N   UNL     1       2.255   7.470  19.592  0.00  0.00    +0.000 N 
ATOM      7  C   UNL     1       1.595   7.534  20.871  0.00  0.00    +0.000 C 
ATOM      8  C   UNL     1       1.180   8.993  20.946  0.00  0.00    +0.000 C 
ATOM      9  N   UNL     1       1.037   9.369  19.556  0.00  0.00    +0.000 N 
ATOM     10  C   UNL     1       1.767   8.467  18.742  0.00  0.00    +0.000 C 
ATOM     11  O   UNL     1       1.980   8.525  17.543  0.00  0.00    +0.000 OA
BRANCH   9  12
ATOM     12  C   UNL     1       0.385  10.542  19.115  0.00  0.00    +0.000 A 
ATOM     13  C   UNL     1      -0.811  10.476  18.403  0.00  0.00    +0.000 A 
ATOM     14  C   UNL     1      -1.421  11.654  18.005  0.00  0.00    +0.000 A 
ATOM     15  N   UNL     1      -0.921  12.880  18.255  0.00  0.00    +0.000 NA
ATOM     16  C   UNL     1       0.241  12.925  18.938  0.00  0.00    +0.000 A 
ATOM     17  C   UNL     1       0.915  11.802  19.393  0.00  0.00    +0.000 A 
ENDBRANCH   9  12
ENDBRANCH   5   6
ENDBRANCH   4   5
ENDBRANCH   2   4
ENDBRANCH   1   2
BRANCH   1  18
ATOM     18  C   UNL     1       3.924   3.205  17.621  0.00  0.00    +0.000 C 
BRANCH  18  19
ATOM     19  O   UNL     1       4.831   3.614  16.594  0.00  0.00    +0.000 OA
BRANCH  19  23
ATOM     20  C   UNL     1       7.049   7.005  17.635  0.00  0.00    +0.000 A 
ATOM     21  C   UNL     1       7.264   5.765  18.247  0.00  0.00    +0.000 A 
ATOM     22  C   UNL     1       6.510   4.646  17.867  0.00  0.00    +0.000 A 
ATOM     23  C   UNL     1       5.523   4.759  16.886  0.00  0.00    +0.000 A 
ATOM     24  C   UNL     1       5.322   5.987  16.257  0.00  0.00    +0.000 A 
ATOM     25  C   UNL     1       6.075   7.100  16.633  0.00  0.00    +0.000 A 
BRANCH  20  29
ATOM     26  N   UNL     1       8.603  10.085  18.109  0.00  0.00    +0.000 N 
ATOM     27  N   UNL     1       9.237   9.421  19.086  0.00  0.00    +0.000 NA
ATOM     28  N   UNL     1       8.736   8.194  19.035  0.00  0.00    +0.000 NA
ATOM     29  C   UNL     1       7.814   8.183  18.014  0.00  0.00    +0.000 A 
ATOM     30  N   UNL     1       7.706   9.377  17.405  0.00  0.00    +0.000 NA
BRANCH  26  32
ATOM     31  C   UNL     1      10.351  11.806  18.029  0.00  0.00    +0.000 C 
ATOM     32  C   UNL     1       8.890  11.467  17.800  0.00  0.00    +0.000 C 
ENDBRANCH  26  32
ENDBRANCH  20  29
ENDBRANCH  19  23
ENDBRANCH  18  19
ENDBRANCH   1  18
TORSDOF 10
ENDMDL
MODEL 6
REMARK VINA RESULT:      -7.3      2.568      8.205
REMARK  Name = 
REMARK  12 active torsions:
REMARK  status: ('A' for Active; 'I' for Inactive)
REMARK    1  A    between atoms: C_1  and  C_2
REMARK    2  A    between atoms: C_2  and  N_3
REMARK    3  A    between atoms: C_6  and  C_7
REMARK    4  A    between atoms: C_10  and  O_11
REMARK    5  A    between atoms: O_11  and  C_12
REMARK    6  A    between atoms: C_12  and  C_13
REMARK    7  A    between atoms: C_13  and  C_14
REMARK    8  A    between atoms: C_14  and  C_15
REMARK    9  A    between atoms: C_14  and  C_16
REMARK   10  A    between atoms: C_16  and  C_17
REMARK   11  A    between atoms: C_17  and  N_18
REMARK   12  A    between atoms: N_21  and  C_22
REMARK                            x       y       z     vdW  Elec       q    Type
REMARK                         _______ _______ _______ _____ _____    ______ ____
ROOT
ATOM      1  C   UNL     1       4.951   6.686  16.384  0.00  0.00    +0.000 C 
ENDROOT
BRANCH   1   2
ATOM      2  C   UNL     1       6.483   6.851  16.338  0.00  0.00    +0.000 C 
ATOM      3  C   UNL     1       7.050   7.381  17.663  0.00  0.00    +0.000 C 
BRANCH   2   4
ATOM      4  C   UNL     1       7.179   5.522  16.002  0.00  0.00    +0.000 C 
BRANCH   4   5
ATOM      5  C   UNL     1       7.257   4.571  17.192  0.00  0.00    +0.000 C 
BRANCH   5   6
ATOM      6  N   UNL     1       5.981   3.968  17.498  0.00  0.00    +0.000 N 
ATOM      7  C   UNL     1       5.071   3.486  16.491  0.00  0.00    +0.000 C 
ATOM      8  C   UNL     1       4.029   2.755  17.322  0.00  0.00    +0.000 C 
ATOM      9  N   UNL     1       4.081   3.442  18.595  0.00  0.00    +0.000 N 
ATOM     10  C   UNL     1       5.320   4.119  18.721  0.00  0.00    +0.000 C 
ATOM     11  O   UNL     1       5.773   4.703  19.689  0.00  0.00    +0.000 OA
BRANCH   9  12
ATOM     12  C   UNL     1       3.098   3.319  19.602  0.00  0.00    +0.000 A 
ATOM     13  C   UNL     1       3.332   2.561  20.747  0.00  0.00    +0.000 A 
ATOM     14  C   UNL     1       2.344   2.481  21.714  0.00  0.00    +0.000 A 
ATOM     15  N   UNL     1       1.145   3.091  21.614  0.00  0.00    +0.000 NA
ATOM     16  C   UNL     1       0.933   3.814  20.496  0.00  0.00    +0.000 A 
ATOM     17  C   UNL     1       1.867   3.966  19.483  0.00  0.00    +0.000 A 
ENDBRANCH   9  12
ENDBRANCH   5   6
ENDBRANCH   4   5
ENDBRANCH   2   4
ENDBRANCH   1   2
BRANCH   1  18
ATOM     18  C   UNL     1       4.312   7.399  17.565  0.00  0.00    +0.000 C 
BRANCH  18  19
ATOM     19  O   UNL     1       2.889   7.337  17.433  0.00  0.00    +0.000 OA
BRANCH  19  23
ATOM     20  C   UNL     1       0.754   9.357  20.411  0.00  0.00    +0.000 A 
ATOM     21  C   UNL     1       0.774   9.803  19.085  0.00  0.00    +0.000 A 
ATOM     22  C   UNL     1       1.491   9.096  18.109  0.00  0.00    +0.000 A 
ATOM     23  C   UNL     1       2.209   7.950  18.452  0.00  0.00    +0.000 A 
ATOM     24  C   UNL     1       2.172   7.488  19.768  0.00  0.00    +0.000 A 
ATOM     25  C   UNL     1       1.455   8.189  20.738  0.00  0.00    +0.000 A 
BRANCH  20  29
ATOM     26  N   UNL     1      -1.051  11.491  22.489  0.00  0.00    +0.000 N 
ATOM     27  N   UNL     1      -0.886  10.493  23.369  0.00  0.00    +0.000 NA
ATOM     28  N   UNL     1      -0.198   9.573  22.706  0.00  0.00    +0.000 NA
ATOM     29  C   UNL     1       0.020  10.073  21.443  0.00  0.00    +0.000 A 
ATOM     30  N   UNL     1      -0.515  11.295  21.274  0.00  0.00    +0.000 NA
BRANCH  26  32
ATOM     31  C   UNL     1      -3.006  12.465  23.608  0.00  0.00    +0.000 C 
ATOM     32  C   UNL     1      -1.728  12.720  22.831  0.00  0.00    +0.000 C 
ENDBRANCH  26  32
ENDBRANCH  20  29
ENDBRANCH  19  23
ENDBRANCH  18  19
ENDBRANCH   1  18
TORSDOF 10
ENDMDL
MODEL 7
REMARK VINA RESULT:      -7.3      2.878      4.926
REMARK  Name = 
REMARK  12 active torsions:
REMARK  status: ('A' for Active; 'I' for Inactive)
REMARK    1  A    between atoms: C_1  and  C_2
REMARK    2  A    between atoms: C_2  and  N_3
REMARK    3  A    between atoms: C_6  and  C_7
REMARK    4  A    between atoms: C_10  and  O_11
REMARK    5  A    between atoms: O_11  and  C_12
REMARK    6  A    between atoms: C_12  and  C_13
REMARK    7  A    between atoms: C_13  and  C_14
REMARK    8  A    between atoms: C_14  and  C_15
REMARK    9  A    between atoms: C_14  and  C_16
REMARK   10  A    between atoms: C_16  and  C_17
REMARK   11  A    between atoms: C_17  and  N_18
REMARK   12  A    between atoms: N_21  and  C_22
REMARK                            x       y       z     vdW  Elec       q    Type
REMARK                         _______ _______ _______ _____ _____    ______ ____
ROOT
ATOM      1  C   UNL     1       1.627   7.824  21.046  0.00  0.00    +0.000 C 
ENDROOT
BRANCH   1   2
ATOM      2  C   UNL     1       0.523   8.899  21.038  0.00  0.00    +0.000 C 
ATOM      3  C   UNL     1      -0.730   8.453  21.805  0.00  0.00    +0.000 C 
BRANCH   2   4
ATOM      4  C   UNL     1       1.026  10.220  21.645  0.00  0.00    +0.000 C 
BRANCH   4   5
ATOM      5  C   UNL     1      -0.052  11.298  21.704  0.00  0.00    +0.000 C 
BRANCH   5   6
ATOM      6  N   UNL     1       0.023  12.210  20.587  0.00  0.00    +0.000 N 
ATOM      7  C   UNL     1      -0.633  11.974  19.326  0.00  0.00    +0.000 C 
ATOM      8  C   UNL     1      -0.443  13.301  18.611  0.00  0.00    +0.000 C 
ATOM      9  N   UNL     1       0.775  13.820  19.197  0.00  0.00    +0.000 N 
ATOM     10  C   UNL     1       1.004  13.195  20.448  0.00  0.00    +0.000 C 
ATOM     11  O   UNL     1       1.856  13.451  21.282  0.00  0.00    +0.000 OA
BRANCH   9  12
ATOM     12  C   UNL     1       1.520  14.891  18.655  0.00  0.00    +0.000 A 
ATOM     13  C   UNL     1       1.033  16.196  18.691  0.00  0.00    +0.000 A 
ATOM     14  C   UNL     1       1.806  17.216  18.160  0.00  0.00    +0.000 A 
ATOM     15  N   UNL     1       3.014  17.025  17.593  0.00  0.00    +0.000 NA
ATOM     16  C   UNL     1       3.465  15.755  17.560  0.00  0.00    +0.000 A 
ATOM     17  C   UNL     1       2.772  14.673  18.081  0.00  0.00    +0.000 A 
ENDBRANCH   9  12
ENDBRANCH   5   6
ENDBRANCH   4   5
ENDBRANCH   2   4
ENDBRANCH   1   2
BRANCH   1  18
ATOM     18  C   UNL     1       2.070   7.418  19.649  0.00  0.00    +0.000 C 
BRANCH  18  19
ATOM     19  O   UNL     1       2.647   6.110  19.703  0.00  0.00    +0.000 OA
BRANCH  19  23
ATOM     20  C   UNL     1       5.062   5.331  16.377  0.00  0.00    +0.000 A 
ATOM     21  C   UNL     1       5.146   6.535  17.084  0.00  0.00    +0.000 A 
ATOM     22  C   UNL     1       4.329   6.760  18.202  0.00  0.00    +0.000 A 
ATOM     23  C   UNL     1       3.410   5.793  18.610  0.00  0.00    +0.000 A 
ATOM     24  C   UNL     1       3.340   4.582  17.923  0.00  0.00    +0.000 A 
ATOM     25  C   UNL     1       4.156   4.357  16.813  0.00  0.00    +0.000 A 
BRANCH  20  29
ATOM     26  N   UNL     1       6.631   4.364  13.422  0.00  0.00    +0.000 N 
ATOM     27  N   UNL     1       7.599   5.176  13.872  0.00  0.00    +0.000 NA
ATOM     28  N   UNL     1       7.136   5.640  15.025  0.00  0.00    +0.000 NA
ATOM     29  C   UNL     1       5.896   5.074  15.213  0.00  0.00    +0.000 A 
ATOM     30  N   UNL     1       5.546   4.256  14.203  0.00  0.00    +0.000 NA
BRANCH  26  32
ATOM     31  C   UNL     1       5.430   3.042  11.739  0.00  0.00    +0.000 C 
ATOM     32  C   UNL     1       6.758   3.618  12.192  0.00  0.00    +0.000 C 
ENDBRANCH  26  32
ENDBRANCH  20  29
ENDBRANCH  19  23
ENDBRANCH  18  19
ENDBRANCH   1  18
TORSDOF 10
ENDMDL
MODEL 8
REMARK VINA RESULT:      -7.3      1.626      2.530
REMARK  Name = 
REMARK  12 active torsions:
REMARK  status: ('A' for Active; 'I' for Inactive)
REMARK    1  A    between atoms: C_1  and  C_2
REMARK    2  A    between atoms: C_2  and  N_3
REMARK    3  A    between atoms: C_6  and  C_7
REMARK    4  A    between atoms: C_10  and  O_11
REMARK    5  A    between atoms: O_11  and  C_12
REMARK    6  A    between atoms: C_12  and  C_13
REMARK    7  A    between atoms: C_13  and  C_14
REMARK    8  A    between atoms: C_14  and  C_15
REMARK    9  A    between atoms: C_14  and  C_16
REMARK   10  A    between atoms: C_16  and  C_17
REMARK   11  A    between atoms: C_17  and  N_18
REMARK   12  A    between atoms: N_21  and  C_22
REMARK                            x       y       z     vdW  Elec       q    Type
REMARK                         _______ _______ _______ _____ _____    ______ ____
ROOT
ATOM      1  C   UNL     1       3.294   3.323  17.639  0.00  0.00    +0.000 C 
ENDROOT
BRANCH   1   2
ATOM      2  C   UNL     1       2.372   4.106  18.593  0.00  0.00    +0.000 C 
ATOM      3  C   UNL     1       2.919   4.148  20.027  0.00  0.00    +0.000 C 
BRANCH   2   4
ATOM      4  C   UNL     1       2.160   5.549  18.105  0.00  0.00    +0.000 C 
BRANCH   4   5
ATOM      5  C   UNL     1       3.009   6.566  18.861  0.00  0.00    +0.000 C 
BRANCH   5   6
ATOM      6  N   UNL     1       2.231   7.687  19.334  0.00  0.00    +0.000 N 
ATOM      7  C   UNL     1       1.436   7.650  20.535  0.00  0.00    +0.000 C 
ATOM      8  C   UNL     1       1.032   9.106  20.698  0.00  0.00    +0.000 C 
ATOM      9  N   UNL     1       1.045   9.607  19.340  0.00  0.00    +0.000 N 
ATOM     10  C   UNL     1       1.850   8.767  18.531  0.00  0.00    +0.000 C 
ATOM     11  O   UNL     1       2.193   8.927  17.373  0.00  0.00    +0.000 OA
BRANCH   9  12
ATOM     12  C   UNL     1       0.459  10.829  18.940  0.00  0.00    +0.000 A 
ATOM     13  C   UNL     1       1.169  12.025  19.017  0.00  0.00    +0.000 A 
ATOM     14  C   UNL     1       0.558  13.196  18.601  0.00  0.00    +0.000 A 
ATOM     15  N   UNL     1      -0.703  13.258  18.127  0.00  0.00    +0.000 NA
ATOM     16  C   UNL     1      -1.377  12.093  18.068  0.00  0.00    +0.000 A 
ATOM     17  C   UNL     1      -0.845  10.869  18.445  0.00  0.00    +0.000 A 
ENDBRANCH   9  12
ENDBRANCH   5   6
ENDBRANCH   4   5
ENDBRANCH   2   4
ENDBRANCH   1   2
BRANCH   1  18
ATOM     18  C   UNL     1       4.760   3.392  18.040  0.00  0.00    +0.000 C 
BRANCH  18  19
ATOM     19  O   UNL     1       5.512   3.957  16.962  0.00  0.00    +0.000 OA
BRANCH  19  23
ATOM     20  C   UNL     1       7.453   7.557  17.843  0.00  0.00    +0.000 A 
ATOM     21  C   UNL     1       6.379   7.497  16.947  0.00  0.00    +0.000 A 
ATOM     22  C   UNL     1       5.744   6.275  16.683  0.00  0.00    +0.000 A 
ATOM     23  C   UNL     1       6.187   5.102  17.295  0.00  0.00    +0.000 A 
ATOM     24  C   UNL     1       7.241   5.162  18.206  0.00  0.00    +0.000 A 
ATOM     25  C   UNL     1       7.870   6.378  18.472  0.00  0.00    +0.000 A 
BRANCH  20  29
ATOM     26  N   UNL     1       9.322  10.271  18.971  0.00  0.00    +0.000 N 
ATOM     27  N   UNL     1       8.708  10.896  17.957  0.00  0.00    +0.000 NA
ATOM     28  N   UNL     1       7.938   9.965  17.407  0.00  0.00    +0.000 NA
ATOM     29  C   UNL     1       8.132   8.811  18.132  0.00  0.00    +0.000 A 
ATOM     30  N   UNL     1       9.012   8.976  19.136  0.00  0.00    +0.000 NA
BRANCH  26  32
ATOM     31  C   UNL     1       9.693  12.299  20.302  0.00  0.00    +0.000 C 
ATOM     32  C   UNL     1      10.233  10.952  19.861  0.00  0.00    +0.000 C 
ENDBRANCH  26  32
ENDBRANCH  20  29
ENDBRANCH  19  23
ENDBRANCH  18  19
ENDBRANCH   1  18
TORSDOF 10
ENDMDL
MODEL 9
REMARK VINA RESULT:      -7.0      2.628      8.198
REMARK  Name = 
REMARK  12 active torsions:
REMARK  status: ('A' for Active; 'I' for Inactive)
REMARK    1  A    between atoms: C_1  and  C_2
REMARK    2  A    between atoms: C_2  and  N_3
REMARK    3  A    between atoms: C_6  and  C_7
REMARK    4  A    between atoms: C_10  and  O_11
REMARK    5  A    between atoms: O_11  and  C_12
REMARK    6  A    between atoms: C_12  and  C_13
REMARK    7  A    between atoms: C_13  and  C_14
REMARK    8  A    between atoms: C_14  and  C_15
REMARK    9  A    between atoms: C_14  and  C_16
REMARK   10  A    between atoms: C_16  and  C_17
REMARK   11  A    between atoms: C_17  and  N_18
REMARK   12  A    between atoms: N_21  and  C_22
REMARK                            x       y       z     vdW  Elec       q    Type
REMARK                         _______ _______ _______ _____ _____    ______ ____
ROOT
ATOM      1  C   UNL     1       4.562   7.122  16.549  0.00  0.00    +0.000 C 
ENDROOT
BRANCH   1   2
ATOM      2  C   UNL     1       6.049   6.849  16.252  0.00  0.00    +0.000 C 
ATOM      3  C   UNL     1       6.902   6.821  17.528  0.00  0.00    +0.000 C 
BRANCH   2   4
ATOM      4  C   UNL     1       6.235   5.516  15.507  0.00  0.00    +0.000 C 
BRANCH   4   5
ATOM      5  C   UNL     1       6.449   4.333  16.445  0.00  0.00    +0.000 C 
BRANCH   5   6
ATOM      6  N   UNL     1       5.209   3.840  16.998  0.00  0.00    +0.000 N 
ATOM      7  C   UNL     1       3.991   3.727  16.236  0.00  0.00    +0.000 C 
ATOM      8  C   UNL     1       3.088   2.957  17.186  0.00  0.00    +0.000 C 
ATOM      9  N   UNL     1       3.602   3.312  18.492  0.00  0.00    +0.000 N 
ATOM     10  C   UNL     1       4.934   3.779  18.367  0.00  0.00    +0.000 C 
ATOM     11  O   UNL     1       5.729   4.057  19.249  0.00  0.00    +0.000 OA
BRANCH   9  12
ATOM     12  C   UNL     1       2.914   3.080  19.703  0.00  0.00    +0.000 A 
ATOM     13  C   UNL     1       1.648   3.618  19.925  0.00  0.00    +0.000 A 
ATOM     14  C   UNL     1       1.006   3.351  21.123  0.00  0.00    +0.000 A 
ATOM     15  N   UNL     1       1.537   2.601  22.109  0.00  0.00    +0.000 NA
ATOM     16  C   UNL     1       2.765   2.095  21.880  0.00  0.00    +0.000 A 
ATOM     17  C   UNL     1       3.478   2.293  20.707  0.00  0.00    +0.000 A 
ENDBRANCH   9  12
ENDBRANCH   5   6
ENDBRANCH   4   5
ENDBRANCH   2   4
ENDBRANCH   1   2
BRANCH   1  18
ATOM     18  C   UNL     1       4.223   7.017  18.028  0.00  0.00    +0.000 C 
BRANCH  18  19
ATOM     19  O   UNL     1       2.826   6.746  18.169  0.00  0.00    +0.000 OA
BRANCH  19  23
ATOM     20  C   UNL     1       0.844   9.508  20.607  0.00  0.00    +0.000 A 
ATOM     21  C   UNL     1       1.178   9.801  19.280  0.00  0.00    +0.000 A 
ATOM     22  C   UNL     1       1.833   8.848  18.487  0.00  0.00    +0.000 A 
ATOM     23  C   UNL     1       2.176   7.603  19.017  0.00  0.00    +0.000 A 
ATOM     24  C   UNL     1       1.823   7.299  20.331  0.00  0.00    +0.000 A 
ATOM     25  C   UNL     1       1.168   8.246  21.119  0.00  0.00    +0.000 A 
BRANCH  20  29
ATOM     26  N   UNL     1      -0.828  12.146  22.149  0.00  0.00    +0.000 N 
ATOM     27  N   UNL     1      -0.658  11.389  23.242  0.00  0.00    +0.000 NA
ATOM     28  N   UNL     1      -0.018  10.311  22.806  0.00  0.00    +0.000 NA
ATOM     29  C   UNL     1       0.167  10.480  21.453  0.00  0.00    +0.000 A 
ATOM     30  N   UNL     1      -0.342  11.641  21.005  0.00  0.00    +0.000 NA
BRANCH  26  32
ATOM     31  C   UNL     1      -1.434  14.034  23.596  0.00  0.00    +0.000 C 
ATOM     32  C   UNL     1      -1.460  13.444  22.198  0.00  0.00    +0.000 C 
ENDBRANCH  26  32
ENDBRANCH  20  29
ENDBRANCH  19  23
ENDBRANCH  18  19
ENDBRANCH   1  18
TORSDOF 10
ENDMDL
