MODEL 1
REMARK VINA RESULT:      -7.5      0.000      0.000
REMARK  Name = 
REMARK  3 active torsions:
REMARK  status: ('A' for Active; 'I' for Inactive)
REMARK    1  A    between atoms: C_1  and  C_2
REMARK    2  A    between atoms: C_4  and  C_5
REMARK    3  A    between atoms: C_7  and  N_8
REMARK                            x       y       z     vdW  Elec       q    Type
REMARK                         _______ _______ _______ _____ _____    ______ ____
ROOT
ATOM      1  N   UNL     1       3.356   4.774  19.073  0.00  0.00    +0.000 N 
ATOM      2  C   UNL     1       2.645   5.923  19.430  0.00  0.00    +0.000 A 
ATOM      3  N   UNL     1       1.939   5.880  20.571  0.00  0.00    +0.000 NA
ATOM      4  C   UNL     1       1.279   7.008  20.922  0.00  0.00    +0.000 A 
ATOM      5  C   UNL     1       1.296   8.161  20.171  0.00  0.00    +0.000 A 
ATOM      6  C   UNL     1       2.016   8.109  18.999  0.00  0.00    +0.000 A 
ATOM      7  N   UNL     1       2.696   7.005  18.630  0.00  0.00    +0.000 NA
ATOM      8  C   UNL     1       2.130   9.296  18.085  0.00  0.00    +0.000 C 
ATOM      9  C   UNL     1       0.991  10.286  18.297  0.00  0.00    +0.000 C 
ATOM     10  C   UNL     1       0.845  10.635  19.772  0.00  0.00    +0.000 C 
ATOM     11  C   UNL     1       0.610   9.390  20.598  0.00  0.00    +0.000 C 
ATOM     12  O   UNL     1      -0.061   9.396  21.625  0.00  0.00    +0.000 OA
ATOM     13  H   UNL     1       3.320   4.132  19.857  0.00  0.00    +0.000 HD
ENDROOT
BRANCH   1  20
ATOM     14  C   UNL     1       8.205   5.676  19.147  0.00  0.00    +0.000 C 
ATOM     15  C   UNL     1       6.985   5.221  18.404  0.00  0.00    +0.000 A 
ATOM     16  C   UNL     1       7.078   4.759  17.085  0.00  0.00    +0.000 A 
ATOM     17  C   UNL     1       5.941   4.319  16.403  0.00  0.00    +0.000 A 
ATOM     18  C   UNL     1       6.021   3.829  14.987  0.00  0.00    +0.000 C 
ATOM     19  C   UNL     1       4.706   4.324  17.064  0.00  0.00    +0.000 A 
ATOM     20  C   UNL     1       4.591   4.751  18.394  0.00  0.00    +0.000 A 
ATOM     21  C   UNL     1       5.734   5.233  19.040  0.00  0.00    +0.000 A 
ENDBRANCH   1  20
TORSDOF 1
ENDMDL
MODEL 2
REMARK VINA RESULT:      -7.4      0.952      2.077
REMARK  Name = 
REMARK  3 active torsions:
REMARK  status: ('A' for Active; 'I' for Inactive)
REMARK    1  A    between atoms: C_1  and  C_2
REMARK    2  A    between atoms: C_4  and  C_5
REMARK    3  A    between atoms: C_7  and  N_8
REMARK                            x       y       z     vdW  Elec       q    Type
REMARK                         _______ _______ _______ _____ _____    ______ ____
ROOT
ATOM      1  N   UNL     1       3.507   5.167  18.430  0.00  0.00    +0.000 N 
ATOM      2  C   UNL     1       2.754   6.194  19.008  0.00  0.00    +0.000 A 
ATOM      3  N   UNL     1       2.203   5.952  20.209  0.00  0.00    +0.000 NA
ATOM      4  C   UNL     1       1.502   6.963  20.773  0.00  0.00    +0.000 A 
ATOM      5  C   UNL     1       1.328   8.191  20.175  0.00  0.00    +0.000 A 
ATOM      6  C   UNL     1       1.896   8.343  18.930  0.00  0.00    +0.000 A 
ATOM      7  N   UNL     1       2.613   7.359  18.350  0.00  0.00    +0.000 NA
ATOM      8  C   UNL     1       1.795   9.632  18.165  0.00  0.00    +0.000 C 
ATOM      9  C   UNL     1       0.613  10.476  18.629  0.00  0.00    +0.000 C 
ATOM     10  C   UNL     1       0.628  10.638  20.143  0.00  0.00    +0.000 C 
ATOM     11  C   UNL     1       0.603   9.289  20.829  0.00  0.00    +0.000 C 
ATOM     12  O   UNL     1       0.069   9.113  21.919  0.00  0.00    +0.000 OA
ATOM     13  H   UNL     1       3.623   4.440  19.126  0.00  0.00    +0.000 HD
ENDROOT
BRANCH   1  20
ATOM     14  C   UNL     1       6.025   3.850  14.398  0.00  0.00    +0.000 C 
ATOM     15  C   UNL     1       5.916   4.681  15.642  0.00  0.00    +0.000 A 
ATOM     16  C   UNL     1       6.899   5.624  15.964  0.00  0.00    +0.000 A 
ATOM     17  C   UNL     1       6.784   6.409  17.114  0.00  0.00    +0.000 A 
ATOM     18  C   UNL     1       7.832   7.419  17.478  0.00  0.00    +0.000 C 
ATOM     19  C   UNL     1       5.657   6.257  17.932  0.00  0.00    +0.000 A 
ATOM     20  C   UNL     1       4.643   5.343  17.615  0.00  0.00    +0.000 A 
ATOM     21  C   UNL     1       4.804   4.534  16.486  0.00  0.00    +0.000 A 
ENDBRANCH   1  20
TORSDOF 1
ENDMDL
MODEL 3
REMARK VINA RESULT:      -7.1      2.879      7.161
REMARK  Name = 
REMARK  3 active torsions:
REMARK  status: ('A' for Active; 'I' for Inactive)
REMARK    1  A    between atoms: C_1  and  C_2
REMARK    2  A    between atoms: C_4  and  C_5
REMARK    3  A    between atoms: C_7  and  N_8
REMARK                            x       y       z     vdW  Elec       q    Type
REMARK                         _______ _______ _______ _____ _____    ______ ____
ROOT
ATOM      1  N   UNL     1       2.172   8.215  18.406  0.00  0.00    +0.000 N 
ATOM      2  C   UNL     1       2.592   6.941  18.796  0.00  0.00    +0.000 A 
ATOM      3  N   UNL     1       3.851   6.586  18.488  0.00  0.00    +0.000 NA
ATOM      4  C   UNL     1       4.257   5.362  18.897  0.00  0.00    +0.000 A 
ATOM      5  C   UNL     1       3.449   4.487  19.587  0.00  0.00    +0.000 A 
ATOM      6  C   UNL     1       2.164   4.915  19.831  0.00  0.00    +0.000 A 
ATOM      7  N   UNL     1       1.735   6.135  19.450  0.00  0.00    +0.000 NA
ATOM      8  C   UNL     1       1.176   4.068  20.583  0.00  0.00    +0.000 C 
ATOM      9  C   UNL     1       1.548   2.591  20.541  0.00  0.00    +0.000 C 
ATOM     10  C   UNL     1       2.999   2.387  20.955  0.00  0.00    +0.000 C 
ATOM     11  C   UNL     1       3.929   3.181  20.063  0.00  0.00    +0.000 C 
ATOM     12  O   UNL     1       5.065   2.806  19.794  0.00  0.00    +0.000 OA
ATOM     13  H   UNL     1       2.985   8.720  18.069  0.00  0.00    +0.000 HD
ENDROOT
BRANCH   1  20
ATOM     14  C   UNL     1      -1.243  11.773  18.289  0.00  0.00    +0.000 C 
ATOM     15  C   UNL     1      -0.403  10.811  19.075  0.00  0.00    +0.000 A 
ATOM     16  C   UNL     1      -0.539  10.709  20.464  0.00  0.00    +0.000 A 
ATOM     17  C   UNL     1       0.234   9.798  21.190  0.00  0.00    +0.000 A 
ATOM     18  C   UNL     1       0.106   9.681  22.680  0.00  0.00    +0.000 C 
ATOM     19  C   UNL     1       1.133   8.971  20.505  0.00  0.00    +0.000 A 
ATOM     20  C   UNL     1       1.266   9.032  19.112  0.00  0.00    +0.000 A 
ATOM     21  C   UNL     1       0.518   9.984  18.412  0.00  0.00    +0.000 A 
ENDBRANCH   1  20
TORSDOF 1
ENDMDL
MODEL 4
REMARK VINA RESULT:      -7.1      2.862      6.939
REMARK  Name = 
REMARK  3 active torsions:
REMARK  status: ('A' for Active; 'I' for Inactive)
REMARK    1  A    between atoms: C_1  and  C_2
REMARK    2  A    between atoms: C_4  and  C_5
REMARK    3  A    between atoms: C_7  and  N_8
REMARK                            x       y       z     vdW  Elec       q    Type
REMARK                         _______ _______ _______ _____ _____    ______ ____
ROOT
ATOM      1  N   UNL     1       2.246   8.172  18.342  0.00  0.00    +0.000 N 
ATOM      2  C   UNL     1       2.642   6.898  18.758  0.00  0.00    +0.000 A 
ATOM      3  N   UNL     1       3.896   6.517  18.466  0.00  0.00    +0.000 NA
ATOM      4  C   UNL     1       4.279   5.294  18.900  0.00  0.00    +0.000 A 
ATOM      5  C   UNL     1       3.452   4.446  19.601  0.00  0.00    +0.000 A 
ATOM      6  C   UNL     1       2.173   4.900  19.829  0.00  0.00    +0.000 A 
ATOM      7  N   UNL     1       1.767   6.119  19.421  0.00  0.00    +0.000 NA
ATOM      8  C   UNL     1       1.166   4.084  20.589  0.00  0.00    +0.000 C 
ATOM      9  C   UNL     1       1.513   2.600  20.577  0.00  0.00    +0.000 C 
ATOM     10  C   UNL     1       2.958   2.380  21.005  0.00  0.00    +0.000 C 
ATOM     11  C   UNL     1       3.906   3.141  20.104  0.00  0.00    +0.000 C 
ATOM     12  O   UNL     1       5.038   2.742  19.850  0.00  0.00    +0.000 OA
ATOM     13  H   UNL     1       3.069   8.656  18.001  0.00  0.00    +0.000 HD
ENDROOT
BRANCH   1  20
ATOM     14  C   UNL     1       0.251   9.586  22.626  0.00  0.00    +0.000 C 
ATOM     15  C   UNL     1       0.330   9.706  21.133  0.00  0.00    +0.000 A 
ATOM     16  C   UNL     1      -0.442  10.651  20.447  0.00  0.00    +0.000 A 
ATOM     17  C   UNL     1      -0.351  10.772  19.058  0.00  0.00    +0.000 A 
ATOM     18  C   UNL     1      -1.177  11.774  18.307  0.00  0.00    +0.000 C 
ATOM     19  C   UNL     1       0.542   9.948  18.360  0.00  0.00    +0.000 A 
ATOM     20  C   UNL     1       1.349   9.017  19.027  0.00  0.00    +0.000 A 
ATOM     21  C   UNL     1       1.205   8.880  20.411  0.00  0.00    +0.000 A 
ENDBRANCH   1  20
TORSDOF 1
ENDMDL
MODEL 5
REMARK VINA RESULT:      -7.1      1.831      3.259
REMARK  Name = 
REMARK  3 active torsions:
REMARK  status: ('A' for Active; 'I' for Inactive)
REMARK    1  A    between atoms: C_1  and  C_2
REMARK    2  A    between atoms: C_4  and  C_5
REMARK    3  A    between atoms: C_7  and  N_8
REMARK                            x       y       z     vdW  Elec       q    Type
REMARK                         _______ _______ _______ _____ _____    ______ ____
ROOT
ATOM      1  N   UNL     1       2.895   7.881  17.631  0.00  0.00    +0.000 N 
ATOM      2  C   UNL     1       2.028   8.585  18.470  0.00  0.00    +0.000 A 
ATOM      3  N   UNL     1       1.277   9.549  17.911  0.00  0.00    +0.000 NA
ATOM      4  C   UNL     1       0.418  10.204  18.726  0.00  0.00    +0.000 A 
ATOM      5  C   UNL     1       0.296   9.935  20.071  0.00  0.00    +0.000 A 
ATOM      6  C   UNL     1       1.126   8.958  20.570  0.00  0.00    +0.000 A 
ATOM      7  N   UNL     1       1.981   8.277  19.780  0.00  0.00    +0.000 NA
ATOM      8  C   UNL     1       1.094   8.554  22.017  0.00  0.00    +0.000 C 
ATOM      9  C   UNL     1       0.503   9.648  22.899  0.00  0.00    +0.000 C 
ATOM     10  C   UNL     1      -0.833  10.124  22.345  0.00  0.00    +0.000 C 
ATOM     11  C   UNL     1      -0.678  10.628  20.926  0.00  0.00    +0.000 C 
ATOM     12  O   UNL     1      -1.375  11.526  20.465  0.00  0.00    +0.000 OA
ATOM     13  H   UNL     1       2.684   8.145  16.676  0.00  0.00    +0.000 HD
ENDROOT
BRANCH   1  20
ATOM     14  C   UNL     1       6.436   4.448  17.751  0.00  0.00    +0.000 C 
ATOM     15  C   UNL     1       4.981   4.809  17.798  0.00  0.00    +0.000 A 
ATOM     16  C   UNL     1       4.004   3.827  18.003  0.00  0.00    +0.000 A 
ATOM     17  C   UNL     1       2.651   4.170  18.065  0.00  0.00    +0.000 A 
ATOM     18  C   UNL     1       1.591   3.130  18.276  0.00  0.00    +0.000 C 
ATOM     19  C   UNL     1       2.284   5.517  17.941  0.00  0.00    +0.000 A 
ATOM     20  C   UNL     1       3.244   6.522  17.768  0.00  0.00    +0.000 A 
ATOM     21  C   UNL     1       4.588   6.149  17.660  0.00  0.00    +0.000 A 
ENDBRANCH   1  20
TORSDOF 1
ENDMDL
MODEL 6
REMARK VINA RESULT:      -7.0      1.851      3.547
REMARK  Name = 
REMARK  3 active torsions:
REMARK  status: ('A' for Active; 'I' for Inactive)
REMARK    1  A    between atoms: C_1  and  C_2
REMARK    2  A    between atoms: C_4  and  C_5
REMARK    3  A    between atoms: C_7  and  N_8
REMARK                            x       y       z     vdW  Elec       q    Type
REMARK                         _______ _______ _______ _____ _____    ______ ____
ROOT
ATOM      1  N   UNL     1       2.861   7.954  17.634  0.00  0.00    +0.000 N 
ATOM      2  C   UNL     1       1.994   8.648  18.482  0.00  0.00    +0.000 A 
ATOM      3  N   UNL     1       1.230   9.605  17.930  0.00  0.00    +0.000 NA
ATOM      4  C   UNL     1       0.371  10.250  18.754  0.00  0.00    +0.000 A 
ATOM      5  C   UNL     1       0.262   9.978  20.099  0.00  0.00    +0.000 A 
ATOM      6  C   UNL     1       1.106   9.008  20.590  0.00  0.00    +0.000 A 
ATOM      7  N   UNL     1       1.961   8.337  19.791  0.00  0.00    +0.000 NA
ATOM      8  C   UNL     1       1.090   8.601  22.036  0.00  0.00    +0.000 C 
ATOM      9  C   UNL     1       0.495   9.687  22.924  0.00  0.00    +0.000 C 
ATOM     10  C   UNL     1      -0.850  10.151  22.383  0.00  0.00    +0.000 C 
ATOM     11  C   UNL     1      -0.712  10.659  20.964  0.00  0.00    +0.000 C 
ATOM     12  O   UNL     1      -1.421  11.552  20.510  0.00  0.00    +0.000 OA
ATOM     13  H   UNL     1       2.640   8.217  16.681  0.00  0.00    +0.000 HD
ENDROOT
BRANCH   1  20
ATOM     14  C   UNL     1       1.445   3.268  18.243  0.00  0.00    +0.000 C 
ATOM     15  C   UNL     1       2.543   4.280  18.097  0.00  0.00    +0.000 A 
ATOM     16  C   UNL     1       3.885   3.883  18.061  0.00  0.00    +0.000 A 
ATOM     17  C   UNL     1       4.903   4.827  17.905  0.00  0.00    +0.000 A 
ATOM     18  C   UNL     1       6.346   4.421  17.873  0.00  0.00    +0.000 C 
ATOM     19  C   UNL     1       4.562   6.179  17.764  0.00  0.00    +0.000 A 
ATOM     20  C   UNL     1       3.225   6.598  17.765  0.00  0.00    +0.000 A 
ATOM     21  C   UNL     1       2.226   5.641  17.970  0.00  0.00    +0.000 A 
ENDBRANCH   1  20
TORSDOF 1
ENDMDL
MODEL 7
REMARK VINA RESULT:      -6.9      2.416      3.878
REMARK  Name = 
REMARK  3 active torsions:
REMARK  status: ('A' for Active; 'I' for Inactive)
REMARK    1  A    between atoms: C_1  and  C_2
REMARK    2  A    between atoms: C_4  and  C_5
REMARK    3  A    between atoms: C_7  and  N_8
REMARK                            x       y       z     vdW  Elec       q    Type
REMARK                         _______ _______ _______ _____ _____    ______ ____
ROOT
ATOM      1  N   UNL     1       3.445   6.176  18.196  0.00  0.00    +0.000 N 
ATOM      2  C   UNL     1       2.701   7.307  18.543  0.00  0.00    +0.000 A 
ATOM      3  N   UNL     1       2.562   8.263  17.610  0.00  0.00    +0.000 NA
ATOM      4  C   UNL     1       1.814   9.340  17.946  0.00  0.00    +0.000 A 
ATOM      5  C   UNL     1       1.217   9.493  19.176  0.00  0.00    +0.000 A 
ATOM      6  C   UNL     1       1.438   8.484  20.086  0.00  0.00    +0.000 A 
ATOM      7  N   UNL     1       2.165   7.392  19.775  0.00  0.00    +0.000 NA
ATOM      8  C   UNL     1       0.839   8.513  21.464  0.00  0.00    +0.000 C 
ATOM      9  C   UNL     1       0.472   9.929  21.893  0.00  0.00    +0.000 C 
ATOM     10  C   UNL     1      -0.367  10.617  20.824  0.00  0.00    +0.000 C 
ATOM     11  C   UNL     1       0.369  10.649  19.502  0.00  0.00    +0.000 C 
ATOM     12  O   UNL     1       0.224  11.556  18.688  0.00  0.00    +0.000 OA
ATOM     13  H   UNL     1       3.635   6.224  17.201  0.00  0.00    +0.000 HD
ENDROOT
BRANCH   1  20
ATOM     14  C   UNL     1       0.295   2.412  18.688  0.00  0.00    +0.000 C 
ATOM     15  C   UNL     1       1.651   3.006  18.932  0.00  0.00    +0.000 A 
ATOM     16  C   UNL     1       2.655   2.266  19.568  0.00  0.00    +0.000 A 
ATOM     17  C   UNL     1       3.922   2.816  19.777  0.00  0.00    +0.000 A 
ATOM     18  C   UNL     1       5.006   2.040  20.464  0.00  0.00    +0.000 C 
ATOM     19  C   UNL     1       4.183   4.115  19.321  0.00  0.00    +0.000 A 
ATOM     20  C   UNL     1       3.206   4.865  18.654  0.00  0.00    +0.000 A 
ATOM     21  C   UNL     1       1.931   4.311  18.499  0.00  0.00    +0.000 A 
ENDBRANCH   1  20
TORSDOF 1
ENDMDL
MODEL 8
REMARK VINA RESULT:      -6.9      2.883      7.037
REMARK  Name = 
REMARK  3 active torsions:
REMARK  status: ('A' for Active; 'I' for Inactive)
REMARK    1  A    between atoms: C_1  and  C_2
REMARK    2  A    between atoms: C_4  and  C_5
REMARK    3  A    between atoms: C_7  and  N_8
REMARK                            x       y       z     vdW  Elec       q    Type
REMARK                         _______ _______ _______ _____ _____    ______ ____
ROOT
ATOM      1  N   UNL     1       2.296   8.959  17.798  0.00  0.00    +0.000 N 
ATOM      2  C   UNL     1       2.836   7.672  17.720  0.00  0.00    +0.000 A 
ATOM      3  N   UNL     1       4.130   7.568  17.374  0.00  0.00    +0.000 NA
ATOM      4  C   UNL     1       4.651   6.320  17.331  0.00  0.00    +0.000 A 
ATOM      5  C   UNL     1       3.924   5.185  17.610  0.00  0.00    +0.000 A 
ATOM      6  C   UNL     1       2.597   5.378  17.923  0.00  0.00    +0.000 A 
ATOM      7  N   UNL     1       2.054   6.610  17.988  0.00  0.00    +0.000 NA
ATOM      8  C   UNL     1       1.687   4.231  18.259  0.00  0.00    +0.000 C 
ATOM      9  C   UNL     1       2.208   2.911  17.703  0.00  0.00    +0.000 C 
ATOM     10  C   UNL     1       3.664   2.698  18.094  0.00  0.00    +0.000 C 
ATOM     11  C   UNL     1       4.525   3.843  17.604  0.00  0.00    +0.000 C 
ATOM     12  O   UNL     1       5.698   3.695  17.280  0.00  0.00    +0.000 OA
ATOM     13  H   UNL     1       3.059   9.621  17.713  0.00  0.00    +0.000 HD
ENDROOT
BRANCH   1  20
ATOM     14  C   UNL     1       0.683   9.195  22.453  0.00  0.00    +0.000 C 
ATOM     15  C   UNL     1       0.471   9.473  20.995  0.00  0.00    +0.000 A 
ATOM     16  C   UNL     1      -0.669  10.153  20.552  0.00  0.00    +0.000 A 
ATOM     17  C   UNL     1      -0.853  10.427  19.194  0.00  0.00    +0.000 A 
ATOM     18  C   UNL     1      -2.072  11.147  18.701  0.00  0.00    +0.000 C 
ATOM     19  C   UNL     1       0.133  10.029  18.280  0.00  0.00    +0.000 A 
ATOM     20  C   UNL     1       1.298   9.376  18.702  0.00  0.00    +0.000 A 
ATOM     21  C   UNL     1       1.437   9.070  20.060  0.00  0.00    +0.000 A 
ENDBRANCH   1  20
TORSDOF 1
ENDMDL
MODEL 9
REMARK VINA RESULT:      -6.9      3.595      5.250
REMARK  Name = 
REMARK  3 active torsions:
REMARK  status: ('A' for Active; 'I' for Inactive)
REMARK    1  A    between atoms: C_1  and  C_2
REMARK    2  A    between atoms: C_4  and  C_5
REMARK    3  A    between atoms: C_7  and  N_8
REMARK                            x       y       z     vdW  Elec       q    Type
REMARK                         _______ _______ _______ _____ _____    ______ ____
ROOT
ATOM      1  N   UNL     1       7.127   4.562  16.125  0.00  0.00    +0.000 N 
ATOM      2  C   UNL     1       6.029   4.552  16.990  0.00  0.00    +0.000 A 
ATOM      3  N   UNL     1       6.140   5.247  18.134  0.00  0.00    +0.000 NA
ATOM      4  C   UNL     1       5.060   5.255  18.949  0.00  0.00    +0.000 A 
ATOM      5  C   UNL     1       3.890   4.590  18.664  0.00  0.00    +0.000 A 
ATOM      6  C   UNL     1       3.872   3.874  17.489  0.00  0.00    +0.000 A 
ATOM      7  N   UNL     1       4.927   3.858  16.649  0.00  0.00    +0.000 NA
ATOM      8  C   UNL     1       2.659   3.107  17.046  0.00  0.00    +0.000 C 
ATOM      9  C   UNL     1       1.740   2.774  18.215  0.00  0.00    +0.000 C 
ATOM     10  C   UNL     1       1.436   4.020  19.036  0.00  0.00    +0.000 C 
ATOM     11  C   UNL     1       2.713   4.654  19.543  0.00  0.00    +0.000 C 
ATOM     12  O   UNL     1       2.770   5.262  20.607  0.00  0.00    +0.000 OA
ATOM     13  H   UNL     1       7.790   5.246  16.474  0.00  0.00    +0.000 HD
ENDROOT
BRANCH   1  20
ATOM     14  C   UNL     1       8.594   6.418  11.797  0.00  0.00    +0.000 C 
ATOM     15  C   UNL     1       7.755   5.445  12.570  0.00  0.00    +0.000 A 
ATOM     16  C   UNL     1       6.956   4.503  11.910  0.00  0.00    +0.000 A 
ATOM     17  C   UNL     1       6.190   3.586  12.634  0.00  0.00    +0.000 A 
ATOM     18  C   UNL     1       5.323   2.576  11.944  0.00  0.00    +0.000 C 
ATOM     19  C   UNL     1       6.248   3.607  14.034  0.00  0.00    +0.000 A 
ATOM     20  C   UNL     1       7.063   4.518  14.718  0.00  0.00    +0.000 A 
ATOM     21  C   UNL     1       7.783   5.458  13.973  0.00  0.00    +0.000 A 
ENDBRANCH   1  20
TORSDOF 1
ENDMDL
