MODEL 1
REMARK VINA RESULT:      -5.9      0.000      0.000
REMARK  Name = 
REMARK  6 active torsions:
REMARK  status: ('A' for Active; 'I' for Inactive)
REMARK    1  A    between atoms: C_1  and  C_2
REMARK    2  A    between atoms: C_5  and  C_6
REMARK    3  A    between atoms: N_7  and  N_8
REMARK    4  A    between atoms: N_8  and  C_9
REMARK    5  A    between atoms: C_9  and  N_11
REMARK    6  A    between atoms: N_11  and  O_12
REMARK                            x       y       z     vdW  Elec       q    Type
REMARK                         _______ _______ _______ _____ _____    ______ ____
ROOT
ATOM      1  C   UNL     1       4.016   5.122  17.346  0.00  0.00    +0.000 C 
ATOM      2  N   UNL     1       4.834   4.450  16.601  0.00  0.00    +0.000 NA
ENDROOT
BRANCH   1   7
ATOM      3  C   UNL     1       1.385   2.557  21.805  0.00  0.00    +0.000 C 
ATOM      4  C   UNL     1       2.074   3.222  20.649  0.00  0.00    +0.000 A 
ATOM      5  C   UNL     1       3.380   2.865  20.298  0.00  0.00    +0.000 A 
ATOM      6  C   UNL     1       4.019   3.493  19.229  0.00  0.00    +0.000 A 
ATOM      7  C   UNL     1       3.353   4.483  18.500  0.00  0.00    +0.000 A 
ATOM      8  C   UNL     1       2.046   4.844  18.834  0.00  0.00    +0.000 A 
ATOM      9  C   UNL     1       1.414   4.216  19.911  0.00  0.00    +0.000 A 
ENDBRANCH   1   7
BRANCH   2  10
ATOM     10  N   UNL     1       5.308   5.096  15.499  0.00  0.00    +0.000 N 
ATOM     11  H   UNL     1       4.729   5.768  15.006  0.00  0.00    +0.000 HD
BRANCH  10  12
ATOM     12  C   UNL     1       6.457   4.648  14.885  0.00  0.00    +0.000 C 
ATOM     13  S   UNL     1       6.383   3.871  13.410  0.00  0.00    +0.000 S 
BRANCH  12  14
ATOM     14  N   UNL     1       7.601   4.870  15.596  0.00  0.00    +0.000 N 
ATOM     15  H   UNL     1       8.385   5.273  15.087  0.00  0.00    +0.000 HD
BRANCH  14  16
ATOM     16  O   UNL     1       7.891   4.147  16.768  0.00  0.00    +0.000 OA
ATOM     17  H   UNL     1       7.052   4.202  17.268  0.00  0.00    +0.000 HD
ENDBRANCH  14  16
ENDBRANCH  12  14
ENDBRANCH  10  12
ENDBRANCH   2  10
TORSDOF 5
ENDMDL
MODEL 2
REMARK VINA RESULT:      -5.8      2.821      2.993
REMARK  Name = 
REMARK  6 active torsions:
REMARK  status: ('A' for Active; 'I' for Inactive)
REMARK    1  A    between atoms: C_1  and  C_2
REMARK    2  A    between atoms: C_5  and  C_6
REMARK    3  A    between atoms: N_7  and  N_8
REMARK    4  A    between atoms: N_8  and  C_9
REMARK    5  A    between atoms: C_9  and  N_11
REMARK    6  A    between atoms: N_11  and  O_12
REMARK                            x       y       z     vdW  Elec       q    Type
REMARK                         _______ _______ _______ _____ _____    ______ ____
ROOT
ATOM      1  C   UNL     1       5.391   5.061  17.965  0.00  0.00    +0.000 C 
ATOM      2  N   UNL     1       6.530   4.462  18.103  0.00  0.00    +0.000 NA
ENDROOT
BRANCH   1   7
ATOM      3  C   UNL     1       0.455   2.184  18.825  0.00  0.00    +0.000 C 
ATOM      4  C   UNL     1       1.740   2.929  18.607  0.00  0.00    +0.000 A 
ATOM      5  C   UNL     1       2.952   2.406  19.068  0.00  0.00    +0.000 A 
ATOM      6  C   UNL     1       4.141   3.107  18.871  0.00  0.00    +0.000 A 
ATOM      7  C   UNL     1       4.127   4.337  18.205  0.00  0.00    +0.000 A 
ATOM      8  C   UNL     1       2.925   4.867  17.733  0.00  0.00    +0.000 A 
ATOM      9  C   UNL     1       1.735   4.163  17.940  0.00  0.00    +0.000 A 
ENDBRANCH   1   7
BRANCH   2  10
ATOM     10  N   UNL     1       7.631   5.182  17.751  0.00  0.00    +0.000 N 
ATOM     11  H   UNL     1       8.388   4.748  17.231  0.00  0.00    +0.000 HD
BRANCH  10  12
ATOM     12  C   UNL     1       7.856   6.414  18.327  0.00  0.00    +0.000 C 
ATOM     13  S   UNL     1       7.602   7.816  17.457  0.00  0.00    +0.000 S 
BRANCH  12  14
ATOM     14  N   UNL     1       8.314   6.361  19.611  0.00  0.00    +0.000 N 
ATOM     15  H   UNL     1       9.185   6.851  19.806  0.00  0.00    +0.000 HD
BRANCH  14  16
ATOM     16  O   UNL     1       7.948   5.319  20.481  0.00  0.00    +0.000 OA
ATOM     17  H   UNL     1       7.558   5.797  21.239  0.00  0.00    +0.000 HD
ENDBRANCH  14  16
ENDBRANCH  12  14
ENDBRANCH  10  12
ENDBRANCH   2  10
TORSDOF 5
ENDMDL
MODEL 3
REMARK VINA RESULT:      -5.8      0.671      1.455
REMARK  Name = 
REMARK  6 active torsions:
REMARK  status: ('A' for Active; 'I' for Inactive)
REMARK    1  A    between atoms: C_1  and  C_2
REMARK    2  A    between atoms: C_5  and  C_6
REMARK    3  A    between atoms: N_7  and  N_8
REMARK    4  A    between atoms: N_8  and  C_9
REMARK    5  A    between atoms: C_9  and  N_11
REMARK    6  A    between atoms: N_11  and  O_12
REMARK                            x       y       z     vdW  Elec       q    Type
REMARK                         _______ _______ _______ _____ _____    ______ ____
ROOT
ATOM      1  C   UNL     1       4.080   5.301  17.235  0.00  0.00    +0.000 C 
ATOM      2  N   UNL     1       4.764   4.637  16.360  0.00  0.00    +0.000 NA
ENDROOT
BRANCH   1   7
ATOM      3  C   UNL     1       1.478   2.635  21.651  0.00  0.00    +0.000 C 
ATOM      4  C   UNL     1       2.148   3.329  20.502  0.00  0.00    +0.000 A 
ATOM      5  C   UNL     1       1.515   4.388  19.843  0.00  0.00    +0.000 A 
ATOM      6  C   UNL     1       2.139   5.022  18.769  0.00  0.00    +0.000 A 
ATOM      7  C   UNL     1       3.405   4.604  18.348  0.00  0.00    +0.000 A 
ATOM      8  C   UNL     1       4.052   3.554  19.002  0.00  0.00    +0.000 A 
ATOM      9  C   UNL     1       3.419   2.917  20.074  0.00  0.00    +0.000 A 
ENDBRANCH   1   7
BRANCH   2  10
ATOM     10  N   UNL     1       5.254   5.356  15.312  0.00  0.00    +0.000 N 
ATOM     11  H   UNL     1       4.691   6.078  14.874  0.00  0.00    +0.000 HD
BRANCH  10  12
ATOM     12  C   UNL     1       6.394   4.931  14.665  0.00  0.00    +0.000 C 
ATOM     13  S   UNL     1       6.291   3.917  13.344  0.00  0.00    +0.000 S 
BRANCH  12  14
ATOM     14  N   UNL     1       7.558   5.384  15.216  0.00  0.00    +0.000 N 
ATOM     15  H   UNL     1       8.368   4.772  15.140  0.00  0.00    +0.000 HD
BRANCH  14  16
ATOM     16  O   UNL     1       7.561   6.339  16.248  0.00  0.00    +0.000 OA
ATOM     17  H   UNL     1       6.608   6.510  16.387  0.00  0.00    +0.000 HD
ENDBRANCH  14  16
ENDBRANCH  12  14
ENDBRANCH  10  12
ENDBRANCH   2  10
TORSDOF 5
ENDMDL
MODEL 4
REMARK VINA RESULT:      -5.8      3.159      4.128
REMARK  Name = 
REMARK  6 active torsions:
REMARK  status: ('A' for Active; 'I' for Inactive)
REMARK    1  A    between atoms: C_1  and  C_2
REMARK    2  A    between atoms: C_5  and  C_6
REMARK    3  A    between atoms: N_7  and  N_8
REMARK    4  A    between atoms: N_8  and  C_9
REMARK    5  A    between atoms: C_9  and  N_11
REMARK    6  A    between atoms: N_11  and  O_12
REMARK                            x       y       z     vdW  Elec       q    Type
REMARK                         _______ _______ _______ _____ _____    ______ ____
ROOT
ATOM      1  C   UNL     1       5.860   4.051  15.109  0.00  0.00    +0.000 C 
ATOM      2  N   UNL     1       5.475   3.986  13.875  0.00  0.00    +0.000 NA
ENDROOT
BRANCH   1   7
ATOM      3  C   UNL     1       2.679   6.968  18.950  0.00  0.00    +0.000 C 
ATOM      4  C   UNL     1       3.505   6.205  17.955  0.00  0.00    +0.000 A 
ATOM      5  C   UNL     1       3.376   4.818  17.839  0.00  0.00    +0.000 A 
ATOM      6  C   UNL     1       4.153   4.113  16.920  0.00  0.00    +0.000 A 
ATOM      7  C   UNL     1       5.064   4.794  16.106  0.00  0.00    +0.000 A 
ATOM      8  C   UNL     1       5.197   6.180  16.206  0.00  0.00    +0.000 A 
ATOM      9  C   UNL     1       4.420   6.880  17.134  0.00  0.00    +0.000 A 
ENDBRANCH   1   7
BRANCH   2  10
ATOM     10  N   UNL     1       6.333   3.373  13.012  0.00  0.00    +0.000 N 
ATOM     11  H   UNL     1       7.330   3.564  13.052  0.00  0.00    +0.000 HD
BRANCH  10  12
ATOM     12  C   UNL     1       5.838   2.711  11.910  0.00  0.00    +0.000 C 
ATOM     13  S   UNL     1       4.355   3.127  11.266  0.00  0.00    +0.000 S 
BRANCH  12  14
ATOM     14  N   UNL     1       6.639   1.707  11.447  0.00  0.00    +0.000 N 
ATOM     15  H   UNL     1       7.390   1.977  10.814  0.00  0.00    +0.000 HD
BRANCH  14  16
ATOM     16  O   UNL     1       6.192   0.375  11.392  0.00  0.00    +0.000 OA
ATOM     17  H   UNL     1       5.221   0.476  11.334  0.00  0.00    +0.000 HD
ENDBRANCH  14  16
ENDBRANCH  12  14
ENDBRANCH  10  12
ENDBRANCH   2  10
TORSDOF 5
ENDMDL
MODEL 5
REMARK VINA RESULT:      -5.8      1.004      1.035
REMARK  Name = 
REMARK  6 active torsions:
REMARK  status: ('A' for Active; 'I' for Inactive)
REMARK    1  A    between atoms: C_1  and  C_2
REMARK    2  A    between atoms: C_5  and  C_6
REMARK    3  A    between atoms: N_7  and  N_8
REMARK    4  A    between atoms: N_8  and  C_9
REMARK    5  A    between atoms: C_9  and  N_11
REMARK    6  A    between atoms: N_11  and  O_12
REMARK                            x       y       z     vdW  Elec       q    Type
REMARK                         _______ _______ _______ _____ _____    ______ ____
ROOT
ATOM      1  C   UNL     1       4.186   4.667  17.229  0.00  0.00    +0.000 C 
ATOM      2  N   UNL     1       5.212   5.442  17.382  0.00  0.00    +0.000 NA
ENDROOT
BRANCH   1   7
ATOM      3  C   UNL     1       1.233   2.680  21.780  0.00  0.00    +0.000 C 
ATOM      4  C   UNL     1       2.002   3.190  20.596  0.00  0.00    +0.000 A 
ATOM      5  C   UNL     1       2.199   2.381  19.473  0.00  0.00    +0.000 A 
ATOM      6  C   UNL     1       2.923   2.857  18.380  0.00  0.00    +0.000 A 
ATOM      7  C   UNL     1       3.452   4.152  18.401  0.00  0.00    +0.000 A 
ATOM      8  C   UNL     1       3.256   4.973  19.513  0.00  0.00    +0.000 A 
ATOM      9  C   UNL     1       2.535   4.488  20.608  0.00  0.00    +0.000 A 
ENDBRANCH   1   7
BRANCH   2  10
ATOM     10  N   UNL     1       5.887   5.773  16.246  0.00  0.00    +0.000 N 
ATOM     11  H   UNL     1       5.637   6.605  15.721  0.00  0.00    +0.000 HD
BRANCH  10  12
ATOM     12  C   UNL     1       6.720   4.850  15.652  0.00  0.00    +0.000 C 
ATOM     13  S   UNL     1       6.330   4.186  14.171  0.00  0.00    +0.000 S 
BRANCH  12  14
ATOM     14  N   UNL     1       7.825   4.531  16.386  0.00  0.00    +0.000 N 
ATOM     15  H   UNL     1       8.666   4.289  15.866  0.00  0.00    +0.000 HD
BRANCH  14  16
ATOM     16  O   UNL     1       7.720   4.056  17.706  0.00  0.00    +0.000 OA
ATOM     17  H   UNL     1       7.663   3.088  17.583  0.00  0.00    +0.000 HD
ENDBRANCH  14  16
ENDBRANCH  12  14
ENDBRANCH  10  12
ENDBRANCH   2  10
TORSDOF 5
ENDMDL
MODEL 6
REMARK VINA RESULT:      -5.8      2.496      2.683
REMARK  Name = 
REMARK  6 active torsions:
REMARK  status: ('A' for Active; 'I' for Inactive)
REMARK    1  A    between atoms: C_1  and  C_2
REMARK    2  A    between atoms: C_5  and  C_6
REMARK    3  A    between atoms: N_7  and  N_8
REMARK    4  A    between atoms: N_8  and  C_9
REMARK    5  A    between atoms: C_9  and  N_11
REMARK    6  A    between atoms: N_11  and  O_12
REMARK                            x       y       z     vdW  Elec       q    Type
REMARK                         _______ _______ _______ _____ _____    ______ ____
ROOT
ATOM      1  C   UNL     1       5.321   5.508  18.671  0.00  0.00    +0.000 C 
ATOM      2  N   UNL     1       6.487   4.958  18.781  0.00  0.00    +0.000 NA
ENDROOT
BRANCH   1   7
ATOM      3  C   UNL     1       0.548   2.257  18.837  0.00  0.00    +0.000 C 
ATOM      4  C   UNL     1       1.790   3.100  18.799  0.00  0.00    +0.000 A 
ATOM      5  C   UNL     1       2.930   2.719  19.515  0.00  0.00    +0.000 A 
ATOM      6  C   UNL     1       4.077   3.511  19.484  0.00  0.00    +0.000 A 
ATOM      7  C   UNL     1       4.094   4.690  18.732  0.00  0.00    +0.000 A 
ATOM      8  C   UNL     1       2.966   5.078  18.007  0.00  0.00    +0.000 A 
ATOM      9  C   UNL     1       1.816   4.283  18.047  0.00  0.00    +0.000 A 
ENDBRANCH   1   7
BRANCH   2  10
ATOM     10  N   UNL     1       7.557   5.782  18.601  0.00  0.00    +0.000 N 
ATOM     11  H   UNL     1       8.225   5.933  19.350  0.00  0.00    +0.000 HD
BRANCH  10  12
ATOM     12  C   UNL     1       7.596   6.624  17.511  0.00  0.00    +0.000 C 
ATOM     13  S   UNL     1       7.762   8.272  17.718  0.00  0.00    +0.000 S 
BRANCH  12  14
ATOM     14  N   UNL     1       7.458   5.996  16.306  0.00  0.00    +0.000 N 
ATOM     15  H   UNL     1       6.761   6.376  15.669  0.00  0.00    +0.000 HD
BRANCH  14  16
ATOM     16  O   UNL     1       7.831   4.651  16.131  0.00  0.00    +0.000 OA
ATOM     17  H   UNL     1       6.978   4.179  16.202  0.00  0.00    +0.000 HD
ENDBRANCH  14  16
ENDBRANCH  12  14
ENDBRANCH  10  12
ENDBRANCH   2  10
TORSDOF 5
ENDMDL
MODEL 7
REMARK VINA RESULT:      -5.7      0.806      1.502
REMARK  Name = 
REMARK  6 active torsions:
REMARK  status: ('A' for Active; 'I' for Inactive)
REMARK    1  A    between atoms: C_1  and  C_2
REMARK    2  A    between atoms: C_5  and  C_6
REMARK    3  A    between atoms: N_7  and  N_8
REMARK    4  A    between atoms: N_8  and  C_9
REMARK    5  A    between atoms: C_9  and  N_11
REMARK    6  A    between atoms: N_11  and  O_12
REMARK                            x       y       z     vdW  Elec       q    Type
REMARK                         _______ _______ _______ _____ _____    ______ ____
ROOT
ATOM      1  C   UNL     1       3.818   4.083  16.758  0.00  0.00    +0.000 C 
ATOM      2  N   UNL     1       5.068   3.831  16.533  0.00  0.00    +0.000 NA
ENDROOT
BRANCH   1   7
ATOM      3  C   UNL     1       1.368   2.615  21.780  0.00  0.00    +0.000 C 
ATOM      4  C   UNL     1       1.999   2.996  20.472  0.00  0.00    +0.000 A 
ATOM      5  C   UNL     1       1.235   3.580  19.457  0.00  0.00    +0.000 A 
ATOM      6  C   UNL     1       1.825   3.922  18.241  0.00  0.00    +0.000 A 
ATOM      7  C   UNL     1       3.188   3.687  18.032  0.00  0.00    +0.000 A 
ATOM      8  C   UNL     1       3.964   3.112  19.040  0.00  0.00    +0.000 A 
ATOM      9  C   UNL     1       3.365   2.764  20.255  0.00  0.00    +0.000 A 
ENDBRANCH   1   7
BRANCH   2  10
ATOM     10  N   UNL     1       5.526   4.136  15.287  0.00  0.00    +0.000 N 
ATOM     11  H   UNL     1       5.062   3.768  14.462  0.00  0.00    +0.000 HD
BRANCH  10  12
ATOM     12  C   UNL     1       6.770   4.710  15.138  0.00  0.00    +0.000 C 
ATOM     13  S   UNL     1       7.442   4.894  13.622  0.00  0.00    +0.000 S 
BRANCH  12  14
ATOM     14  N   UNL     1       7.373   5.064  16.311  0.00  0.00    +0.000 N 
ATOM     15  H   UNL     1       7.662   6.035  16.401  0.00  0.00    +0.000 HD
BRANCH  14  16
ATOM     16  O   UNL     1       8.026   4.115  17.117  0.00  0.00    +0.000 OA
ATOM     17  H   UNL     1       7.633   4.274  17.998  0.00  0.00    +0.000 HD
ENDBRANCH  14  16
ENDBRANCH  12  14
ENDBRANCH  10  12
ENDBRANCH   2  10
TORSDOF 5
ENDMDL
MODEL 8
REMARK VINA RESULT:      -5.6      1.934      2.399
REMARK  Name = 
REMARK  6 active torsions:
REMARK  status: ('A' for Active; 'I' for Inactive)
REMARK    1  A    between atoms: C_1  and  C_2
REMARK    2  A    between atoms: C_5  and  C_6
REMARK    3  A    between atoms: N_7  and  N_8
REMARK    4  A    between atoms: N_8  and  C_9
REMARK    5  A    between atoms: C_9  and  N_11
REMARK    6  A    between atoms: N_11  and  O_12
REMARK                            x       y       z     vdW  Elec       q    Type
REMARK                         _______ _______ _______ _____ _____    ______ ____
ROOT
ATOM      1  C   UNL     1       5.044   5.467  16.565  0.00  0.00    +0.000 C 
ATOM      2  N   UNL     1       6.089   4.789  16.216  0.00  0.00    +0.000 NA
ENDROOT
BRANCH   1   7
ATOM      3  C   UNL     1       0.724   2.900  19.416  0.00  0.00    +0.000 C 
ATOM      4  C   UNL     1       1.843   3.572  18.675  0.00  0.00    +0.000 A 
ATOM      5  C   UNL     1       2.018   4.957  18.756  0.00  0.00    +0.000 A 
ATOM      6  C   UNL     1       3.054   5.577  18.058  0.00  0.00    +0.000 A 
ATOM      7  C   UNL     1       3.926   4.814  17.275  0.00  0.00    +0.000 A 
ATOM      8  C   UNL     1       3.767   3.430  17.192  0.00  0.00    +0.000 A 
ATOM      9  C   UNL     1       2.723   2.814  17.888  0.00  0.00    +0.000 A 
ENDBRANCH   1   7
BRANCH   2  10
ATOM     10  N   UNL     1       7.013   5.456  15.470  0.00  0.00    +0.000 N 
ATOM     11  H   UNL     1       7.375   6.353  15.777  0.00  0.00    +0.000 HD
BRANCH  10  12
ATOM     12  C   UNL     1       7.258   5.061  14.172  0.00  0.00    +0.000 C 
ATOM     13  S   UNL     1       6.302   3.904  13.443  0.00  0.00    +0.000 S 
BRANCH  12  14
ATOM     14  N   UNL     1       8.334   5.668  13.591  0.00  0.00    +0.000 N 
ATOM     15  H   UNL     1       9.038   6.050  14.219  0.00  0.00    +0.000 HD
BRANCH  14  16
ATOM     16  O   UNL     1       8.264   6.204  12.293  0.00  0.00    +0.000 OA
ATOM     17  H   UNL     1       9.203   6.237  12.022  0.00  0.00    +0.000 HD
ENDBRANCH  14  16
ENDBRANCH  12  14
ENDBRANCH  10  12
ENDBRANCH   2  10
TORSDOF 5
ENDMDL
MODEL 9
REMARK VINA RESULT:      -5.6      1.113      1.113
REMARK  Name = 
REMARK  6 active torsions:
REMARK  status: ('A' for Active; 'I' for Inactive)
REMARK    1  A    between atoms: C_1  and  C_2
REMARK    2  A    between atoms: C_5  and  C_6
REMARK    3  A    between atoms: N_7  and  N_8
REMARK    4  A    between atoms: N_8  and  C_9
REMARK    5  A    between atoms: C_9  and  N_11
REMARK    6  A    between atoms: N_11  and  O_12
REMARK                            x       y       z     vdW  Elec       q    Type
REMARK                         _______ _______ _______ _____ _____    ______ ____
ROOT
ATOM      1  C   UNL     1       4.150   4.651  16.852  0.00  0.00    +0.000 C 
ATOM      2  N   UNL     1       4.566   5.870  16.727  0.00  0.00    +0.000 NA
ENDROOT
BRANCH   1   7
ATOM      3  C   UNL     1       1.454   2.888  21.648  0.00  0.00    +0.000 C 
ATOM      4  C   UNL     1       2.159   3.342  20.403  0.00  0.00    +0.000 A 
ATOM      5  C   UNL     1       2.976   2.461  19.686  0.00  0.00    +0.000 A 
ATOM      6  C   UNL     1       3.636   2.891  18.536  0.00  0.00    +0.000 A 
ATOM      7  C   UNL     1       3.480   4.208  18.090  0.00  0.00    +0.000 A 
ATOM      8  C   UNL     1       2.662   5.095  18.790  0.00  0.00    +0.000 A 
ATOM      9  C   UNL     1       2.008   4.660  19.948  0.00  0.00    +0.000 A 
ENDBRANCH   1   7
BRANCH   2  10
ATOM     10  N   UNL     1       5.269   6.151  15.594  0.00  0.00    +0.000 N 
ATOM     11  H   UNL     1       4.864   6.729  14.865  0.00  0.00    +0.000 HD
BRANCH  10  12
ATOM     12  C   UNL     1       6.411   5.436  15.305  0.00  0.00    +0.000 C 
ATOM     13  S   UNL     1       6.384   4.220  14.162  0.00  0.00    +0.000 S 
BRANCH  12  14
ATOM     14  N   UNL     1       7.504   5.795  16.041  0.00  0.00    +0.000 N 
ATOM     15  H   UNL     1       8.164   5.054  16.270  0.00  0.00    +0.000 HD
BRANCH  14  16
ATOM     16  O   UNL     1       7.492   6.932  16.868  0.00  0.00    +0.000 OA
ATOM     17  H   UNL     1       8.004   7.582  16.348  0.00  0.00    +0.000 HD
ENDBRANCH  14  16
ENDBRANCH  12  14
ENDBRANCH  10  12
ENDBRANCH   2  10
TORSDOF 5
ENDMDL
