MODEL 1
REMARK VINA RESULT:      -7.2      0.000      0.000
REMARK  Name = 
REMARK  5 active torsions:
REMARK  status: ('A' for Active; 'I' for Inactive)
REMARK    1  A    between atoms: C_2  and  S_3
REMARK    2  A    between atoms: C_2  and  N_16
REMARK    3  A    between atoms: S_3  and  S_4
REMARK    4  A    between atoms: S_4  and  C_5
REMARK    5  A    between atoms: C_5  and  N_7
REMARK                            x       y       z     vdW  Elec       q    Type
REMARK                         _______ _______ _______ _____ _____    ______ ____
ROOT
ATOM      1  S   UNL     1       2.687   5.796  19.707  0.00  0.00    +0.000 S 
ENDROOT
BRANCH   1   3
ATOM      2  S   UNL     1       3.098   7.918  17.602  0.00  0.00    +0.000 S 
ATOM      3  C   UNL     1       2.386   7.427  19.052  0.00  0.00    +0.000 C 
BRANCH   3   4
ATOM      4  N   UNL     1       1.605   8.271  19.849  0.00  0.00    +0.000 N 
ATOM      5  C   UNL     1       1.006   9.553  19.435  0.00  0.00    +0.000 C 
ATOM      6  C   UNL     1       0.622  10.212  20.754  0.00  0.00    +0.000 C 
ATOM      7  C   UNL     1      -0.468  11.270  20.745  0.00  0.00    +0.000 C 
ATOM      8  C   UNL     1      -0.743  11.721  22.187  0.00  0.00    +0.000 C 
ATOM      9  C   UNL     1      -1.028  10.555  23.144  0.00  0.00    +0.000 C 
ATOM     10  C   UNL     1       0.010   9.426  23.046  0.00  0.00    +0.000 C 
ATOM     11  C   UNL     1       0.180   9.013  21.591  0.00  0.00    +0.000 C 
ATOM     12  C   UNL     1       1.253   7.985  21.256  0.00  0.00    +0.000 C 
ENDBRANCH   3   4
ENDBRANCH   1   3
BRANCH   1  13
ATOM     13  S   UNL     1       3.201   4.691  18.030  0.00  0.00    +0.000 S 
BRANCH  13  14
ATOM     14  C   UNL     1       4.954   4.939  17.856  0.00  0.00    +0.000 C 
ATOM     15  S   UNL     1       5.911   5.215  19.218  0.00  0.00    +0.000 S 
BRANCH  14  16
ATOM     16  N   UNL     1       5.470   4.785  16.565  0.00  0.00    +0.000 N 
ATOM     17  C   UNL     1       4.884   3.901  15.534  0.00  0.00    +0.000 C 
ATOM     18  C   UNL     1       5.955   3.833  14.453  0.00  0.00    +0.000 C 
ATOM     19  C   UNL     1       5.532   3.517  13.025  0.00  0.00    +0.000 C 
ATOM     20  C   UNL     1       6.758   3.610  12.098  0.00  0.00    +0.000 C 
ATOM     21  C   UNL     1       7.527   4.931  12.243  0.00  0.00    +0.000 C 
ATOM     22  C   UNL     1       7.836   5.293  13.703  0.00  0.00    +0.000 C 
ATOM     23  C   UNL     1       6.553   5.237  14.517  0.00  0.00    +0.000 C 
ATOM     24  C   UNL     1       6.649   5.480  16.017  0.00  0.00    +0.000 C 
ENDBRANCH  14  16
ENDBRANCH  13  14
ENDBRANCH   1  13
TORSDOF 5
ENDMDL
MODEL 2
REMARK VINA RESULT:      -6.8      1.579      2.652
REMARK  Name = 
REMARK  5 active torsions:
REMARK  status: ('A' for Active; 'I' for Inactive)
REMARK    1  A    between atoms: C_2  and  S_3
REMARK    2  A    between atoms: C_2  and  N_16
REMARK    3  A    between atoms: S_3  and  S_4
REMARK    4  A    between atoms: S_4  and  C_5
REMARK    5  A    between atoms: C_5  and  N_7
REMARK                            x       y       z     vdW  Elec       q    Type
REMARK                         _______ _______ _______ _____ _____    ______ ____
ROOT
ATOM      1  S   UNL     1       1.788   5.902  20.855  0.00  0.00    +0.000 S 
ENDROOT
BRANCH   1   3
ATOM      2  S   UNL     1       2.598   7.490  18.421  0.00  0.00    +0.000 S 
ATOM      3  C   UNL     1       1.788   7.408  19.900  0.00  0.00    +0.000 C 
BRANCH   3   4
ATOM      4  N   UNL     1       1.153   8.506  20.490  0.00  0.00    +0.000 N 
ATOM      5  C   UNL     1       0.547   8.543  21.834  0.00  0.00    +0.000 C 
ATOM      6  C   UNL     1      -0.318   9.798  21.802  0.00  0.00    +0.000 C 
ATOM      7  C   UNL     1      -0.678  10.463  23.120  0.00  0.00    +0.000 C 
ATOM      8  C   UNL     1      -1.470  11.747  22.835  0.00  0.00    +0.000 C 
ATOM      9  C   UNL     1      -0.767  12.687  21.846  0.00  0.00    +0.000 C 
ATOM     10  C   UNL     1      -0.285  11.974  20.573  0.00  0.00    +0.000 C 
ATOM     11  C   UNL     1       0.529  10.745  20.953  0.00  0.00    +0.000 C 
ATOM     12  C   UNL     1       1.004   9.824  19.836  0.00  0.00    +0.000 C 
ENDBRANCH   3   4
ENDBRANCH   1   3
BRANCH   1  13
ATOM     13  S   UNL     1       1.624   4.419  19.416  0.00  0.00    +0.000 S 
BRANCH  13  14
ATOM     14  C   UNL     1       3.191   3.578  19.466  0.00  0.00    +0.000 C 
ATOM     15  S   UNL     1       3.498   2.427  20.660  0.00  0.00    +0.000 S 
BRANCH  14  16
ATOM     16  N   UNL     1       4.070   3.858  18.414  0.00  0.00    +0.000 N 
ATOM     17  C   UNL     1       5.499   4.195  18.590  0.00  0.00    +0.000 C 
ATOM     18  C   UNL     1       5.926   4.717  17.223  0.00  0.00    +0.000 C 
ATOM     19  C   UNL     1       7.394   4.624  16.833  0.00  0.00    +0.000 C 
ATOM     20  C   UNL     1       7.567   5.106  15.381  0.00  0.00    +0.000 C 
ATOM     21  C   UNL     1       6.615   4.414  14.396  0.00  0.00    +0.000 C 
ATOM     22  C   UNL     1       5.154   4.411  14.869  0.00  0.00    +0.000 C 
ATOM     23  C   UNL     1       5.084   3.857  16.283  0.00  0.00    +0.000 C 
ATOM     24  C   UNL     1       3.730   3.845  16.980  0.00  0.00    +0.000 C 
ENDBRANCH  14  16
ENDBRANCH  13  14
ENDBRANCH   1  13
TORSDOF 5
ENDMDL
MODEL 3
REMARK VINA RESULT:      -6.8      1.435      2.712
REMARK  Name = 
REMARK  5 active torsions:
REMARK  status: ('A' for Active; 'I' for Inactive)
REMARK    1  A    between atoms: C_2  and  S_3
REMARK    2  A    between atoms: C_2  and  N_16
REMARK    3  A    between atoms: S_3  and  S_4
REMARK    4  A    between atoms: S_4  and  C_5
REMARK    5  A    between atoms: C_5  and  N_7
REMARK                            x       y       z     vdW  Elec       q    Type
REMARK                         _______ _______ _______ _____ _____    ______ ____
ROOT
ATOM      1  S   UNL     1       2.955   4.570  18.226  0.00  0.00    +0.000 S 
ENDROOT
BRANCH   1   3
ATOM      2  S   UNL     1       2.160   4.347  21.128  0.00  0.00    +0.000 S 
ATOM      3  C   UNL     1       2.391   5.299  19.753  0.00  0.00    +0.000 C 
BRANCH   3   4
ATOM      4  N   UNL     1       2.084   6.663  19.702  0.00  0.00    +0.000 N 
ATOM      5  C   UNL     1       1.561   7.480  20.812  0.00  0.00    +0.000 C 
ATOM      6  C   UNL     1       1.049   8.738  20.120  0.00  0.00    +0.000 C 
ATOM      7  C   UNL     1       0.925  10.014  20.935  0.00  0.00    +0.000 C 
ATOM      8  C   UNL     1       0.480  11.158  20.014  0.00  0.00    +0.000 C 
ATOM      9  C   UNL     1       1.362  11.311  18.766  0.00  0.00    +0.000 C 
ATOM     10  C   UNL     1       1.593   9.986  18.023  0.00  0.00    +0.000 C 
ATOM     11  C   UNL     1       2.077   8.928  19.005  0.00  0.00    +0.000 C 
ATOM     12  C   UNL     1       2.254   7.503  18.497  0.00  0.00    +0.000 C 
ENDBRANCH   3   4
ENDBRANCH   1   3
BRANCH   1  13
ATOM     13  S   UNL     1       4.732   3.644  18.762  0.00  0.00    +0.000 S 
BRANCH  13  14
ATOM     14  C   UNL     1       5.999   4.687  18.075  0.00  0.00    +0.000 C 
ATOM     15  S   UNL     1       6.966   5.627  19.088  0.00  0.00    +0.000 S 
BRANCH  14  16
ATOM     16  N   UNL     1       6.191   4.586  16.692  0.00  0.00    +0.000 N 
ATOM     17  C   UNL     1       7.255   5.291  15.945  0.00  0.00    +0.000 C 
ATOM     18  C   UNL     1       6.855   5.121  14.485  0.00  0.00    +0.000 C 
ATOM     19  C   UNL     1       7.940   5.191  13.419  0.00  0.00    +0.000 C 
ATOM     20  C   UNL     1       7.322   4.884  12.042  0.00  0.00    +0.000 C 
ATOM     21  C   UNL     1       6.509   3.582  12.021  0.00  0.00    +0.000 C 
ATOM     22  C   UNL     1       5.505   3.478  13.178  0.00  0.00    +0.000 C 
ATOM     23  C   UNL     1       6.226   3.730  14.493  0.00  0.00    +0.000 C 
ATOM     24  C   UNL     1       5.395   3.758  15.769  0.00  0.00    +0.000 C 
ENDBRANCH  14  16
ENDBRANCH  13  14
ENDBRANCH   1  13
TORSDOF 5
ENDMDL
MODEL 4
REMARK VINA RESULT:      -6.8      1.625      2.679
REMARK  Name = 
REMARK  5 active torsions:
REMARK  status: ('A' for Active; 'I' for Inactive)
REMARK    1  A    between atoms: C_2  and  S_3
REMARK    2  A    between atoms: C_2  and  N_16
REMARK    3  A    between atoms: S_3  and  S_4
REMARK    4  A    between atoms: S_4  and  C_5
REMARK    5  A    between atoms: C_5  and  N_7
REMARK                            x       y       z     vdW  Elec       q    Type
REMARK                         _______ _______ _______ _____ _____    ______ ____
ROOT
ATOM      1  S   UNL     1       2.414   5.839  20.613  0.00  0.00    +0.000 S 
ENDROOT
BRANCH   1   3
ATOM      2  S   UNL     1       2.805   7.546  18.155  0.00  0.00    +0.000 S 
ATOM      3  C   UNL     1       2.134   7.341  19.691  0.00  0.00    +0.000 C 
BRANCH   3   4
ATOM      4  N   UNL     1       1.408   8.337  20.352  0.00  0.00    +0.000 N 
ATOM      5  C   UNL     1       0.968   8.307  21.759  0.00  0.00    +0.000 C 
ATOM      6  C   UNL     1      -0.083   9.408  21.829  0.00  0.00    +0.000 C 
ATOM      7  C   UNL     1      -0.385  10.036  23.180  0.00  0.00    +0.000 C 
ATOM      8  C   UNL     1      -1.401  11.171  22.990  0.00  0.00    +0.000 C 
ATOM      9  C   UNL     1      -0.980  12.190  21.920  0.00  0.00    +0.000 C 
ATOM     10  C   UNL     1      -0.547  11.534  20.600  0.00  0.00    +0.000 C 
ATOM     11  C   UNL     1       0.493  10.458  20.881  0.00  0.00    +0.000 C 
ATOM     12  C   UNL     1       0.972   9.600  19.717  0.00  0.00    +0.000 C 
ENDBRANCH   3   4
ENDBRANCH   1   3
BRANCH   1  13
ATOM     13  S   UNL     1       1.352   4.414  19.544  0.00  0.00    +0.000 S 
BRANCH  13  14
ATOM     14  C   UNL     1       2.562   3.175  19.137  0.00  0.00    +0.000 C 
ATOM     15  S   UNL     1       2.327   1.573  19.607  0.00  0.00    +0.000 S 
BRANCH  14  16
ATOM     16  N   UNL     1       3.626   3.600  18.333  0.00  0.00    +0.000 N 
ATOM     17  C   UNL     1       3.549   3.764  16.865  0.00  0.00    +0.000 C 
ATOM     18  C   UNL     1       5.001   3.920  16.434  0.00  0.00    +0.000 C 
ATOM     19  C   UNL     1       5.302   4.661  15.138  0.00  0.00    +0.000 C 
ATOM     20  C   UNL     1       6.827   4.789  14.967  0.00  0.00    +0.000 C 
ATOM     21  C   UNL     1       7.528   5.378  16.199  0.00  0.00    +0.000 C 
ATOM     22  C   UNL     1       7.116   4.695  17.512  0.00  0.00    +0.000 C 
ATOM     23  C   UNL     1       5.599   4.680  17.616  0.00  0.00    +0.000 C 
ATOM     24  C   UNL     1       4.972   3.969  18.808  0.00  0.00    +0.000 C 
ENDBRANCH  14  16
ENDBRANCH  13  14
ENDBRANCH   1  13
TORSDOF 5
ENDMDL
MODEL 5
REMARK VINA RESULT:      -6.7      1.706      9.533
REMARK  Name = 
REMARK  5 active torsions:
REMARK  status: ('A' for Active; 'I' for Inactive)
REMARK    1  A    between atoms: C_2  and  S_3
REMARK    2  A    between atoms: C_2  and  N_16
REMARK    3  A    between atoms: S_3  and  S_4
REMARK    4  A    between atoms: S_4  and  C_5
REMARK    5  A    between atoms: C_5  and  N_7
REMARK                            x       y       z     vdW  Elec       q    Type
REMARK                         _______ _______ _______ _____ _____    ______ ____
ROOT
ATOM      1  S   UNL     1       1.479   4.806  19.771  0.00  0.00    +0.000 S 
ENDROOT
BRANCH   1   3
ATOM      2  S   UNL     1       3.022   2.418  20.783  0.00  0.00    +0.000 S 
ATOM      3  C   UNL     1       2.848   3.667  19.660  0.00  0.00    +0.000 C 
BRANCH   3   4
ATOM      4  N   UNL     1       3.781   3.929  18.652  0.00  0.00    +0.000 N 
ATOM      5  C   UNL     1       3.510   3.970  17.203  0.00  0.00    +0.000 C 
ATOM      6  C   UNL     1       4.898   3.898  16.577  0.00  0.00    +0.000 C 
ATOM      7  C   UNL     1       5.086   4.433  15.167  0.00  0.00    +0.000 C 
ATOM      8  C   UNL     1       6.570   4.337  14.787  0.00  0.00    +0.000 C 
ATOM      9  C   UNL     1       7.504   4.986  15.819  0.00  0.00    +0.000 C 
ATOM     10  C   UNL     1       7.215   4.540  17.260  0.00  0.00    +0.000 C 
ATOM     11  C   UNL     1       5.733   4.715  17.562  0.00  0.00    +0.000 C 
ATOM     12  C   UNL     1       5.209   4.219  18.903  0.00  0.00    +0.000 C 
ENDBRANCH   3   4
ENDBRANCH   1   3
BRANCH   1  13
ATOM     13  S   UNL     1       2.282   6.425  20.788  0.00  0.00    +0.000 S 
BRANCH  13  14
ATOM     14  C   UNL     1       1.907   7.825  19.756  0.00  0.00    +0.000 C 
ATOM     15  S   UNL     1       2.434   7.863  18.154  0.00  0.00    +0.000 S 
BRANCH  14  16
ATOM     16  N   UNL     1       1.082   8.801  20.325  0.00  0.00    +0.000 N 
ATOM     17  C   UNL     1       0.681   8.826  21.748  0.00  0.00    +0.000 C 
ATOM     18  C   UNL     1      -0.442   9.855  21.797  0.00  0.00    +0.000 C 
ATOM     19  C   UNL     1      -0.717  10.573  23.111  0.00  0.00    +0.000 C 
ATOM     20  C   UNL     1      -1.810  11.635  22.893  0.00  0.00    +0.000 C 
ATOM     21  C   UNL     1      -1.513  12.577  21.718  0.00  0.00    +0.000 C 
ATOM     22  C   UNL     1      -1.117  11.834  20.433  0.00  0.00    +0.000 C 
ATOM     23  C   UNL     1       0.011  10.862  20.742  0.00  0.00    +0.000 C 
ATOM     24  C   UNL     1       0.500   9.957  19.620  0.00  0.00    +0.000 C 
ENDBRANCH  14  16
ENDBRANCH  13  14
ENDBRANCH   1  13
TORSDOF 5
ENDMDL
MODEL 6
REMARK VINA RESULT:      -6.7      0.772      2.142
REMARK  Name = 
REMARK  5 active torsions:
REMARK  status: ('A' for Active; 'I' for Inactive)
REMARK    1  A    between atoms: C_2  and  S_3
REMARK    2  A    between atoms: C_2  and  N_16
REMARK    3  A    between atoms: S_3  and  S_4
REMARK    4  A    between atoms: S_4  and  C_5
REMARK    5  A    between atoms: C_5  and  N_7
REMARK                            x       y       z     vdW  Elec       q    Type
REMARK                         _______ _______ _______ _____ _____    ______ ____
ROOT
ATOM      1  S   UNL     1       3.086   6.736  18.373  0.00  0.00    +0.000 S 
ENDROOT
BRANCH   1   3
ATOM      2  S   UNL     1       1.948   5.332  20.790  0.00  0.00    +0.000 S 
ATOM      3  C   UNL     1       2.135   6.744  19.882  0.00  0.00    +0.000 C 
BRANCH   3   4
ATOM      4  N   UNL     1       1.508   7.952  20.203  0.00  0.00    +0.000 N 
ATOM      5  C   UNL     1       0.960   8.327  21.520  0.00  0.00    +0.000 C 
ATOM      6  C   UNL     1       0.074   9.528  21.210  0.00  0.00    +0.000 C 
ATOM      7  C   UNL     1      -0.240  10.505  22.331  0.00  0.00    +0.000 C 
ATOM      8  C   UNL     1      -1.065  11.669  21.767  0.00  0.00    +0.000 C 
ATOM      9  C   UNL     1      -0.422  12.330  20.539  0.00  0.00    +0.000 C 
ATOM     10  C   UNL     1       0.016  11.319  19.468  0.00  0.00    +0.000 C 
ATOM     11  C   UNL     1       0.866  10.232  20.110  0.00  0.00    +0.000 C 
ATOM     12  C   UNL     1       1.308   9.059  19.244  0.00  0.00    +0.000 C 
ENDBRANCH   3   4
ENDBRANCH   1   3
BRANCH   1  13
ATOM     13  S   UNL     1       3.901   4.830  18.327  0.00  0.00    +0.000 S 
BRANCH  13  14
ATOM     14  C   UNL     1       5.598   5.086  17.856  0.00  0.00    +0.000 C 
ATOM     15  S   UNL     1       6.757   5.451  19.026  0.00  0.00    +0.000 S 
BRANCH  14  16
ATOM     16  N   UNL     1       5.899   4.862  16.508  0.00  0.00    +0.000 N 
ATOM     17  C   UNL     1       7.041   5.476  15.797  0.00  0.00    +0.000 C 
ATOM     18  C   UNL     1       6.757   5.190  14.327  0.00  0.00    +0.000 C 
ATOM     19  C   UNL     1       7.927   5.143  13.354  0.00  0.00    +0.000 C 
ATOM     20  C   UNL     1       7.414   4.733  11.961  0.00  0.00    +0.000 C 
ATOM     21  C   UNL     1       6.566   3.454  11.980  0.00  0.00    +0.000 C 
ATOM     22  C   UNL     1       5.468   3.473  13.054  0.00  0.00    +0.000 C 
ATOM     23  C   UNL     1       6.087   3.820  14.399  0.00  0.00    +0.000 C 
ATOM     24  C   UNL     1       5.156   3.977  15.593  0.00  0.00    +0.000 C 
ENDBRANCH  14  16
ENDBRANCH  13  14
ENDBRANCH   1  13
TORSDOF 5
ENDMDL
MODEL 7
REMARK VINA RESULT:      -6.7      1.652      2.454
REMARK  Name = 
REMARK  5 active torsions:
REMARK  status: ('A' for Active; 'I' for Inactive)
REMARK    1  A    between atoms: C_2  and  S_3
REMARK    2  A    between atoms: C_2  and  N_16
REMARK    3  A    between atoms: S_3  and  S_4
REMARK    4  A    between atoms: S_4  and  C_5
REMARK    5  A    between atoms: C_5  and  N_7
REMARK                            x       y       z     vdW  Elec       q    Type
REMARK                         _______ _______ _______ _____ _____    ______ ____
ROOT
ATOM      1  S   UNL     1       2.319   6.565  20.658  0.00  0.00    +0.000 S 
ENDROOT
BRANCH   1   3
ATOM      2  S   UNL     1       2.334   8.065  18.039  0.00  0.00    +0.000 S 
ATOM      3  C   UNL     1       1.832   7.953  19.648  0.00  0.00    +0.000 C 
BRANCH   3   4
ATOM      4  N   UNL     1       1.094   8.950  20.294  0.00  0.00    +0.000 N 
ATOM      5  C   UNL     1       0.898  10.333  19.822  0.00  0.00    +0.000 C 
ATOM      6  C   UNL     1       0.380  11.062  21.056  0.00  0.00    +0.000 C 
ATOM      7  C   UNL     1      -0.423  12.337  20.860  0.00  0.00    +0.000 C 
ATOM      8  C   UNL     1      -0.910  12.840  22.226  0.00  0.00    +0.000 C 
ATOM      9  C   UNL     1      -1.650  11.768  23.039  0.00  0.00    +0.000 C 
ATOM     10  C   UNL     1      -0.888  10.436  23.117  0.00  0.00    +0.000 C 
ATOM     11  C   UNL     1      -0.489   9.993  21.715  0.00  0.00    +0.000 C 
ATOM     12  C   UNL     1       0.382   8.751  21.574  0.00  0.00    +0.000 C 
ENDBRANCH   3   4
ENDBRANCH   1   3
BRANCH   1  13
ATOM     13  S   UNL     1       1.611   4.928  19.600  0.00  0.00    +0.000 S 
BRANCH  13  14
ATOM     14  C   UNL     1       2.988   3.802  19.555  0.00  0.00    +0.000 C 
ATOM     15  S   UNL     1       3.059   2.506  20.632  0.00  0.00    +0.000 S 
BRANCH  14  16
ATOM     16  N   UNL     1       3.913   4.008  18.526  0.00  0.00    +0.000 N 
ATOM     17  C   UNL     1       5.346   4.306  18.740  0.00  0.00    +0.000 C 
ATOM     18  C   UNL     1       5.838   4.753  17.369  0.00  0.00    +0.000 C 
ATOM     19  C   UNL     1       7.316   4.596  17.038  0.00  0.00    +0.000 C 
ATOM     20  C   UNL     1       7.557   5.008  15.574  0.00  0.00    +0.000 C 
ATOM     21  C   UNL     1       6.618   4.305  14.585  0.00  0.00    +0.000 C 
ATOM     22  C   UNL     1       5.142   4.369  15.003  0.00  0.00    +0.000 C 
ATOM     23  C   UNL     1       5.003   3.880  16.436  0.00  0.00    +0.000 C 
ATOM     24  C   UNL     1       3.625   3.942  17.082  0.00  0.00    +0.000 C 
ENDBRANCH  14  16
ENDBRANCH  13  14
ENDBRANCH   1  13
TORSDOF 5
ENDMDL
MODEL 8
REMARK VINA RESULT:      -6.7      3.132      4.475
REMARK  Name = 
REMARK  5 active torsions:
REMARK  status: ('A' for Active; 'I' for Inactive)
REMARK    1  A    between atoms: C_2  and  S_3
REMARK    2  A    between atoms: C_2  and  N_16
REMARK    3  A    between atoms: S_3  and  S_4
REMARK    4  A    between atoms: S_4  and  C_5
REMARK    5  A    between atoms: C_5  and  N_7
REMARK                            x       y       z     vdW  Elec       q    Type
REMARK                         _______ _______ _______ _____ _____    ______ ____
ROOT
ATOM      1  S   UNL     1       4.573   7.473  17.072  0.00  0.00    +0.000 S 
ENDROOT
BRANCH   1   3
ATOM      2  S   UNL     1       2.103   8.986  17.919  0.00  0.00    +0.000 S 
ATOM      3  C   UNL     1       2.978   7.542  17.867  0.00  0.00    +0.000 C 
BRANCH   3   4
ATOM      4  N   UNL     1       2.557   6.366  18.496  0.00  0.00    +0.000 N 
ATOM      5  C   UNL     1       2.477   6.135  19.950  0.00  0.00    +0.000 C 
ATOM      6  C   UNL     1       2.353   4.621  20.067  0.00  0.00    +0.000 C 
ATOM      7  C   UNL     1       1.731   4.039  21.325  0.00  0.00    +0.000 C 
ATOM      8  C   UNL     1       1.631   2.515  21.178  0.00  0.00    +0.000 C 
ATOM      9  C   UNL     1       0.928   2.074  19.886  0.00  0.00    +0.000 C 
ATOM     10  C   UNL     1       1.476   2.772  18.632  0.00  0.00    +0.000 C 
ATOM     11  C   UNL     1       1.493   4.278  18.852  0.00  0.00    +0.000 C 
ATOM     12  C   UNL     1       2.113   5.155  17.772  0.00  0.00    +0.000 C 
ENDBRANCH   3   4
ENDBRANCH   1   3
BRANCH   1  13
ATOM     13  S   UNL     1       5.729   6.387  18.406  0.00  0.00    +0.000 S 
BRANCH  13  14
ATOM     14  C   UNL     1       5.711   4.729  17.760  0.00  0.00    +0.000 C 
ATOM     15  S   UNL     1       5.243   3.440  18.743  0.00  0.00    +0.000 S 
BRANCH  14  16
ATOM     16  N   UNL     1       5.998   4.601  16.396  0.00  0.00    +0.000 N 
ATOM     17  C   UNL     1       7.112   5.292  15.711  0.00  0.00    +0.000 C 
ATOM     18  C   UNL     1       6.814   5.093  14.230  0.00  0.00    +0.000 C 
ATOM     19  C   UNL     1       7.970   5.142  13.240  0.00  0.00    +0.000 C 
ATOM     20  C   UNL     1       7.448   4.809  11.831  0.00  0.00    +0.000 C 
ATOM     21  C   UNL     1       6.636   3.508  11.778  0.00  0.00    +0.000 C 
ATOM     22  C   UNL     1       5.554   3.426  12.865  0.00  0.00    +0.000 C 
ATOM     23  C   UNL     1       6.183   3.703  14.222  0.00  0.00    +0.000 C 
ATOM     24  C   UNL     1       5.266   3.756  15.436  0.00  0.00    +0.000 C 
ENDBRANCH  14  16
ENDBRANCH  13  14
ENDBRANCH   1  13
TORSDOF 5
ENDMDL
MODEL 9
REMARK VINA RESULT:      -6.6      1.143      9.581
REMARK  Name = 
REMARK  5 active torsions:
REMARK  status: ('A' for Active; 'I' for Inactive)
REMARK    1  A    between atoms: C_2  and  S_3
REMARK    2  A    between atoms: C_2  and  N_16
REMARK    3  A    between atoms: S_3  and  S_4
REMARK    4  A    between atoms: S_4  and  C_5
REMARK    5  A    between atoms: C_5  and  N_7
REMARK                            x       y       z     vdW  Elec       q    Type
REMARK                         _______ _______ _______ _____ _____    ______ ____
ROOT
ATOM      1  S   UNL     1       2.108   4.194  18.894  0.00  0.00    +0.000 S 
ENDROOT
BRANCH   1   3
ATOM      2  S   UNL     1       4.178   2.340  20.071  0.00  0.00    +0.000 S 
ATOM      3  C   UNL     1       3.690   3.372  18.827  0.00  0.00    +0.000 C 
BRANCH   3   4
ATOM      4  N   UNL     1       4.504   3.702  17.738  0.00  0.00    +0.000 N 
ATOM      5  C   UNL     1       5.785   4.430  17.797  0.00  0.00    +0.000 C 
ATOM      6  C   UNL     1       6.025   4.850  16.352  0.00  0.00    +0.000 C 
ATOM      7  C   UNL     1       7.449   5.147  15.911  0.00  0.00    +0.000 C 
ATOM      8  C   UNL     1       7.454   5.458  14.408  0.00  0.00    +0.000 C 
ATOM      9  C   UNL     1       6.762   4.380  13.562  0.00  0.00    +0.000 C 
ATOM     10  C   UNL     1       5.376   3.989  14.097  0.00  0.00    +0.000 C 
ATOM     11  C   UNL     1       5.477   3.652  15.578  0.00  0.00    +0.000 C 
ATOM     12  C   UNL     1       4.191   3.351  16.337  0.00  0.00    +0.000 C 
ENDBRANCH   3   4
ENDBRANCH   1   3
BRANCH   1  13
ATOM     13  S   UNL     1       2.365   5.611  20.386  0.00  0.00    +0.000 S 
BRANCH  13  14
ATOM     14  C   UNL     1       2.208   7.171  19.546  0.00  0.00    +0.000 C 
ATOM     15  S   UNL     1       2.791   7.350  17.973  0.00  0.00    +0.000 S 
BRANCH  14  16
ATOM     16  N   UNL     1       1.494   8.164  20.226  0.00  0.00    +0.000 N 
ATOM     17  C   UNL     1       1.090   9.456  19.631  0.00  0.00    +0.000 C 
ATOM     18  C   UNL     1       0.643  10.289  20.826  0.00  0.00    +0.000 C 
ATOM     19  C   UNL     1      -0.350  11.420  20.597  0.00  0.00    +0.000 C 
ATOM     20  C   UNL     1      -0.734  12.044  21.951  0.00  0.00    +0.000 C 
ATOM     21  C   UNL     1      -1.196  11.008  22.985  0.00  0.00    +0.000 C 
ATOM     22  C   UNL     1      -0.241   9.812  23.111  0.00  0.00    +0.000 C 
ATOM     23  C   UNL     1       0.021   9.229  21.731  0.00  0.00    +0.000 C 
ATOM     24  C   UNL     1       1.016   8.082  21.618  0.00  0.00    +0.000 C 
ENDBRANCH  14  16
ENDBRANCH  13  14
ENDBRANCH   1  13
TORSDOF 5
ENDMDL
