MODEL 1
REMARK VINA RESULT:      -7.6      0.000      0.000
REMARK  Name = 
REMARK  4 active torsions:
REMARK  status: ('A' for Active; 'I' for Inactive)
REMARK    1  A    between atoms: C_2  and  C_12
REMARK    2  A    between atoms: N_3  and  C_4
REMARK    3  A    between atoms: C_4  and  C_5
REMARK    4  A    between atoms: C_5  and  C_6
REMARK                            x       y       z     vdW  Elec       q    Type
REMARK                         _______ _______ _______ _____ _____    ______ ____
ROOT
ATOM      1  O   UNL     1       4.664   5.574  19.151  0.00  0.00    +0.000 OA
ATOM      2  C   UNL     1       3.657   5.810  18.492  0.00  0.00    +0.000 C 
ATOM      3  N   UNL     1       3.195   5.016  17.468  0.00  0.00    +0.000 N 
ATOM      4  H   UNL     1       2.497   5.394  16.839  0.00  0.00    +0.000 HD
ENDROOT
BRANCH   2   5
ATOM      5  C   UNL     1       2.867   7.051  18.735  0.00  0.00    +0.000 A 
ATOM      6  C   UNL     1       2.761   8.016  17.735  0.00  0.00    +0.000 A 
ATOM      7  C   UNL     1       1.912   9.110  17.927  0.00  0.00    +0.000 A 
ATOM      8  C   UNL     1       1.188   9.266  19.102  0.00  0.00    +0.000 A 
ATOM      9  N   UNL     1       0.298  10.271  19.220  0.00  0.00    +0.000 NA
ATOM     10  C   UNL     1      -0.343  10.371  20.404  0.00  0.00    +0.000 A 
ATOM     11  C   UNL     1      -0.071   9.533  21.464  0.00  0.00    +0.000 A 
ATOM     12  N   UNL     1       0.788   8.494  21.352  0.00  0.00    +0.000 NA
ATOM     13  C   UNL     1       1.392   8.346  20.162  0.00  0.00    +0.000 A 
ATOM     14  C   UNL     1       2.213   7.249  19.956  0.00  0.00    +0.000 A 
ENDBRANCH   2   5
BRANCH   3  15
ATOM     15  C   UNL     1       3.853   3.783  17.077  0.00  0.00    +0.000 C 
BRANCH  15  16
ATOM     16  C   UNL     1       3.051   2.569  17.551  0.00  0.00    +0.000 C 
BRANCH  16  17
ATOM     17  C   UNL     1       2.515   2.709  18.951  0.00  0.00    +0.000 A 
ATOM     18  C   UNL     1       1.180   3.076  19.163  0.00  0.00    +0.000 A 
ATOM     19  C   UNL     1       0.680   3.207  20.460  0.00  0.00    +0.000 A 
ATOM     20  C   UNL     1       1.511   2.976  21.556  0.00  0.00    +0.000 A 
ATOM     21  C   UNL     1       2.839   2.609  21.354  0.00  0.00    +0.000 A 
ATOM     22  C   UNL     1       3.341   2.477  20.058  0.00  0.00    +0.000 A 
ENDBRANCH  16  17
ENDBRANCH  15  16
ENDBRANCH   3  15
TORSDOF 4
ENDMDL
MODEL 2
REMARK VINA RESULT:      -7.5      5.158      7.976
REMARK  Name = 
REMARK  4 active torsions:
REMARK  status: ('A' for Active; 'I' for Inactive)
REMARK    1  A    between atoms: C_2  and  C_12
REMARK    2  A    between atoms: N_3  and  C_4
REMARK    3  A    between atoms: C_4  and  C_5
REMARK    4  A    between atoms: C_5  and  C_6
REMARK                            x       y       z     vdW  Elec       q    Type
REMARK                         _______ _______ _______ _____ _____    ______ ____
ROOT
ATOM      1  O   UNL     1       7.893   5.437  19.263  0.00  0.00    +0.000 OA
ATOM      2  C   UNL     1       7.109   6.020  18.522  0.00  0.00    +0.000 C 
ATOM      3  N   UNL     1       7.304   7.287  18.025  0.00  0.00    +0.000 N 
ATOM      4  H   UNL     1       6.519   7.772  17.612  0.00  0.00    +0.000 HD
ENDROOT
BRANCH   2   5
ATOM      5  C   UNL     1       5.815   5.384  18.140  0.00  0.00    +0.000 A 
ATOM      6  C   UNL     1       5.680   4.779  16.892  0.00  0.00    +0.000 A 
ATOM      7  C   UNL     1       4.508   4.073  16.597  0.00  0.00    +0.000 A 
ATOM      8  C   UNL     1       3.470   3.981  17.515  0.00  0.00    +0.000 A 
ATOM      9  N   UNL     1       2.398   3.208  17.248  0.00  0.00    +0.000 NA
ATOM     10  C   UNL     1       1.420   3.195  18.179  0.00  0.00    +0.000 A 
ATOM     11  C   UNL     1       1.474   3.970  19.318  0.00  0.00    +0.000 A 
ATOM     12  N   UNL     1       2.557   4.718  19.623  0.00  0.00    +0.000 NA
ATOM     13  C   UNL     1       3.565   4.698  18.734  0.00  0.00    +0.000 A 
ATOM     14  C   UNL     1       4.738   5.372  19.033  0.00  0.00    +0.000 A 
ENDBRANCH   2   5
BRANCH   3  15
ATOM     15  C   UNL     1       8.496   8.065  18.315  0.00  0.00    +0.000 C 
BRANCH  15  16
ATOM     16  C   UNL     1       8.239   9.555  18.078  0.00  0.00    +0.000 C 
BRANCH  16  17
ATOM     17  C   UNL     1       9.295  10.451  18.668  0.00  0.00    +0.000 A 
ATOM     18  C   UNL     1       9.291  10.742  20.039  0.00  0.00    +0.000 A 
ATOM     19  C   UNL     1      10.270  11.571  20.588  0.00  0.00    +0.000 A 
ATOM     20  C   UNL     1      11.259  12.121  19.773  0.00  0.00    +0.000 A 
ATOM     21  C   UNL     1      11.272  11.836  18.410  0.00  0.00    +0.000 A 
ATOM     22  C   UNL     1      10.295  11.005  17.858  0.00  0.00    +0.000 A 
ENDBRANCH  16  17
ENDBRANCH  15  16
ENDBRANCH   3  15
TORSDOF 4
ENDMDL
MODEL 3
REMARK VINA RESULT:      -7.5      0.300      1.095
REMARK  Name = 
REMARK  4 active torsions:
REMARK  status: ('A' for Active; 'I' for Inactive)
REMARK    1  A    between atoms: C_2  and  C_12
REMARK    2  A    between atoms: N_3  and  C_4
REMARK    3  A    between atoms: C_4  and  C_5
REMARK    4  A    between atoms: C_5  and  C_6
REMARK                            x       y       z     vdW  Elec       q    Type
REMARK                         _______ _______ _______ _____ _____    ______ ____
ROOT
ATOM      1  O   UNL     1       4.398   5.762  19.470  0.00  0.00    +0.000 OA
ATOM      2  C   UNL     1       3.525   6.054  18.660  0.00  0.00    +0.000 C 
ATOM      3  N   UNL     1       3.234   5.321  17.533  0.00  0.00    +0.000 N 
ATOM      4  H   UNL     1       2.662   5.744  16.813  0.00  0.00    +0.000 HD
ENDROOT
BRANCH   2   5
ATOM      5  C   UNL     1       2.725   7.302  18.825  0.00  0.00    +0.000 A 
ATOM      6  C   UNL     1       2.610   8.200  17.766  0.00  0.00    +0.000 A 
ATOM      7  C   UNL     1       1.752   9.298  17.890  0.00  0.00    +0.000 A 
ATOM      8  C   UNL     1       1.029   9.522  19.054  0.00  0.00    +0.000 A 
ATOM      9  N   UNL     1       0.131  10.526  19.110  0.00  0.00    +0.000 NA
ATOM     10  C   UNL     1      -0.509  10.696  20.286  0.00  0.00    +0.000 A 
ATOM     11  C   UNL     1      -0.228   9.929  21.397  0.00  0.00    +0.000 A 
ATOM     12  N   UNL     1       0.638   8.892  21.349  0.00  0.00    +0.000 NA
ATOM     13  C   UNL     1       1.242   8.673  20.170  0.00  0.00    +0.000 A 
ATOM     14  C   UNL     1       2.071   7.571  20.033  0.00  0.00    +0.000 A 
ENDBRANCH   2   5
BRANCH   3  15
ATOM     15  C   UNL     1       3.930   4.090  17.200  0.00  0.00    +0.000 C 
BRANCH  15  16
ATOM     16  C   UNL     1       3.052   2.874  17.505  0.00  0.00    +0.000 C 
BRANCH  16  17
ATOM     17  C   UNL     1       2.508   2.860  18.909  0.00  0.00    +0.000 A 
ATOM     18  C   UNL     1       3.347   2.557  19.990  0.00  0.00    +0.000 A 
ATOM     19  C   UNL     1       2.846   2.544  21.292  0.00  0.00    +0.000 A 
ATOM     20  C   UNL     1       1.501   2.828  21.526  0.00  0.00    +0.000 A 
ATOM     21  C   UNL     1       0.659   3.131  20.459  0.00  0.00    +0.000 A 
ATOM     22  C   UNL     1       1.159   3.146  19.155  0.00  0.00    +0.000 A 
ENDBRANCH  16  17
ENDBRANCH  15  16
ENDBRANCH   3  15
TORSDOF 4
ENDMDL
MODEL 4
REMARK VINA RESULT:      -7.5      5.190      8.164
REMARK  Name = 
REMARK  4 active torsions:
REMARK  status: ('A' for Active; 'I' for Inactive)
REMARK    1  A    between atoms: C_2  and  C_12
REMARK    2  A    between atoms: N_3  and  C_4
REMARK    3  A    between atoms: C_4  and  C_5
REMARK    4  A    between atoms: C_5  and  C_6
REMARK                            x       y       z     vdW  Elec       q    Type
REMARK                         _______ _______ _______ _____ _____    ______ ____
ROOT
ATOM      1  O   UNL     1       7.864   5.532  19.578  0.00  0.00    +0.000 OA
ATOM      2  C   UNL     1       7.128   6.017  18.726  0.00  0.00    +0.000 C 
ATOM      3  N   UNL     1       7.360   7.214  18.088  0.00  0.00    +0.000 N 
ATOM      4  H   UNL     1       6.603   7.643  17.572  0.00  0.00    +0.000 HD
ENDROOT
BRANCH   2   5
ATOM      5  C   UNL     1       5.855   5.338  18.349  0.00  0.00    +0.000 A 
ATOM      6  C   UNL     1       5.333   5.501  17.067  0.00  0.00    +0.000 A 
ATOM      7  C   UNL     1       4.212   4.756  16.686  0.00  0.00    +0.000 A 
ATOM      8  C   UNL     1       3.598   3.872  17.564  0.00  0.00    +0.000 A 
ATOM      9  N   UNL     1       2.587   3.089  17.139  0.00  0.00    +0.000 NA
ATOM     10  C   UNL     1       2.024   2.279  18.061  0.00  0.00    +0.000 A 
ATOM     11  C   UNL     1       2.414   2.283  19.384  0.00  0.00    +0.000 A 
ATOM     12  N   UNL     1       3.453   3.030  19.820  0.00  0.00    +0.000 NA
ATOM     13  C   UNL     1       4.061   3.800  18.902  0.00  0.00    +0.000 A 
ATOM     14  C   UNL     1       5.188   4.519  19.267  0.00  0.00    +0.000 A 
ENDBRANCH   2   5
BRANCH   3  15
ATOM     15  C   UNL     1       8.538   8.022  18.350  0.00  0.00    +0.000 C 
BRANCH  15  16
ATOM     16  C   UNL     1       8.251   9.500  18.072  0.00  0.00    +0.000 C 
BRANCH  16  17
ATOM     17  C   UNL     1       9.274  10.434  18.660  0.00  0.00    +0.000 A 
ATOM     18  C   UNL     1      10.231  11.044  17.839  0.00  0.00    +0.000 A 
ATOM     19  C   UNL     1      11.180  11.912  18.382  0.00  0.00    +0.000 A 
ATOM     20  C   UNL     1      11.184  12.173  19.752  0.00  0.00    +0.000 A 
ATOM     21  C   UNL     1      10.235  11.573  20.576  0.00  0.00    +0.000 A 
ATOM     22  C   UNL     1       9.284  10.707  20.035  0.00  0.00    +0.000 A 
ENDBRANCH  16  17
ENDBRANCH  15  16
ENDBRANCH   3  15
TORSDOF 4
ENDMDL
MODEL 5
REMARK VINA RESULT:      -7.5      5.209      8.104
REMARK  Name = 
REMARK  4 active torsions:
REMARK  status: ('A' for Active; 'I' for Inactive)
REMARK    1  A    between atoms: C_2  and  C_12
REMARK    2  A    between atoms: N_3  and  C_4
REMARK    3  A    between atoms: C_4  and  C_5
REMARK    4  A    between atoms: C_5  and  C_6
REMARK                            x       y       z     vdW  Elec       q    Type
REMARK                         _______ _______ _______ _____ _____    ______ ____
ROOT
ATOM      1  O   UNL     1       7.541   6.030  16.479  0.00  0.00    +0.000 OA
ATOM      2  C   UNL     1       6.760   6.609  17.226  0.00  0.00    +0.000 C 
ATOM      3  N   UNL     1       7.029   7.798  17.863  0.00  0.00    +0.000 N 
ATOM      4  H   UNL     1       6.429   8.088  18.624  0.00  0.00    +0.000 HD
ENDROOT
BRANCH   2   5
ATOM      5  C   UNL     1       5.433   6.008  17.547  0.00  0.00    +0.000 A 
ATOM      6  C   UNL     1       4.310   6.825  17.668  0.00  0.00    +0.000 A 
ATOM      7  C   UNL     1       3.052   6.237  17.837  0.00  0.00    +0.000 A 
ATOM      8  C   UNL     1       2.902   4.858  17.908  0.00  0.00    +0.000 A 
ATOM      9  N   UNL     1       1.670   4.315  17.965  0.00  0.00    +0.000 NA
ATOM     10  C   UNL     1       1.611   2.969  18.061  0.00  0.00    +0.000 A 
ATOM     11  C   UNL     1       2.740   2.185  18.155  0.00  0.00    +0.000 A 
ATOM     12  N   UNL     1       3.983   2.707  18.058  0.00  0.00    +0.000 NA
ATOM     13  C   UNL     1       4.059   4.040  17.904  0.00  0.00    +0.000 A 
ATOM     14  C   UNL     1       5.301   4.624  17.708  0.00  0.00    +0.000 A 
ENDBRANCH   2   5
BRANCH   3  15
ATOM     15  C   UNL     1       8.282   8.512  17.687  0.00  0.00    +0.000 C 
BRANCH  15  16
ATOM     16  C   UNL     1       8.077  10.017  17.877  0.00  0.00    +0.000 C 
BRANCH  16  17
ATOM     17  C   UNL     1       9.237  10.704  18.545  0.00  0.00    +0.000 A 
ATOM     18  C   UNL     1      10.281  11.238  17.779  0.00  0.00    +0.000 A 
ATOM     19  C   UNL     1      11.357  11.876  18.396  0.00  0.00    +0.000 A 
ATOM     20  C   UNL     1      11.403  11.983  19.786  0.00  0.00    +0.000 A 
ATOM     21  C   UNL     1      10.369  11.457  20.557  0.00  0.00    +0.000 A 
ATOM     22  C   UNL     1       9.290  10.819  19.941  0.00  0.00    +0.000 A 
ENDBRANCH  16  17
ENDBRANCH  15  16
ENDBRANCH   3  15
TORSDOF 4
ENDMDL
MODEL 6
REMARK VINA RESULT:      -7.4      2.194      3.752
REMARK  Name = 
REMARK  4 active torsions:
REMARK  status: ('A' for Active; 'I' for Inactive)
REMARK    1  A    between atoms: C_2  and  C_12
REMARK    2  A    between atoms: N_3  and  C_4
REMARK    3  A    between atoms: C_4  and  C_5
REMARK    4  A    between atoms: C_5  and  C_6
REMARK                            x       y       z     vdW  Elec       q    Type
REMARK                         _______ _______ _______ _____ _____    ______ ____
ROOT
ATOM      1  O   UNL     1       3.621   4.877  19.672  0.00  0.00    +0.000 OA
ATOM      2  C   UNL     1       3.334   5.590  18.716  0.00  0.00    +0.000 C 
ATOM      3  N   UNL     1       3.622   5.287  17.406  0.00  0.00    +0.000 N 
ATOM      4  H   UNL     1       3.554   6.021  16.712  0.00  0.00    +0.000 HD
ENDROOT
BRANCH   2   5
ATOM      5  C   UNL     1       2.674   6.910  18.929  0.00  0.00    +0.000 A 
ATOM      6  C   UNL     1       2.611   7.833  17.886  0.00  0.00    +0.000 A 
ATOM      7  C   UNL     1       1.877   9.011  18.058  0.00  0.00    +0.000 A 
ATOM      8  C   UNL     1       1.225   9.289  19.252  0.00  0.00    +0.000 A 
ATOM      9  N   UNL     1       0.438  10.378  19.356  0.00  0.00    +0.000 NA
ATOM     10  C   UNL     1      -0.136  10.592  20.559  0.00  0.00    +0.000 A 
ATOM     11  C   UNL     1       0.106   9.783  21.648  0.00  0.00    +0.000 A 
ATOM     12  N   UNL     1       0.859   8.664  21.553  0.00  0.00    +0.000 NA
ATOM     13  C   UNL     1       1.392   8.404  20.348  0.00  0.00    +0.000 A 
ATOM     14  C   UNL     1       2.097   7.226  20.164  0.00  0.00    +0.000 A 
ENDBRANCH   2   5
BRANCH   3  15
ATOM     15  C   UNL     1       4.285   4.055  17.016  0.00  0.00    +0.000 C 
BRANCH  15  16
ATOM     16  C   UNL     1       5.634   4.353  16.357  0.00  0.00    +0.000 C 
BRANCH  16  17
ATOM     17  C   UNL     1       6.500   5.291  17.154  0.00  0.00    +0.000 A 
ATOM     18  C   UNL     1       6.720   6.601  16.708  0.00  0.00    +0.000 A 
ATOM     19  C   UNL     1       7.522   7.474  17.446  0.00  0.00    +0.000 A 
ATOM     20  C   UNL     1       8.116   7.043  18.631  0.00  0.00    +0.000 A 
ATOM     21  C   UNL     1       7.902   5.744  19.083  0.00  0.00    +0.000 A 
ATOM     22  C   UNL     1       7.099   4.870  18.348  0.00  0.00    +0.000 A 
ENDBRANCH  16  17
ENDBRANCH  15  16
ENDBRANCH   3  15
TORSDOF 4
ENDMDL
MODEL 7
REMARK VINA RESULT:      -7.4      2.141      3.773
REMARK  Name = 
REMARK  4 active torsions:
REMARK  status: ('A' for Active; 'I' for Inactive)
REMARK    1  A    between atoms: C_2  and  C_12
REMARK    2  A    between atoms: N_3  and  C_4
REMARK    3  A    between atoms: C_4  and  C_5
REMARK    4  A    between atoms: C_5  and  C_6
REMARK                            x       y       z     vdW  Elec       q    Type
REMARK                         _______ _______ _______ _____ _____    ______ ____
ROOT
ATOM      1  O   UNL     1       3.469   5.486  19.954  0.00  0.00    +0.000 OA
ATOM      2  C   UNL     1       3.062   6.041  18.940  0.00  0.00    +0.000 C 
ATOM      3  N   UNL     1       3.213   5.543  17.667  0.00  0.00    +0.000 N 
ATOM      4  H   UNL     1       3.050   6.161  16.882  0.00  0.00    +0.000 HD
ENDROOT
BRANCH   2   5
ATOM      5  C   UNL     1       2.395   7.373  19.022  0.00  0.00    +0.000 A 
ATOM      6  C   UNL     1       2.337   8.193  17.897  0.00  0.00    +0.000 A 
ATOM      7  C   UNL     1       1.596   9.378  17.951  0.00  0.00    +0.000 A 
ATOM      8  C   UNL     1       0.934   9.764  19.110  0.00  0.00    +0.000 A 
ATOM      9  N   UNL     1       0.142  10.855  19.104  0.00  0.00    +0.000 NA
ATOM     10  C   UNL     1      -0.442  11.179  20.278  0.00  0.00    +0.000 A 
ATOM     11  C   UNL     1      -0.205  10.477  21.440  0.00  0.00    +0.000 A 
ATOM     12  N   UNL     1       0.553   9.357  21.456  0.00  0.00    +0.000 NA
ATOM     13  C   UNL     1       1.096   8.988  20.285  0.00  0.00    +0.000 A 
ATOM     14  C   UNL     1       1.807   7.800  20.219  0.00  0.00    +0.000 A 
ENDBRANCH   2   5
BRANCH   3  15
ATOM     15  C   UNL     1       3.860   4.272  17.397  0.00  0.00    +0.000 C 
BRANCH  15  16
ATOM     16  C   UNL     1       5.141   4.480  16.585  0.00  0.00    +0.000 C 
BRANCH  16  17
ATOM     17  C   UNL     1       6.157   5.350  17.274  0.00  0.00    +0.000 A 
ATOM     18  C   UNL     1       6.803   4.902  18.434  0.00  0.00    +0.000 A 
ATOM     19  C   UNL     1       7.747   5.707  19.074  0.00  0.00    +0.000 A 
ATOM     20  C   UNL     1       8.049   6.969  18.565  0.00  0.00    +0.000 A 
ATOM     21  C   UNL     1       7.413   7.423  17.412  0.00  0.00    +0.000 A 
ATOM     22  C   UNL     1       6.470   6.619  16.769  0.00  0.00    +0.000 A 
ENDBRANCH  16  17
ENDBRANCH  15  16
ENDBRANCH   3  15
TORSDOF 4
ENDMDL
MODEL 8
REMARK VINA RESULT:      -7.4      1.038      1.527
REMARK  Name = 
REMARK  4 active torsions:
REMARK  status: ('A' for Active; 'I' for Inactive)
REMARK    1  A    between atoms: C_2  and  C_12
REMARK    2  A    between atoms: N_3  and  C_4
REMARK    3  A    between atoms: C_4  and  C_5
REMARK    4  A    between atoms: C_5  and  C_6
REMARK                            x       y       z     vdW  Elec       q    Type
REMARK                         _______ _______ _______ _____ _____    ______ ____
ROOT
ATOM      1  O   UNL     1       3.898   5.541  16.952  0.00  0.00    +0.000 OA
ATOM      2  C   UNL     1       3.859   5.933  18.112  0.00  0.00    +0.000 C 
ATOM      3  N   UNL     1       4.521   5.334  19.159  0.00  0.00    +0.000 N 
ATOM      4  H   UNL     1       4.260   5.582  20.104  0.00  0.00    +0.000 HD
ENDROOT
BRANCH   2   5
ATOM      5  C   UNL     1       3.013   7.103  18.488  0.00  0.00    +0.000 A 
ATOM      6  C   UNL     1       2.807   8.134  17.573  0.00  0.00    +0.000 A 
ATOM      7  C   UNL     1       1.908   9.159  17.889  0.00  0.00    +0.000 A 
ATOM      8  C   UNL     1       1.233   9.180  19.103  0.00  0.00    +0.000 A 
ATOM      9  N   UNL     1       0.295  10.118  19.339  0.00  0.00    +0.000 NA
ATOM     10  C   UNL     1      -0.294  10.087  20.554  0.00  0.00    +0.000 A 
ATOM     11  C   UNL     1       0.074   9.187  21.530  0.00  0.00    +0.000 A 
ATOM     12  N   UNL     1       0.982   8.213  21.299  0.00  0.00    +0.000 NA
ATOM     13  C   UNL     1       1.537   8.194  20.075  0.00  0.00    +0.000 A 
ATOM     14  C   UNL     1       2.407   7.166  19.748  0.00  0.00    +0.000 A 
ENDBRANCH   2   5
BRANCH   3  15
ATOM     15  C   UNL     1       5.370   4.169  18.981  0.00  0.00    +0.000 C 
BRANCH  15  16
ATOM     16  C   UNL     1       4.757   2.945  19.665  0.00  0.00    +0.000 C 
BRANCH  16  17
ATOM     17  C   UNL     1       3.251   2.950  19.673  0.00  0.00    +0.000 A 
ATOM     18  C   UNL     1       2.551   3.405  20.798  0.00  0.00    +0.000 A 
ATOM     19  C   UNL     1       1.156   3.411  20.807  0.00  0.00    +0.000 A 
ATOM     20  C   UNL     1       0.447   2.957  19.695  0.00  0.00    +0.000 A 
ATOM     21  C   UNL     1       1.134   2.504  18.572  0.00  0.00    +0.000 A 
ATOM     22  C   UNL     1       2.531   2.498  18.560  0.00  0.00    +0.000 A 
ENDBRANCH  16  17
ENDBRANCH  15  16
ENDBRANCH   3  15
TORSDOF 4
ENDMDL
MODEL 9
REMARK VINA RESULT:      -7.4      5.198      7.871
REMARK  Name = 
REMARK  4 active torsions:
REMARK  status: ('A' for Active; 'I' for Inactive)
REMARK    1  A    between atoms: C_2  and  C_12
REMARK    2  A    between atoms: N_3  and  C_4
REMARK    3  A    between atoms: C_4  and  C_5
REMARK    4  A    between atoms: C_5  and  C_6
REMARK                            x       y       z     vdW  Elec       q    Type
REMARK                         _______ _______ _______ _____ _____    ______ ____
ROOT
ATOM      1  O   UNL     1       7.560   6.210  16.042  0.00  0.00    +0.000 OA
ATOM      2  C   UNL     1       6.844   6.520  16.988  0.00  0.00    +0.000 C 
ATOM      3  N   UNL     1       7.145   7.501  17.903  0.00  0.00    +0.000 N 
ATOM      4  H   UNL     1       6.617   7.539  18.765  0.00  0.00    +0.000 HD
ENDROOT
BRANCH   2   5
ATOM      5  C   UNL     1       5.571   5.785  17.246  0.00  0.00    +0.000 A 
ATOM      6  C   UNL     1       5.184   4.746  16.402  0.00  0.00    +0.000 A 
ATOM      7  C   UNL     1       4.060   3.981  16.729  0.00  0.00    +0.000 A 
ATOM      8  C   UNL     1       3.309   4.249  17.867  0.00  0.00    +0.000 A 
ATOM      9  N   UNL     1       2.295   3.434  18.216  0.00  0.00    +0.000 NA
ATOM     10  C   UNL     1       1.596   3.781  19.318  0.00  0.00    +0.000 A 
ATOM     11  C   UNL     1       1.858   4.934  20.026  0.00  0.00    +0.000 A 
ATOM     12  N   UNL     1       2.896   5.743  19.716  0.00  0.00    +0.000 NA
ATOM     13  C   UNL     1       3.637   5.381  18.655  0.00  0.00    +0.000 A 
ATOM     14  C   UNL     1       4.768   6.119  18.342  0.00  0.00    +0.000 A 
ENDBRANCH   2   5
BRANCH   3  15
ATOM     15  C   UNL     1       8.355   8.300  17.821  0.00  0.00    +0.000 C 
BRANCH  15  16
ATOM     16  C   UNL     1       8.045   9.777  18.078  0.00  0.00    +0.000 C 
BRANCH  16  17
ATOM     17  C   UNL     1       9.209  10.550  18.636  0.00  0.00    +0.000 A 
ATOM     18  C   UNL     1       9.324  10.758  20.017  0.00  0.00    +0.000 A 
ATOM     19  C   UNL     1      10.403  11.473  20.537  0.00  0.00    +0.000 A 
ATOM     20  C   UNL     1      11.375  11.991  19.683  0.00  0.00    +0.000 A 
ATOM     21  C   UNL     1      11.271  11.789  18.309  0.00  0.00    +0.000 A 
ATOM     22  C   UNL     1      10.193  11.072  17.786  0.00  0.00    +0.000 A 
ENDBRANCH  16  17
ENDBRANCH  15  16
ENDBRANCH   3  15
TORSDOF 4
ENDMDL
