MODEL 1
REMARK VINA RESULT:      -7.2      0.000      0.000
REMARK  Name = 
REMARK  14 active torsions:
REMARK  status: ('A' for Active; 'I' for Inactive)
REMARK    1  A    between atoms: C_1  and  C_2
REMARK    2  A    between atoms: C_2  and  C_3
REMARK    3  A    between atoms: C_2  and  C_23
REMARK    4  A    between atoms: C_3  and  C_4
REMARK    5  A    between atoms: N_6  and  C_7
REMARK    6  A    between atoms: C_7  and  C_8
REMARK    7  A    between atoms: C_8  and  C_9
REMARK    8  A    between atoms: C_9  and  C_10
REMARK    9  A    between atoms: C_10  and  N_11
REMARK   10  A    between atoms: N_11  and  C_12
REMARK   11  A    between atoms: C_23  and  C_24
REMARK   12  A    between atoms: C_24  and  C_25
REMARK   13  A    between atoms: C_24  and  C_26
REMARK   14  A    between atoms: C_24  and  C_27
REMARK                            x       y       z     vdW  Elec       q    Type
REMARK                         _______ _______ _______ _____ _____    ______ ____
ROOT
ATOM      1  C   UNL     1       7.798   7.674  17.543  0.00  0.00    +0.000 C 
ENDROOT
BRANCH   1   2
ATOM      2  C   UNL     1       7.900   6.790  18.792  0.00  0.00    +0.000 C 
BRANCH   2   3
ATOM      3  C   UNL     1       7.717   5.307  18.463  0.00  0.00    +0.000 C 
BRANCH   3   6
ATOM      4  C   UNL     1       6.003   4.552  16.874  0.00  0.00    +0.000 C 
ATOM      5  O   UNL     1       6.801   4.468  15.945  0.00  0.00    +0.000 OA
ATOM      6  N   UNL     1       6.350   4.984  18.135  0.00  0.00    +0.000 N 
ATOM      7  H   UNL     1       5.655   5.000  18.868  0.00  0.00    +0.000 HD
BRANCH   4   8
ATOM      8  C   UNL     1       4.535   4.209  16.726  0.00  0.00    +0.000 C 
BRANCH   8  10
ATOM      9  C   UNL     1       3.477   2.178  17.727  0.00  0.00    +0.000 C 
ATOM     10  C   UNL     1       3.898   3.623  18.005  0.00  0.00    +0.000 C 
BRANCH  10  11
ATOM     11  C   UNL     1       2.761   4.531  18.549  0.00  0.00    +0.000 C 
BRANCH  11  12
ATOM     12  C   UNL     1       2.103   4.201  19.927  0.00  0.00    +0.000 C 
ATOM     13  C   UNL     1       3.061   3.393  20.816  0.00  0.00    +0.000 C 
ATOM     14  C   UNL     1       1.786   5.535  20.646  0.00  0.00    +0.000 C 
ATOM     15  C   UNL     1       0.775   3.442  19.786  0.00  0.00    +0.000 C 
ENDBRANCH  11  12
ENDBRANCH  10  11
ENDBRANCH   8  10
ENDBRANCH   4   8
ENDBRANCH   3   6
ENDBRANCH   2   3
ENDBRANCH   1   2
BRANCH   1  16
ATOM     16  C   UNL     1       7.943   9.157  17.894  0.00  0.00    +0.000 C 
BRANCH  16  17
ATOM     17  N   UNL     1       8.935   9.347  18.952  0.00  0.00    +0.000 N 
ATOM     18  H   UNL     1       9.625   8.600  18.939  0.00  0.00    +0.000 HD
BRANCH  17  19
ATOM     19  C   UNL     1       9.566  10.622  18.990  0.00  0.00    +0.000 A 
ATOM     20  C   UNL     1      10.239  11.118  17.864  0.00  0.00    +0.000 A 
ATOM     21  C   UNL     1      10.787  12.384  17.904  0.00  0.00    +0.000 A 
ATOM     22  N   UNL     1      10.684  13.209  18.956  0.00  0.00    +0.000 NA
ATOM     23  C   UNL     1      10.002  12.778  20.027  0.00  0.00    +0.000 A 
ATOM     24  C   UNL     1       9.877  13.660  21.086  0.00  0.00    +0.000 A 
ATOM     25  C   UNL     1       9.191  13.310  22.244  0.00  0.00    +0.000 A 
ATOM     26 CL   UNL     1       9.053  14.439  23.536  0.00  0.00    +0.000 Cl
ATOM     27  C   UNL     1       8.614  12.054  22.362  0.00  0.00    +0.000 A 
ATOM     28  C   UNL     1       8.717  11.154  21.301  0.00  0.00    +0.000 A 
ATOM     29  C   UNL     1       9.408  11.491  20.108  0.00  0.00    +0.000 A 
ENDBRANCH  17  19
ENDBRANCH  16  17
ENDBRANCH   1  16
TORSDOF 10
ENDMDL
MODEL 2
REMARK VINA RESULT:      -7.0      1.410      2.031
REMARK  Name = 
REMARK  14 active torsions:
REMARK  status: ('A' for Active; 'I' for Inactive)
REMARK    1  A    between atoms: C_1  and  C_2
REMARK    2  A    between atoms: C_2  and  C_3
REMARK    3  A    between atoms: C_2  and  C_23
REMARK    4  A    between atoms: C_3  and  C_4
REMARK    5  A    between atoms: N_6  and  C_7
REMARK    6  A    between atoms: C_7  and  C_8
REMARK    7  A    between atoms: C_8  and  C_9
REMARK    8  A    between atoms: C_9  and  C_10
REMARK    9  A    between atoms: C_10  and  N_11
REMARK   10  A    between atoms: N_11  and  C_12
REMARK   11  A    between atoms: C_23  and  C_24
REMARK   12  A    between atoms: C_24  and  C_25
REMARK   13  A    between atoms: C_24  and  C_26
REMARK   14  A    between atoms: C_24  and  C_27
REMARK                            x       y       z     vdW  Elec       q    Type
REMARK                         _______ _______ _______ _____ _____    ______ ____
ROOT
ATOM      1  C   UNL     1       8.328   8.350  18.479  0.00  0.00    +0.000 C 
ENDROOT
BRANCH   1   2
ATOM      2  C   UNL     1       7.818   7.719  17.177  0.00  0.00    +0.000 C 
BRANCH   2   3
ATOM      3  C   UNL     1       7.300   6.296  17.391  0.00  0.00    +0.000 C 
BRANCH   3   6
ATOM      4  C   UNL     1       5.344   5.158  18.345  0.00  0.00    +0.000 C 
ATOM      5  O   UNL     1       5.455   4.189  17.599  0.00  0.00    +0.000 OA
ATOM      6  N   UNL     1       6.179   6.251  18.298  0.00  0.00    +0.000 N 
ATOM      7  H   UNL     1       6.057   7.004  18.962  0.00  0.00    +0.000 HD
BRANCH   4   8
ATOM      8  C   UNL     1       4.254   5.264  19.392  0.00  0.00    +0.000 C 
BRANCH   8  10
ATOM      9  C   UNL     1       2.424   6.507  18.229  0.00  0.00    +0.000 C 
ATOM     10  C   UNL     1       2.824   5.153  18.819  0.00  0.00    +0.000 C 
BRANCH  10  11
ATOM     11  C   UNL     1       1.827   4.589  19.870  0.00  0.00    +0.000 C 
BRANCH  11  12
ATOM     12  C   UNL     1       1.655   3.044  20.017  0.00  0.00    +0.000 C 
ATOM     13  C   UNL     1       0.568   2.516  19.067  0.00  0.00    +0.000 C 
ATOM     14  C   UNL     1       2.995   2.367  19.640  0.00  0.00    +0.000 C 
ATOM     15  C   UNL     1       1.327   2.615  21.455  0.00  0.00    +0.000 C 
ENDBRANCH  11  12
ENDBRANCH  10  11
ENDBRANCH   8  10
ENDBRANCH   4   8
ENDBRANCH   3   6
ENDBRANCH   2   3
ENDBRANCH   1   2
BRANCH   1  16
ATOM     16  C   UNL     1       8.645   9.835  18.295  0.00  0.00    +0.000 C 
BRANCH  16  17
ATOM     17  N   UNL     1       9.435  10.342  19.417  0.00  0.00    +0.000 N 
ATOM     18  H   UNL     1       9.992   9.599  19.831  0.00  0.00    +0.000 HD
BRANCH  17  19
ATOM     19  C   UNL     1      10.236  11.488  19.146  0.00  0.00    +0.000 A 
ATOM     20  C   UNL     1      10.935  11.598  17.936  0.00  0.00    +0.000 A 
ATOM     21  C   UNL     1      11.652  12.747  17.669  0.00  0.00    +0.000 A 
ATOM     22  N   UNL     1      11.695  13.807  18.490  0.00  0.00    +0.000 NA
ATOM     23  C   UNL     1      10.995  13.746  19.631  0.00  0.00    +0.000 A 
ATOM     24  C   UNL     1      11.024  14.866  20.444  0.00  0.00    +0.000 A 
ATOM     25  C   UNL     1      10.333  14.904  21.651  0.00  0.00    +0.000 A 
ATOM     26 CL   UNL     1      10.392  16.318  22.630  0.00  0.00    +0.000 Cl
ATOM     27  C   UNL     1       9.594  13.807  22.067  0.00  0.00    +0.000 A 
ATOM     28  C   UNL     1       9.539  12.673  21.257  0.00  0.00    +0.000 A 
ATOM     29  C   UNL     1      10.233  12.613  20.020  0.00  0.00    +0.000 A 
ENDBRANCH  17  19
ENDBRANCH  16  17
ENDBRANCH   1  16
TORSDOF 10
ENDMDL
MODEL 3
REMARK VINA RESULT:      -7.0      6.517      9.777
REMARK  Name = 
REMARK  14 active torsions:
REMARK  status: ('A' for Active; 'I' for Inactive)
REMARK    1  A    between atoms: C_1  and  C_2
REMARK    2  A    between atoms: C_2  and  C_3
REMARK    3  A    between atoms: C_2  and  C_23
REMARK    4  A    between atoms: C_3  and  C_4
REMARK    5  A    between atoms: N_6  and  C_7
REMARK    6  A    between atoms: C_7  and  C_8
REMARK    7  A    between atoms: C_8  and  C_9
REMARK    8  A    between atoms: C_9  and  C_10
REMARK    9  A    between atoms: C_10  and  N_11
REMARK   10  A    between atoms: N_11  and  C_12
REMARK   11  A    between atoms: C_23  and  C_24
REMARK   12  A    between atoms: C_24  and  C_25
REMARK   13  A    between atoms: C_24  and  C_26
REMARK   14  A    between atoms: C_24  and  C_27
REMARK                            x       y       z     vdW  Elec       q    Type
REMARK                         _______ _______ _______ _____ _____    ______ ____
ROOT
ATOM      1  C   UNL     1       1.468   9.072  21.462  0.00  0.00    +0.000 C 
ENDROOT
BRANCH   1   2
ATOM      2  C   UNL     1       0.547   9.288  22.668  0.00  0.00    +0.000 C 
BRANCH   2   3
ATOM      3  C   UNL     1      -0.438  10.437  22.443  0.00  0.00    +0.000 C 
BRANCH   3   6
ATOM      4  C   UNL     1      -0.310  12.045  20.591  0.00  0.00    +0.000 C 
ATOM      5  O   UNL     1       0.001  12.977  21.328  0.00  0.00    +0.000 OA
ATOM      6  N   UNL     1      -0.576  10.773  21.047  0.00  0.00    +0.000 N 
ATOM      7  H   UNL     1      -0.795  10.040  20.387  0.00  0.00    +0.000 HD
BRANCH   4   8
ATOM      8  C   UNL     1      -0.457  12.202  19.091  0.00  0.00    +0.000 C 
BRANCH   8  10
ATOM      9  C   UNL     1      -0.021   9.973  18.048  0.00  0.00    +0.000 C 
ATOM     10  C   UNL     1      -1.112  10.988  18.397  0.00  0.00    +0.000 C 
BRANCH  10  11
ATOM     11  C   UNL     1      -1.995  11.422  17.194  0.00  0.00    +0.000 C 
BRANCH  11  12
ATOM     12  C   UNL     1      -3.226  10.551  16.789  0.00  0.00    +0.000 C 
ATOM     13  C   UNL     1      -3.505   9.465  17.840  0.00  0.00    +0.000 C 
ATOM     14  C   UNL     1      -4.468  11.472  16.706  0.00  0.00    +0.000 C 
ATOM     15  C   UNL     1      -3.064   9.895  15.409  0.00  0.00    +0.000 C 
ENDBRANCH  11  12
ENDBRANCH  10  11
ENDBRANCH   8  10
ENDBRANCH   4   8
ENDBRANCH   3   6
ENDBRANCH   2   3
ENDBRANCH   1   2
BRANCH   1  16
ATOM     16  C   UNL     1       1.414   7.625  20.968  0.00  0.00    +0.000 C 
BRANCH  16  17
ATOM     17  N   UNL     1       2.179   7.468  19.731  0.00  0.00    +0.000 N 
ATOM     18  H   UNL     1       3.002   8.065  19.737  0.00  0.00    +0.000 HD
BRANCH  17  19
ATOM     19  C   UNL     1       2.521   6.132  19.378  0.00  0.00    +0.000 A 
ATOM     20  C   UNL     1       1.882   5.046  19.993  0.00  0.00    +0.000 A 
ATOM     21  C   UNL     1       2.185   3.762  19.588  0.00  0.00    +0.000 A 
ATOM     22  N   UNL     1       3.039   3.475  18.594  0.00  0.00    +0.000 NA
ATOM     23  C   UNL     1       3.626   4.498  17.956  0.00  0.00    +0.000 A 
ATOM     24  C   UNL     1       4.474   4.179  16.910  0.00  0.00    +0.000 A 
ATOM     25  C   UNL     1       5.134   5.166  16.185  0.00  0.00    +0.000 A 
ATOM     26 CL   UNL     1       6.176   4.727  14.888  0.00  0.00    +0.000 Cl
ATOM     27  C   UNL     1       4.953   6.503  16.501  0.00  0.00    +0.000 A 
ATOM     28  C   UNL     1       4.092   6.848  17.543  0.00  0.00    +0.000 A 
ATOM     29  C   UNL     1       3.405   5.859  18.294  0.00  0.00    +0.000 A 
ENDBRANCH  17  19
ENDBRANCH  16  17
ENDBRANCH   1  16
TORSDOF 10
ENDMDL
MODEL 4
REMARK VINA RESULT:      -7.0      4.791      7.327
REMARK  Name = 
REMARK  14 active torsions:
REMARK  status: ('A' for Active; 'I' for Inactive)
REMARK    1  A    between atoms: C_1  and  C_2
REMARK    2  A    between atoms: C_2  and  C_3
REMARK    3  A    between atoms: C_2  and  C_23
REMARK    4  A    between atoms: C_3  and  C_4
REMARK    5  A    between atoms: N_6  and  C_7
REMARK    6  A    between atoms: C_7  and  C_8
REMARK    7  A    between atoms: C_8  and  C_9
REMARK    8  A    between atoms: C_9  and  C_10
REMARK    9  A    between atoms: C_10  and  N_11
REMARK   10  A    between atoms: N_11  and  C_12
REMARK   11  A    between atoms: C_23  and  C_24
REMARK   12  A    between atoms: C_24  and  C_25
REMARK   13  A    between atoms: C_24  and  C_26
REMARK   14  A    between atoms: C_24  and  C_27
REMARK                            x       y       z     vdW  Elec       q    Type
REMARK                         _______ _______ _______ _____ _____    ______ ____
ROOT
ATOM      1  C   UNL     1       2.336   3.808  20.975  0.00  0.00    +0.000 C 
ENDROOT
BRANCH   1   2
ATOM      2  C   UNL     1       3.231   2.639  20.547  0.00  0.00    +0.000 C 
BRANCH   2   3
ATOM      3  C   UNL     1       2.988   2.230  19.092  0.00  0.00    +0.000 C 
BRANCH   3   6
ATOM      4  C   UNL     1       3.645   3.491  17.090  0.00  0.00    +0.000 C 
ATOM      5  O   UNL     1       2.482   3.698  16.752  0.00  0.00    +0.000 OA
ATOM      6  N   UNL     1       3.993   2.757  18.201  0.00  0.00    +0.000 N 
ATOM      7  H   UNL     1       4.968   2.649  18.445  0.00  0.00    +0.000 HD
BRANCH   4   8
ATOM      8  C   UNL     1       4.830   4.008  16.300  0.00  0.00    +0.000 C 
BRANCH   8  10
ATOM      9  C   UNL     1       4.674   6.403  15.603  0.00  0.00    +0.000 C 
ATOM     10  C   UNL     1       5.240   5.453  16.661  0.00  0.00    +0.000 C 
BRANCH  10  11
ATOM     11  C   UNL     1       6.773   5.576  16.883  0.00  0.00    +0.000 C 
BRANCH  11  12
ATOM     12  C   UNL     1       7.332   5.717  18.334  0.00  0.00    +0.000 C 
ATOM     13  C   UNL     1       6.214   5.557  19.376  0.00  0.00    +0.000 C 
ATOM     14  C   UNL     1       8.372   4.594  18.566  0.00  0.00    +0.000 C 
ATOM     15  C   UNL     1       8.058   7.052  18.566  0.00  0.00    +0.000 C 
ENDBRANCH  11  12
ENDBRANCH  10  11
ENDBRANCH   8  10
ENDBRANCH   4   8
ENDBRANCH   3   6
ENDBRANCH   2   3
ENDBRANCH   1   2
BRANCH   1  16
ATOM     16  C   UNL     1       2.629   5.066  20.155  0.00  0.00    +0.000 C 
BRANCH  16  17
ATOM     17  N   UNL     1       2.014   6.243  20.771  0.00  0.00    +0.000 N 
ATOM     18  H   UNL     1       2.448   6.450  21.666  0.00  0.00    +0.000 HD
BRANCH  17  19
ATOM     19  C   UNL     1       1.951   7.408  19.955  0.00  0.00    +0.000 A 
ATOM     20  C   UNL     1       2.511   7.410  18.670  0.00  0.00    +0.000 A 
ATOM     21  C   UNL     1       2.379   8.530  17.874  0.00  0.00    +0.000 A 
ATOM     22  N   UNL     1       1.703   9.629  18.238  0.00  0.00    +0.000 NA
ATOM     23  C   UNL     1       1.115   9.633  19.443  0.00  0.00    +0.000 A 
ATOM     24  C   UNL     1       0.390  10.763  19.782  0.00  0.00    +0.000 A 
ATOM     25  C   UNL     1      -0.256  10.869  21.009  0.00  0.00    +0.000 A 
ATOM     26 CL   UNL     1      -1.151  12.288  21.389  0.00  0.00    +0.000 Cl
ATOM     27  C   UNL     1      -0.184   9.833  21.928  0.00  0.00    +0.000 A 
ATOM     28  C   UNL     1       0.530   8.679  21.602  0.00  0.00    +0.000 A 
ATOM     29  C   UNL     1       1.193   8.547  20.354  0.00  0.00    +0.000 A 
ENDBRANCH  17  19
ENDBRANCH  16  17
ENDBRANCH   1  16
TORSDOF 10
ENDMDL
MODEL 5
REMARK VINA RESULT:      -7.0      4.898      7.484
REMARK  Name = 
REMARK  14 active torsions:
REMARK  status: ('A' for Active; 'I' for Inactive)
REMARK    1  A    between atoms: C_1  and  C_2
REMARK    2  A    between atoms: C_2  and  C_3
REMARK    3  A    between atoms: C_2  and  C_23
REMARK    4  A    between atoms: C_3  and  C_4
REMARK    5  A    between atoms: N_6  and  C_7
REMARK    6  A    between atoms: C_7  and  C_8
REMARK    7  A    between atoms: C_8  and  C_9
REMARK    8  A    between atoms: C_9  and  C_10
REMARK    9  A    between atoms: C_10  and  N_11
REMARK   10  A    between atoms: N_11  and  C_12
REMARK   11  A    between atoms: C_23  and  C_24
REMARK   12  A    between atoms: C_24  and  C_25
REMARK   13  A    between atoms: C_24  and  C_26
REMARK   14  A    between atoms: C_24  and  C_27
REMARK                            x       y       z     vdW  Elec       q    Type
REMARK                         _______ _______ _______ _____ _____    ______ ____
ROOT
ATOM      1  C   UNL     1       3.195   2.977  21.106  0.00  0.00    +0.000 C 
ENDROOT
BRANCH   1   2
ATOM      2  C   UNL     1       1.690   2.690  21.142  0.00  0.00    +0.000 C 
BRANCH   2   3
ATOM      3  C   UNL     1       0.921   3.512  20.105  0.00  0.00    +0.000 C 
BRANCH   3   6
ATOM      4  C   UNL     1       1.868   5.778  20.135  0.00  0.00    +0.000 C 
ATOM      5  O   UNL     1       1.279   6.087  21.167  0.00  0.00    +0.000 OA
ATOM      6  N   UNL     1       1.732   4.553  19.522  0.00  0.00    +0.000 N 
ATOM      7  H   UNL     1       2.270   4.346  18.692  0.00  0.00    +0.000 HD
BRANCH   4   8
ATOM      8  C   UNL     1       2.799   6.728  19.408  0.00  0.00    +0.000 C 
BRANCH   8  10
ATOM      9  C   UNL     1       2.919   8.291  17.462  0.00  0.00    +0.000 C 
ATOM     10  C   UNL     1       2.071   7.868  18.664  0.00  0.00    +0.000 C 
BRANCH  10  11
ATOM     11  C   UNL     1       1.691   9.030  19.624  0.00  0.00    +0.000 C 
BRANCH  11  12
ATOM     12  C   UNL     1       0.603  10.063  19.190  0.00  0.00    +0.000 C 
ATOM     13  C   UNL     1      -0.359  10.372  20.347  0.00  0.00    +0.000 C 
ATOM     14  C   UNL     1       1.314  11.379  18.790  0.00  0.00    +0.000 C 
ATOM     15  C   UNL     1      -0.202   9.602  17.965  0.00  0.00    +0.000 C 
ENDBRANCH  11  12
ENDBRANCH  10  11
ENDBRANCH   8  10
ENDBRANCH   4   8
ENDBRANCH   3   6
ENDBRANCH   2   3
ENDBRANCH   1   2
BRANCH   1  16
ATOM     16  C   UNL     1       3.909   2.095  20.080  0.00  0.00    +0.000 C 
BRANCH  16  17
ATOM     17  N   UNL     1       5.159   2.716  19.639  0.00  0.00    +0.000 N 
ATOM     18  H   UNL     1       5.884   2.015  19.511  0.00  0.00    +0.000 HD
BRANCH  17  19
ATOM     19  C   UNL     1       5.062   3.563  18.499  0.00  0.00    +0.000 A 
ATOM     20  C   UNL     1       4.066   3.350  17.535  0.00  0.00    +0.000 A 
ATOM     21  C   UNL     1       3.952   4.223  16.473  0.00  0.00    +0.000 A 
ATOM     22  N   UNL     1       4.722   5.310  16.315  0.00  0.00    +0.000 NA
ATOM     23  C   UNL     1       5.649   5.564  17.249  0.00  0.00    +0.000 A 
ATOM     24  C   UNL     1       6.405   6.711  17.085  0.00  0.00    +0.000 A 
ATOM     25  C   UNL     1       7.395   7.064  17.997  0.00  0.00    +0.000 A 
ATOM     26 CL   UNL     1       8.309   8.502  17.758  0.00  0.00    +0.000 Cl
ATOM     27  C   UNL     1       7.646   6.262  19.099  0.00  0.00    +0.000 A 
ATOM     28  C   UNL     1       6.887   5.108  19.292  0.00  0.00    +0.000 A 
ATOM     29  C   UNL     1       5.869   4.731  18.377  0.00  0.00    +0.000 A 
ENDBRANCH  17  19
ENDBRANCH  16  17
ENDBRANCH   1  16
TORSDOF 10
ENDMDL
MODEL 6
REMARK VINA RESULT:      -6.9      0.994      1.263
REMARK  Name = 
REMARK  14 active torsions:
REMARK  status: ('A' for Active; 'I' for Inactive)
REMARK    1  A    between atoms: C_1  and  C_2
REMARK    2  A    between atoms: C_2  and  C_3
REMARK    3  A    between atoms: C_2  and  C_23
REMARK    4  A    between atoms: C_3  and  C_4
REMARK    5  A    between atoms: N_6  and  C_7
REMARK    6  A    between atoms: C_7  and  C_8
REMARK    7  A    between atoms: C_8  and  C_9
REMARK    8  A    between atoms: C_9  and  C_10
REMARK    9  A    between atoms: C_10  and  N_11
REMARK   10  A    between atoms: N_11  and  C_12
REMARK   11  A    between atoms: C_23  and  C_24
REMARK   12  A    between atoms: C_24  and  C_25
REMARK   13  A    between atoms: C_24  and  C_26
REMARK   14  A    between atoms: C_24  and  C_27
REMARK                            x       y       z     vdW  Elec       q    Type
REMARK                         _______ _______ _______ _____ _____    ______ ____
ROOT
ATOM      1  C   UNL     1       7.785   7.997  17.713  0.00  0.00    +0.000 C 
ENDROOT
BRANCH   1   2
ATOM      2  C   UNL     1       8.350   7.218  18.907  0.00  0.00    +0.000 C 
BRANCH   2   3
ATOM      3  C   UNL     1       7.911   5.752  18.898  0.00  0.00    +0.000 C 
BRANCH   3   6
ATOM      4  C   UNL     1       5.811   4.603  18.346  0.00  0.00    +0.000 C 
ATOM      5  O   UNL     1       5.859   3.887  19.343  0.00  0.00    +0.000 OA
ATOM      6  N   UNL     1       6.784   5.524  18.027  0.00  0.00    +0.000 N 
ATOM      7  H   UNL     1       6.672   6.108  17.210  0.00  0.00    +0.000 HD
BRANCH   4   8
ATOM      8  C   UNL     1       4.678   4.535  17.343  0.00  0.00    +0.000 C 
BRANCH   8  10
ATOM      9  C   UNL     1       2.896   2.965  16.566  0.00  0.00    +0.000 C 
ATOM     10  C   UNL     1       3.495   3.652  17.796  0.00  0.00    +0.000 C 
BRANCH  10  11
ATOM     11  C   UNL     1       2.472   4.455  18.646  0.00  0.00    +0.000 C 
BRANCH  11  12
ATOM     12  C   UNL     1       1.681   3.733  19.783  0.00  0.00    +0.000 C 
ATOM     13  C   UNL     1       0.654   2.748  19.203  0.00  0.00    +0.000 C 
ATOM     14  C   UNL     1       2.688   2.929  20.642  0.00  0.00    +0.000 C 
ATOM     15  C   UNL     1       0.970   4.713  20.729  0.00  0.00    +0.000 C 
ENDBRANCH  11  12
ENDBRANCH  10  11
ENDBRANCH   8  10
ENDBRANCH   4   8
ENDBRANCH   3   6
ENDBRANCH   2   3
ENDBRANCH   1   2
BRANCH   1  16
ATOM     16  C   UNL     1       8.166   9.478  17.780  0.00  0.00    +0.000 C 
BRANCH  16  17
ATOM     17  N   UNL     1       9.044   9.738  18.921  0.00  0.00    +0.000 N 
ATOM     18  H   UNL     1       9.673   8.955  19.078  0.00  0.00    +0.000 HD
BRANCH  17  19
ATOM     19  C   UNL     1       9.761  10.968  18.885  0.00  0.00    +0.000 A 
ATOM     20  C   UNL     1      10.447  11.359  17.726  0.00  0.00    +0.000 A 
ATOM     21  C   UNL     1      11.080  12.584  17.694  0.00  0.00    +0.000 A 
ATOM     22  N   UNL     1      11.051  13.467  18.704  0.00  0.00    +0.000 NA
ATOM     23  C   UNL     1      10.358  13.138  19.804  0.00  0.00    +0.000 A 
ATOM     24  C   UNL     1      10.310  14.079  20.817  0.00  0.00    +0.000 A 
ATOM     25  C   UNL     1       9.621  13.836  22.001  0.00  0.00    +0.000 A 
ATOM     26 CL   UNL     1       9.581  15.035  23.234  0.00  0.00    +0.000 Cl
ATOM     27  C   UNL     1       8.962  12.631  22.190  0.00  0.00    +0.000 A 
ATOM     28  C   UNL     1       8.987  11.673  21.176  0.00  0.00    +0.000 A 
ATOM     29  C   UNL     1       9.680  11.901  19.959  0.00  0.00    +0.000 A 
ENDBRANCH  17  19
ENDBRANCH  16  17
ENDBRANCH   1  16
TORSDOF 10
ENDMDL
MODEL 7
REMARK VINA RESULT:      -6.9      4.783      7.891
REMARK  Name = 
REMARK  14 active torsions:
REMARK  status: ('A' for Active; 'I' for Inactive)
REMARK    1  A    between atoms: C_1  and  C_2
REMARK    2  A    between atoms: C_2  and  C_3
REMARK    3  A    between atoms: C_2  and  C_23
REMARK    4  A    between atoms: C_3  and  C_4
REMARK    5  A    between atoms: N_6  and  C_7
REMARK    6  A    between atoms: C_7  and  C_8
REMARK    7  A    between atoms: C_8  and  C_9
REMARK    8  A    between atoms: C_9  and  C_10
REMARK    9  A    between atoms: C_10  and  N_11
REMARK   10  A    between atoms: N_11  and  C_12
REMARK   11  A    between atoms: C_23  and  C_24
REMARK   12  A    between atoms: C_24  and  C_25
REMARK   13  A    between atoms: C_24  and  C_26
REMARK   14  A    between atoms: C_24  and  C_27
REMARK                            x       y       z     vdW  Elec       q    Type
REMARK                         _______ _______ _______ _____ _____    ______ ____
ROOT
ATOM      1  C   UNL     1       2.359   4.265  17.933  0.00  0.00    +0.000 C 
ENDROOT
BRANCH   1   2
ATOM      2  C   UNL     1       2.546   4.224  19.454  0.00  0.00    +0.000 C 
BRANCH   2   3
ATOM      3  C   UNL     1       2.849   5.607  20.035  0.00  0.00    +0.000 C 
BRANCH   3   6
ATOM      4  C   UNL     1       2.010   7.839  19.446  0.00  0.00    +0.000 C 
ATOM      5  O   UNL     1       1.567   8.046  20.573  0.00  0.00    +0.000 OA
ATOM      6  N   UNL     1       2.625   6.663  19.078  0.00  0.00    +0.000 N 
ATOM      7  H   UNL     1       2.999   6.565  18.144  0.00  0.00    +0.000 HD
BRANCH   4   8
ATOM      8  C   UNL     1       1.907   8.854  18.326  0.00  0.00    +0.000 C 
BRANCH   8  10
ATOM      9  C   UNL     1      -0.309  10.000  18.175  0.00  0.00    +0.000 C 
ATOM     10  C   UNL     1       1.121  10.127  18.707  0.00  0.00    +0.000 C 
BRANCH  10  11
ATOM     11  C   UNL     1       1.863  11.416  18.257  0.00  0.00    +0.000 C 
BRANCH  11  12
ATOM     12  C   UNL     1       1.654  12.744  19.053  0.00  0.00    +0.000 C 
ATOM     13  C   UNL     1       0.442  13.523  18.519  0.00  0.00    +0.000 C 
ATOM     14  C   UNL     1       1.382  12.385  20.534  0.00  0.00    +0.000 C 
ATOM     15  C   UNL     1       2.893  13.651  19.034  0.00  0.00    +0.000 C 
ENDBRANCH  11  12
ENDBRANCH  10  11
ENDBRANCH   8  10
ENDBRANCH   4   8
ENDBRANCH   3   6
ENDBRANCH   2   3
ENDBRANCH   1   2
BRANCH   1  16
ATOM     16  C   UNL     1       2.904   2.999  17.267  0.00  0.00    +0.000 C 
BRANCH  16  17
ATOM     17  N   UNL     1       4.354   2.903  17.441  0.00  0.00    +0.000 N 
ATOM     18  H   UNL     1       4.667   1.942  17.334  0.00  0.00    +0.000 HD
BRANCH  17  19
ATOM     19  C   UNL     1       5.135   3.785  16.641  0.00  0.00    +0.000 A 
ATOM     20  C   UNL     1       4.994   3.794  15.245  0.00  0.00    +0.000 A 
ATOM     21  C   UNL     1       5.715   4.703  14.497  0.00  0.00    +0.000 A 
ATOM     22  N   UNL     1       6.530   5.626  15.027  0.00  0.00    +0.000 NA
ATOM     23  C   UNL     1       6.644   5.671  16.362  0.00  0.00    +0.000 A 
ATOM     24  C   UNL     1       7.461   6.656  16.888  0.00  0.00    +0.000 A 
ATOM     25  C   UNL     1       7.648   6.786  18.261  0.00  0.00    +0.000 A 
ATOM     26 CL   UNL     1       8.669   8.029  18.874  0.00  0.00    +0.000 Cl
ATOM     27  C   UNL     1       7.013   5.920  19.138  0.00  0.00    +0.000 A 
ATOM     28  C   UNL     1       6.174   4.928  18.630  0.00  0.00    +0.000 A 
ATOM     29  C   UNL     1       5.964   4.779  17.234  0.00  0.00    +0.000 A 
ENDBRANCH  17  19
ENDBRANCH  16  17
ENDBRANCH   1  16
TORSDOF 10
ENDMDL
MODEL 8
REMARK VINA RESULT:      -6.8      5.968      9.214
REMARK  Name = 
REMARK  14 active torsions:
REMARK  status: ('A' for Active; 'I' for Inactive)
REMARK    1  A    between atoms: C_1  and  C_2
REMARK    2  A    between atoms: C_2  and  C_3
REMARK    3  A    between atoms: C_2  and  C_23
REMARK    4  A    between atoms: C_3  and  C_4
REMARK    5  A    between atoms: N_6  and  C_7
REMARK    6  A    between atoms: C_7  and  C_8
REMARK    7  A    between atoms: C_8  and  C_9
REMARK    8  A    between atoms: C_9  and  C_10
REMARK    9  A    between atoms: C_10  and  N_11
REMARK   10  A    between atoms: N_11  and  C_12
REMARK   11  A    between atoms: C_23  and  C_24
REMARK   12  A    between atoms: C_24  and  C_25
REMARK   13  A    between atoms: C_24  and  C_26
REMARK   14  A    between atoms: C_24  and  C_27
REMARK                            x       y       z     vdW  Elec       q    Type
REMARK                         _______ _______ _______ _____ _____    ______ ____
ROOT
ATOM      1  C   UNL     1       2.448   6.737  19.594  0.00  0.00    +0.000 C 
ENDROOT
BRANCH   1   2
ATOM      2  C   UNL     1       2.486   7.144  18.116  0.00  0.00    +0.000 C 
BRANCH   2   3
ATOM      3  C   UNL     1       2.450   8.662  17.936  0.00  0.00    +0.000 C 
BRANCH   3   6
ATOM      4  C   UNL     1       0.478   9.908  18.705  0.00  0.00    +0.000 C 
ATOM      5  O   UNL     1       0.974  10.156  19.801  0.00  0.00    +0.000 OA
ATOM      6  N   UNL     1       1.110   9.158  17.738  0.00  0.00    +0.000 N 
ATOM      7  H   UNL     1       0.664   9.017  16.842  0.00  0.00    +0.000 HD
BRANCH   4   8
ATOM      8  C   UNL     1      -0.902  10.388  18.304  0.00  0.00    +0.000 C 
BRANCH   8  10
ATOM      9  C   UNL     1      -2.818  11.864  18.932  0.00  0.00    +0.000 C 
ATOM     10  C   UNL     1      -1.292  11.751  18.916  0.00  0.00    +0.000 C 
BRANCH  10  11
ATOM     11  C   UNL     1      -0.567  12.928  18.205  0.00  0.00    +0.000 C 
BRANCH  11  12
ATOM     12  C   UNL     1       0.290  13.926  19.047  0.00  0.00    +0.000 C 
ATOM     13  C   UNL     1       0.282  13.542  20.535  0.00  0.00    +0.000 C 
ATOM     14  C   UNL     1       1.751  13.862  18.540  0.00  0.00    +0.000 C 
ATOM     15  C   UNL     1      -0.172  15.384  18.894  0.00  0.00    +0.000 C 
ENDBRANCH  11  12
ENDBRANCH  10  11
ENDBRANCH   8  10
ENDBRANCH   4   8
ENDBRANCH   3   6
ENDBRANCH   2   3
ENDBRANCH   1   2
BRANCH   1  16
ATOM     16  C   UNL     1       3.245   5.454  19.842  0.00  0.00    +0.000 C 
BRANCH  16  17
ATOM     17  N   UNL     1       3.670   4.852  18.579  0.00  0.00    +0.000 N 
ATOM     18  H   UNL     1       3.049   5.126  17.822  0.00  0.00    +0.000 HD
BRANCH  17  19
ATOM     19  C   UNL     1       5.032   5.058  18.219  0.00  0.00    +0.000 A 
ATOM     20  C   UNL     1       5.996   5.324  19.202  0.00  0.00    +0.000 A 
ATOM     21  C   UNL     1       7.320   5.456  18.836  0.00  0.00    +0.000 A 
ATOM     22  N   UNL     1       7.765   5.305  17.580  0.00  0.00    +0.000 NA
ATOM     23  C   UNL     1       6.870   5.001  16.629  0.00  0.00    +0.000 A 
ATOM     24  C   UNL     1       7.358   4.812  15.348  0.00  0.00    +0.000 A 
ATOM     25  C   UNL     1       6.513   4.496  14.289  0.00  0.00    +0.000 A 
ATOM     26 CL   UNL     1       7.161   4.265  12.712  0.00  0.00    +0.000 Cl
ATOM     27  C   UNL     1       5.149   4.364  14.500  0.00  0.00    +0.000 A 
ATOM     28  C   UNL     1       4.637   4.536  15.786  0.00  0.00    +0.000 A 
ATOM     29  C   UNL     1       5.481   4.855  16.882  0.00  0.00    +0.000 A 
ENDBRANCH  17  19
ENDBRANCH  16  17
ENDBRANCH   1  16
TORSDOF 10
ENDMDL
MODEL 9
REMARK VINA RESULT:      -6.8      2.152      3.181
REMARK  Name = 
REMARK  14 active torsions:
REMARK  status: ('A' for Active; 'I' for Inactive)
REMARK    1  A    between atoms: C_1  and  C_2
REMARK    2  A    between atoms: C_2  and  C_3
REMARK    3  A    between atoms: C_2  and  C_23
REMARK    4  A    between atoms: C_3  and  C_4
REMARK    5  A    between atoms: N_6  and  C_7
REMARK    6  A    between atoms: C_7  and  C_8
REMARK    7  A    between atoms: C_8  and  C_9
REMARK    8  A    between atoms: C_9  and  C_10
REMARK    9  A    between atoms: C_10  and  N_11
REMARK   10  A    between atoms: N_11  and  C_12
REMARK   11  A    between atoms: C_23  and  C_24
REMARK   12  A    between atoms: C_24  and  C_25
REMARK   13  A    between atoms: C_24  and  C_26
REMARK   14  A    between atoms: C_24  and  C_27
REMARK                            x       y       z     vdW  Elec       q    Type
REMARK                         _______ _______ _______ _____ _____    ______ ____
ROOT
ATOM      1  C   UNL     1       8.212   8.436  17.696  0.00  0.00    +0.000 C 
ENDROOT
BRANCH   1   2
ATOM      2  C   UNL     1       7.839   7.059  18.258  0.00  0.00    +0.000 C 
BRANCH   2   3
ATOM      3  C   UNL     1       6.911   6.285  17.320  0.00  0.00    +0.000 C 
BRANCH   3   6
ATOM      4  C   UNL     1       5.274   5.273  18.846  0.00  0.00    +0.000 C 
ATOM      5  O   UNL     1       6.090   4.482  19.311  0.00  0.00    +0.000 OA
ATOM      6  N   UNL     1       5.572   6.172  17.847  0.00  0.00    +0.000 N 
ATOM      7  H   UNL     1       4.865   6.820  17.529  0.00  0.00    +0.000 HD
BRANCH   4   8
ATOM      8  C   UNL     1       3.833   5.329  19.311  0.00  0.00    +0.000 C 
BRANCH   8  10
ATOM      9  C   UNL     1       2.288   7.004  18.283  0.00  0.00    +0.000 C 
ATOM     10  C   UNL     1       2.818   5.572  18.172  0.00  0.00    +0.000 C 
BRANCH  10  11
ATOM     11  C   UNL     1       1.714   4.478  18.144  0.00  0.00    +0.000 C 
BRANCH  11  12
ATOM     12  C   UNL     1       1.950   3.126  18.890  0.00  0.00    +0.000 C 
ATOM     13  C   UNL     1       2.220   3.360  20.384  0.00  0.00    +0.000 C 
ATOM     14  C   UNL     1       0.669   2.268  18.759  0.00  0.00    +0.000 C 
ATOM     15  C   UNL     1       3.101   2.306  18.285  0.00  0.00    +0.000 C 
ENDBRANCH  11  12
ENDBRANCH  10  11
ENDBRANCH   8  10
ENDBRANCH   4   8
ENDBRANCH   3   6
ENDBRANCH   2   3
ENDBRANCH   1   2
BRANCH   1  16
ATOM     16  C   UNL     1       8.832   9.331  18.771  0.00  0.00    +0.000 C 
BRANCH  16  17
ATOM     17  N   UNL     1       9.283  10.598  18.196  0.00  0.00    +0.000 N 
ATOM     18  H   UNL     1       8.625  10.933  17.498  0.00  0.00    +0.000 HD
BRANCH  17  19
ATOM     19  C   UNL     1       9.601  11.625  19.130  0.00  0.00    +0.000 A 
ATOM     20  C   UNL     1       9.413  11.422  20.505  0.00  0.00    +0.000 A 
ATOM     21  C   UNL     1       9.789  12.408  21.394  0.00  0.00    +0.000 A 
ATOM     22  N   UNL     1      10.372  13.559  21.029  0.00  0.00    +0.000 NA
ATOM     23  C   UNL     1      10.609  13.756  19.724  0.00  0.00    +0.000 A 
ATOM     24  C   UNL     1      11.246  14.934  19.375  0.00  0.00    +0.000 A 
ATOM     25  C   UNL     1      11.535  15.237  18.048  0.00  0.00    +0.000 A 
ATOM     26 CL   UNL     1      12.333  16.710  17.657  0.00  0.00    +0.000 Cl
ATOM     27  C   UNL     1      11.185  14.353  17.039  0.00  0.00    +0.000 A 
ATOM     28  C   UNL     1      10.555  13.154  17.369  0.00  0.00    +0.000 A 
ATOM     29  C   UNL     1      10.253  12.822  18.716  0.00  0.00    +0.000 A 
ENDBRANCH  17  19
ENDBRANCH  16  17
ENDBRANCH   1  16
TORSDOF 10
ENDMDL
