MODEL 1
REMARK VINA RESULT:      -9.0      0.000      0.000
REMARK  Name = 
REMARK  7 active torsions:
REMARK  status: ('A' for Active; 'I' for Inactive)
REMARK    1  A    between atoms: C_1  and  O_2
REMARK    2  A    between atoms: O_2  and  C_3
REMARK    3  A    between atoms: C_6  and  C_7
REMARK    4  A    between atoms: C_12  and  C_13
REMARK    5  A    between atoms: C_19  and  C_20
REMARK    6  A    between atoms: C_20  and  C_22
REMARK    7  A    between atoms: C_25  and  C_26
REMARK                            x       y       z     vdW  Elec       q    Type
REMARK                         _______ _______ _______ _____ _____    ______ ____
ROOT
ATOM      1  C   UNL     1       1.240   9.632  18.923  0.00  0.00    +0.000 C 
ATOM      2  O   UNL     1       0.693   8.973  19.808  0.00  0.00    +0.000 OA
ATOM      3  N   UNL     1       2.270   9.182  18.122  0.00  0.00    +0.000 N 
ATOM      4  C   UNL     1       2.711   7.886  18.240  0.00  0.00    +0.000 A 
ATOM      5  N   UNL     1       2.166   6.911  18.905  0.00  0.00    +0.000 NA
ATOM      6  C   UNL     1       2.979   5.786  18.900  0.00  0.00    +0.000 A 
ATOM      7  C   UNL     1       4.178   5.947  18.214  0.00  0.00    +0.000 A 
ATOM      8  S   UNL     1       4.144   7.500  17.420  0.00  0.00    +0.000 S 
ATOM      9  H   UNL     1       2.797   9.788  17.516  0.00  0.00    +0.000 HD
ENDROOT
BRANCH   1  13
ATOM     10  C   UNL     1       0.070  13.763  18.485  0.00  0.00    +0.000 A 
ATOM     11  C   UNL     1       1.406  13.381  18.538  0.00  0.00    +0.000 A 
ATOM     12  C   UNL     1       1.750  12.035  18.652  0.00  0.00    +0.000 A 
ATOM     13  C   UNL     1       0.763  11.041  18.741  0.00  0.00    +0.000 A 
ATOM     14  C   UNL     1      -0.582  11.426  18.699  0.00  0.00    +0.000 A 
ATOM     15  C   UNL     1      -0.923  12.785  18.569  0.00  0.00    +0.000 A 
BRANCH  10  17
ATOM     16  C   UNL     1       0.605  15.907  19.331  0.00  0.00    +0.000 C 
ATOM     17  O   UNL     1      -0.139  15.110  18.419  0.00  0.00    +0.000 OA
ENDBRANCH  10  17
ENDBRANCH   1  13
BRANCH   6  18
ATOM     18  C   UNL     1       2.503   4.620  19.643  0.00  0.00    +0.000 A 
ATOM     19  C   UNL     1       1.835   3.604  18.933  0.00  0.00    +0.000 A 
ATOM     20  C   UNL     1       1.260   2.518  19.596  0.00  0.00    +0.000 A 
ATOM     21  C   UNL     1       1.347   2.430  20.981  0.00  0.00    +0.000 A 
ATOM     22  C   UNL     1       2.014   3.422  21.699  0.00  0.00    +0.000 A 
ATOM     23  C   UNL     1       2.582   4.515  21.034  0.00  0.00    +0.000 A 
ENDBRANCH   6  18
BRANCH   7  24
ATOM     24  C   UNL     1       5.284   5.020  18.008  0.00  0.00    +0.000 C 
ATOM     25  O   UNL     1       5.869   4.459  18.933  0.00  0.00    +0.000 OA
BRANCH  24  26
ATOM     26  C   UNL     1       5.762   4.683  16.628  0.00  0.00    +0.000 A 
ATOM     27  C   UNL     1       4.881   4.020  15.764  0.00  0.00    +0.000 A 
ATOM     28  C   UNL     1       5.227   3.806  14.427  0.00  0.00    +0.000 A 
ATOM     29  C   UNL     1       6.463   4.245  13.939  0.00  0.00    +0.000 A 
ATOM     30  C   UNL     1       6.786   4.163  12.477  0.00  0.00    +0.000 C 
ATOM     31  C   UNL     1       7.380   4.823  14.826  0.00  0.00    +0.000 A 
ATOM     32  C   UNL     1       7.042   5.016  16.169  0.00  0.00    +0.000 A 
ENDBRANCH  24  26
ENDBRANCH   7  24
TORSDOF 5
ENDMDL
MODEL 2
REMARK VINA RESULT:      -8.7      0.273      1.248
REMARK  Name = 
REMARK  7 active torsions:
REMARK  status: ('A' for Active; 'I' for Inactive)
REMARK    1  A    between atoms: C_1  and  O_2
REMARK    2  A    between atoms: O_2  and  C_3
REMARK    3  A    between atoms: C_6  and  C_7
REMARK    4  A    between atoms: C_12  and  C_13
REMARK    5  A    between atoms: C_19  and  C_20
REMARK    6  A    between atoms: C_20  and  C_22
REMARK    7  A    between atoms: C_25  and  C_26
REMARK                            x       y       z     vdW  Elec       q    Type
REMARK                         _______ _______ _______ _____ _____    ______ ____
ROOT
ATOM      1  C   UNL     1       1.425   9.738  18.998  0.00  0.00    +0.000 C 
ATOM      2  O   UNL     1       0.802   9.093  19.842  0.00  0.00    +0.000 OA
ATOM      3  N   UNL     1       2.435   9.235  18.203  0.00  0.00    +0.000 N 
ATOM      4  C   UNL     1       2.764   7.903  18.278  0.00  0.00    +0.000 A 
ATOM      5  N   UNL     1       2.123   6.952  18.888  0.00  0.00    +0.000 NA
ATOM      6  C   UNL     1       2.840   5.763  18.856  0.00  0.00    +0.000 A 
ATOM      7  C   UNL     1       4.066   5.851  18.205  0.00  0.00    +0.000 A 
ATOM      8  S   UNL     1       4.181   7.431  17.475  0.00  0.00    +0.000 S 
ATOM      9  H   UNL     1       3.026   9.819  17.635  0.00  0.00    +0.000 HD
ENDROOT
BRANCH   1  13
ATOM     10  C   UNL     1       0.187  13.850  18.566  0.00  0.00    +0.000 A 
ATOM     11  C   UNL     1      -0.718  12.841  18.878  0.00  0.00    +0.000 A 
ATOM     12  C   UNL     1      -0.280  11.527  19.038  0.00  0.00    +0.000 A 
ATOM     13  C   UNL     1       1.071  11.188  18.864  0.00  0.00    +0.000 A 
ATOM     14  C   UNL     1       1.980  12.202  18.539  0.00  0.00    +0.000 A 
ATOM     15  C   UNL     1       1.535  13.529  18.394  0.00  0.00    +0.000 A 
BRANCH  10  17
ATOM     16  C   UNL     1       0.448  16.195  18.731  0.00  0.00    +0.000 C 
ATOM     17  O   UNL     1      -0.369  15.084  18.391  0.00  0.00    +0.000 OA
ENDBRANCH  10  17
ENDBRANCH   1  13
BRANCH   6  18
ATOM     18  C   UNL     1       2.250   4.613  19.539  0.00  0.00    +0.000 A 
ATOM     19  C   UNL     1       2.363   4.540  20.940  0.00  0.00    +0.000 A 
ATOM     20  C   UNL     1       1.920   3.418  21.642  0.00  0.00    +0.000 A 
ATOM     21  C   UNL     1       1.353   2.351  20.953  0.00  0.00    +0.000 A 
ATOM     22  C   UNL     1       1.224   2.412  19.566  0.00  0.00    +0.000 A 
ATOM     23  C   UNL     1       1.677   3.533  18.862  0.00  0.00    +0.000 A 
ENDBRANCH   6  18
BRANCH   7  24
ATOM     24  C   UNL     1       5.096   4.843  17.986  0.00  0.00    +0.000 C 
ATOM     25  O   UNL     1       5.523   4.116  18.882  0.00  0.00    +0.000 OA
BRANCH  24  26
ATOM     26  C   UNL     1       5.687   4.626  16.626  0.00  0.00    +0.000 A 
ATOM     27  C   UNL     1       4.863   4.103  15.620  0.00  0.00    +0.000 A 
ATOM     28  C   UNL     1       5.325   4.011  14.304  0.00  0.00    +0.000 A 
ATOM     29  C   UNL     1       6.618   4.431  13.979  0.00  0.00    +0.000 A 
ATOM     30  C   UNL     1       7.074   4.484  12.551  0.00  0.00    +0.000 C 
ATOM     31  C   UNL     1       7.472   4.865  15.001  0.00  0.00    +0.000 A 
ATOM     32  C   UNL     1       7.018   4.936  16.321  0.00  0.00    +0.000 A 
ENDBRANCH  24  26
ENDBRANCH   7  24
TORSDOF 5
ENDMDL
MODEL 3
REMARK VINA RESULT:      -8.6      0.412      1.288
REMARK  Name = 
REMARK  7 active torsions:
REMARK  status: ('A' for Active; 'I' for Inactive)
REMARK    1  A    between atoms: C_1  and  O_2
REMARK    2  A    between atoms: O_2  and  C_3
REMARK    3  A    between atoms: C_6  and  C_7
REMARK    4  A    between atoms: C_12  and  C_13
REMARK    5  A    between atoms: C_19  and  C_20
REMARK    6  A    between atoms: C_20  and  C_22
REMARK    7  A    between atoms: C_25  and  C_26
REMARK                            x       y       z     vdW  Elec       q    Type
REMARK                         _______ _______ _______ _____ _____    ______ ____
ROOT
ATOM      1  C   UNL     1       1.246   9.844  18.912  0.00  0.00    +0.000 C 
ATOM      2  O   UNL     1       0.721   9.185  19.810  0.00  0.00    +0.000 OA
ATOM      3  N   UNL     1       2.200   9.371  18.033  0.00  0.00    +0.000 N 
ATOM      4  C   UNL     1       2.580   8.051  18.084  0.00  0.00    +0.000 A 
ATOM      5  N   UNL     1       2.028   7.083  18.752  0.00  0.00    +0.000 NA
ATOM      6  C   UNL     1       2.779   5.919  18.661  0.00  0.00    +0.000 A 
ATOM      7  C   UNL     1       3.940   6.044  17.905  0.00  0.00    +0.000 A 
ATOM      8  S   UNL     1       3.937   7.623  17.163  0.00  0.00    +0.000 S 
ATOM      9  H   UNL     1       2.718   9.971  17.414  0.00  0.00    +0.000 HD
ENDROOT
BRANCH   1  13
ATOM     10  C   UNL     1       0.268  14.041  18.669  0.00  0.00    +0.000 A 
ATOM     11  C   UNL     1       1.581  13.589  18.591  0.00  0.00    +0.000 A 
ATOM     12  C   UNL     1       1.860  12.224  18.645  0.00  0.00    +0.000 A 
ATOM     13  C   UNL     1       0.832  11.280  18.804  0.00  0.00    +0.000 A 
ATOM     14  C   UNL     1      -0.488  11.737  18.892  0.00  0.00    +0.000 A 
ATOM     15  C   UNL     1      -0.766  13.114  18.823  0.00  0.00    +0.000 A 
BRANCH  10  17
ATOM     16  C   UNL     1       1.327  16.155  18.738  0.00  0.00    +0.000 C 
ATOM     17  O   UNL     1       0.127  15.398  18.650  0.00  0.00    +0.000 OA
ENDBRANCH  10  17
ENDBRANCH   1  13
BRANCH   6  18
ATOM     18  C   UNL     1       2.291   4.754  19.397  0.00  0.00    +0.000 A 
ATOM     19  C   UNL     1       2.407   4.755  20.799  0.00  0.00    +0.000 A 
ATOM     20  C   UNL     1       2.063   3.632  21.553  0.00  0.00    +0.000 A 
ATOM     21  C   UNL     1       1.594   2.489  20.914  0.00  0.00    +0.000 A 
ATOM     22  C   UNL     1       1.462   2.475  19.526  0.00  0.00    +0.000 A 
ATOM     23  C   UNL     1       1.816   3.598  18.771  0.00  0.00    +0.000 A 
ENDBRANCH   6  18
BRANCH   7  24
ATOM     24  C   UNL     1       4.982   5.071  17.601  0.00  0.00    +0.000 C 
ATOM     25  O   UNL     1       5.510   4.365  18.458  0.00  0.00    +0.000 OA
BRANCH  24  26
ATOM     26  C   UNL     1       5.459   4.865  16.195  0.00  0.00    +0.000 A 
ATOM     27  C   UNL     1       6.778   5.218  15.882  0.00  0.00    +0.000 A 
ATOM     28  C   UNL     1       7.313   4.918  14.627  0.00  0.00    +0.000 A 
ATOM     29  C   UNL     1       6.532   4.269  13.664  0.00  0.00    +0.000 A 
ATOM     30  C   UNL     1       7.135   3.803  12.372  0.00  0.00    +0.000 C 
ATOM     31  C   UNL     1       5.187   4.001  13.945  0.00  0.00    +0.000 A 
ATOM     32  C   UNL     1       4.645   4.322  15.193  0.00  0.00    +0.000 A 
ENDBRANCH  24  26
ENDBRANCH   7  24
TORSDOF 5
ENDMDL
MODEL 4
REMARK VINA RESULT:      -8.6      0.629      1.386
REMARK  Name = 
REMARK  7 active torsions:
REMARK  status: ('A' for Active; 'I' for Inactive)
REMARK    1  A    between atoms: C_1  and  O_2
REMARK    2  A    between atoms: O_2  and  C_3
REMARK    3  A    between atoms: C_6  and  C_7
REMARK    4  A    between atoms: C_12  and  C_13
REMARK    5  A    between atoms: C_19  and  C_20
REMARK    6  A    between atoms: C_20  and  C_22
REMARK    7  A    between atoms: C_25  and  C_26
REMARK                            x       y       z     vdW  Elec       q    Type
REMARK                         _______ _______ _______ _____ _____    ______ ____
ROOT
ATOM      1  C   UNL     1       1.411   9.900  18.798  0.00  0.00    +0.000 C 
ATOM      2  O   UNL     1       0.787   9.194  19.592  0.00  0.00    +0.000 OA
ATOM      3  N   UNL     1       2.417   9.457  17.964  0.00  0.00    +0.000 N 
ATOM      4  C   UNL     1       2.740   8.121  17.934  0.00  0.00    +0.000 A 
ATOM      5  N   UNL     1       2.097   7.128  18.470  0.00  0.00    +0.000 NA
ATOM      6  C   UNL     1       2.809   5.943  18.343  0.00  0.00    +0.000 A 
ATOM      7  C   UNL     1       4.034   6.076  17.698  0.00  0.00    +0.000 A 
ATOM      8  S   UNL     1       4.154   7.708  17.093  0.00  0.00    +0.000 S 
ATOM      9  H   UNL     1       3.009  10.080  17.442  0.00  0.00    +0.000 HD
ENDROOT
BRANCH   1  13
ATOM     10  C   UNL     1       0.195  14.040  18.666  0.00  0.00    +0.000 A 
ATOM     11  C   UNL     1      -0.730  13.007  18.777  0.00  0.00    +0.000 A 
ATOM     12  C   UNL     1      -0.302  11.682  18.845  0.00  0.00    +0.000 A 
ATOM     13  C   UNL     1       1.063  11.358  18.778  0.00  0.00    +0.000 A 
ATOM     14  C   UNL     1       1.993  12.397  18.657  0.00  0.00    +0.000 A 
ATOM     15  C   UNL     1       1.556  13.733  18.604  0.00  0.00    +0.000 A 
BRANCH  10  17
ATOM     16  C   UNL     1       0.534  16.378  18.788  0.00  0.00    +0.000 C 
ATOM     17  O   UNL     1      -0.349  15.287  18.563  0.00  0.00    +0.000 OA
ENDBRANCH  10  17
ENDBRANCH   1  13
BRANCH   6  18
ATOM     18  C   UNL     1       2.215   4.746  18.936  0.00  0.00    +0.000 A 
ATOM     19  C   UNL     1       1.859   3.685  18.082  0.00  0.00    +0.000 A 
ATOM     20  C   UNL     1       1.189   2.561  18.567  0.00  0.00    +0.000 A 
ATOM     21  C   UNL     1       0.868   2.478  19.918  0.00  0.00    +0.000 A 
ATOM     22  C   UNL     1       1.223   3.515  20.780  0.00  0.00    +0.000 A 
ATOM     23  C   UNL     1       1.886   4.645  20.291  0.00  0.00    +0.000 A 
ENDBRANCH   6  18
BRANCH   7  24
ATOM     24  C   UNL     1       5.059   5.085  17.399  0.00  0.00    +0.000 C 
ATOM     25  O   UNL     1       5.608   4.406  18.266  0.00  0.00    +0.000 OA
BRANCH  24  26
ATOM     26  C   UNL     1       5.492   4.823  15.988  0.00  0.00    +0.000 A 
ATOM     27  C   UNL     1       6.781   5.216  15.605  0.00  0.00    +0.000 A 
ATOM     28  C   UNL     1       7.282   4.872  14.347  0.00  0.00    +0.000 A 
ATOM     29  C   UNL     1       6.497   4.139  13.451  0.00  0.00    +0.000 A 
ATOM     30  C   UNL     1       7.071   3.630  12.162  0.00  0.00    +0.000 C 
ATOM     31  C   UNL     1       5.176   3.829  13.798  0.00  0.00    +0.000 A 
ATOM     32  C   UNL     1       4.667   4.192  15.049  0.00  0.00    +0.000 A 
ENDBRANCH  24  26
ENDBRANCH   7  24
TORSDOF 5
ENDMDL
MODEL 5
REMARK VINA RESULT:      -8.3      0.595      1.581
REMARK  Name = 
REMARK  7 active torsions:
REMARK  status: ('A' for Active; 'I' for Inactive)
REMARK    1  A    between atoms: C_1  and  O_2
REMARK    2  A    between atoms: O_2  and  C_3
REMARK    3  A    between atoms: C_6  and  C_7
REMARK    4  A    between atoms: C_12  and  C_13
REMARK    5  A    between atoms: C_19  and  C_20
REMARK    6  A    between atoms: C_20  and  C_22
REMARK    7  A    between atoms: C_25  and  C_26
REMARK                            x       y       z     vdW  Elec       q    Type
REMARK                         _______ _______ _______ _____ _____    ______ ____
ROOT
ATOM      1  C   UNL     1       1.427   9.848  19.106  0.00  0.00    +0.000 C 
ATOM      2  O   UNL     1       0.856   9.180  19.968  0.00  0.00    +0.000 OA
ATOM      3  N   UNL     1       2.365   9.362  18.217  0.00  0.00    +0.000 N 
ATOM      4  C   UNL     1       2.672   8.022  18.214  0.00  0.00    +0.000 A 
ATOM      5  N   UNL     1       2.060   7.058  18.833  0.00  0.00    +0.000 NA
ATOM      6  C   UNL     1       2.748   5.860  18.699  0.00  0.00    +0.000 A 
ATOM      7  C   UNL     1       3.924   5.953  17.962  0.00  0.00    +0.000 A 
ATOM      8  S   UNL     1       4.016   7.560  17.290  0.00  0.00    +0.000 S 
ATOM      9  H   UNL     1       2.923   9.958  17.631  0.00  0.00    +0.000 HD
ENDROOT
BRANCH   1  13
ATOM     10  C   UNL     1       0.241  13.997  18.992  0.00  0.00    +0.000 A 
ATOM     11  C   UNL     1      -0.546  13.026  19.604  0.00  0.00    +0.000 A 
ATOM     12  C   UNL     1      -0.120  11.699  19.646  0.00  0.00    +0.000 A 
ATOM     13  C   UNL     1       1.093  11.308  19.056  0.00  0.00    +0.000 A 
ATOM     14  C   UNL     1       1.879  12.284  18.433  0.00  0.00    +0.000 A 
ATOM     15  C   UNL     1       1.452  13.624  18.405  0.00  0.00    +0.000 A 
BRANCH  10  17
ATOM     16  C   UNL     1      -1.168  15.572  20.055  0.00  0.00    +0.000 C 
ATOM     17  O   UNL     1      -0.304  15.248  18.975  0.00  0.00    +0.000 OA
ENDBRANCH  10  17
ENDBRANCH   1  13
BRANCH   6  18
ATOM     18  C   UNL     1       2.188   4.692  19.378  0.00  0.00    +0.000 A 
ATOM     19  C   UNL     1       2.377   4.575  20.768  0.00  0.00    +0.000 A 
ATOM     20  C   UNL     1       1.965   3.434  21.459  0.00  0.00    +0.000 A 
ATOM     21  C   UNL     1       1.353   2.392  20.769  0.00  0.00    +0.000 A 
ATOM     22  C   UNL     1       1.148   2.497  19.394  0.00  0.00    +0.000 A 
ATOM     23  C   UNL     1       1.570   3.637  18.701  0.00  0.00    +0.000 A 
ENDBRANCH   6  18
BRANCH   7  24
ATOM     24  C   UNL     1       4.915   4.939  17.627  0.00  0.00    +0.000 C 
ATOM     25  O   UNL     1       5.392   4.168  18.458  0.00  0.00    +0.000 OA
BRANCH  24  26
ATOM     26  C   UNL     1       5.399   4.768  16.219  0.00  0.00    +0.000 A 
ATOM     27  C   UNL     1       6.726   5.108  15.926  0.00  0.00    +0.000 A 
ATOM     28  C   UNL     1       7.265   4.838  14.666  0.00  0.00    +0.000 A 
ATOM     29  C   UNL     1       6.481   4.233  13.678  0.00  0.00    +0.000 A 
ATOM     30  C   UNL     1       7.085   3.796  12.376  0.00  0.00    +0.000 C 
ATOM     31  C   UNL     1       5.129   3.979  13.941  0.00  0.00    +0.000 A 
ATOM     32  C   UNL     1       4.584   4.269  15.195  0.00  0.00    +0.000 A 
ENDBRANCH  24  26
ENDBRANCH   7  24
TORSDOF 5
ENDMDL
MODEL 6
REMARK VINA RESULT:      -8.2      2.695     10.259
REMARK  Name = 
REMARK  7 active torsions:
REMARK  status: ('A' for Active; 'I' for Inactive)
REMARK    1  A    between atoms: C_1  and  O_2
REMARK    2  A    between atoms: O_2  and  C_3
REMARK    3  A    between atoms: C_6  and  C_7
REMARK    4  A    between atoms: C_12  and  C_13
REMARK    5  A    between atoms: C_19  and  C_20
REMARK    6  A    between atoms: C_20  and  C_22
REMARK    7  A    between atoms: C_25  and  C_26
REMARK                            x       y       z     vdW  Elec       q    Type
REMARK                         _______ _______ _______ _____ _____    ______ ____
ROOT
ATOM      1  C   UNL     1       2.948   7.813  18.111  0.00  0.00    +0.000 C 
ATOM      2  O   UNL     1       3.233   8.886  17.579  0.00  0.00    +0.000 OA
ATOM      3  N   UNL     1       2.092   7.660  19.183  0.00  0.00    +0.000 N 
ATOM      4  C   UNL     1       1.432   8.754  19.690  0.00  0.00    +0.000 A 
ATOM      5  N   UNL     1       1.350   9.948  19.182  0.00  0.00    +0.000 NA
ATOM      6  C   UNL     1       0.713  10.820  20.054  0.00  0.00    +0.000 A 
ATOM      7  C   UNL     1       0.324  10.244  21.259  0.00  0.00    +0.000 A 
ATOM      8  S   UNL     1       0.619   8.528  21.160  0.00  0.00    +0.000 S 
ATOM      9  H   UNL     1       1.999   6.797  19.690  0.00  0.00    +0.000 HD
ENDROOT
BRANCH   1  13
ATOM     10  C   UNL     1       4.979   4.429  16.362  0.00  0.00    +0.000 A 
ATOM     11  C   UNL     1       5.391   5.736  16.123  0.00  0.00    +0.000 A 
ATOM     12  C   UNL     1       4.730   6.804  16.726  0.00  0.00    +0.000 A 
ATOM     13  C   UNL     1       3.624   6.592  17.563  0.00  0.00    +0.000 A 
ATOM     14  C   UNL     1       3.203   5.277  17.796  0.00  0.00    +0.000 A 
ATOM     15  C   UNL     1       3.882   4.202  17.197  0.00  0.00    +0.000 A 
BRANCH  10  17
ATOM     16  C   UNL     1       6.244   3.876  14.441  0.00  0.00    +0.000 C 
ATOM     17  O   UNL     1       5.676   3.474  15.680  0.00  0.00    +0.000 OA
ENDBRANCH  10  17
ENDBRANCH   1  13
BRANCH   6  18
ATOM     18  C   UNL     1       0.583  12.211  19.624  0.00  0.00    +0.000 A 
ATOM     19  C   UNL     1       1.493  13.155  20.136  0.00  0.00    +0.000 A 
ATOM     20  C   UNL     1       1.358  14.515  19.854  0.00  0.00    +0.000 A 
ATOM     21  C   UNL     1       0.310  14.953  19.051  0.00  0.00    +0.000 A 
ATOM     22  C   UNL     1      -0.594  14.031  18.527  0.00  0.00    +0.000 A 
ATOM     23  C   UNL     1      -0.463  12.669  18.818  0.00  0.00    +0.000 A 
ENDBRANCH   6  18
BRANCH   7  24
ATOM     24  C   UNL     1      -0.340  10.828  22.417  0.00  0.00    +0.000 C 
ATOM     25  O   UNL     1      -0.236  10.366  23.553  0.00  0.00    +0.000 OA
BRANCH  24  26
ATOM     26  C   UNL     1      -1.186  12.058  22.284  0.00  0.00    +0.000 A 
ATOM     27  C   UNL     1      -0.690  13.264  22.798  0.00  0.00    +0.000 A 
ATOM     28  C   UNL     1      -1.375  14.462  22.578  0.00  0.00    +0.000 A 
ATOM     29  C   UNL     1      -2.568  14.469  21.849  0.00  0.00    +0.000 A 
ATOM     30  C   UNL     1      -3.233  15.760  21.472  0.00  0.00    +0.000 C 
ATOM     31  C   UNL     1      -3.110  13.252  21.417  0.00  0.00    +0.000 A 
ATOM     32  C   UNL     1      -2.437  12.051  21.656  0.00  0.00    +0.000 A 
ENDBRANCH  24  26
ENDBRANCH   7  24
TORSDOF 5
ENDMDL
MODEL 7
REMARK VINA RESULT:      -8.0      3.164      3.925
REMARK  Name = 
REMARK  7 active torsions:
REMARK  status: ('A' for Active; 'I' for Inactive)
REMARK    1  A    between atoms: C_1  and  O_2
REMARK    2  A    between atoms: O_2  and  C_3
REMARK    3  A    between atoms: C_6  and  C_7
REMARK    4  A    between atoms: C_12  and  C_13
REMARK    5  A    between atoms: C_19  and  C_20
REMARK    6  A    between atoms: C_20  and  C_22
REMARK    7  A    between atoms: C_25  and  C_26
REMARK                            x       y       z     vdW  Elec       q    Type
REMARK                         _______ _______ _______ _____ _____    ______ ____
ROOT
ATOM      1  C   UNL     1      -0.053  10.053  21.894  0.00  0.00    +0.000 C 
ATOM      2  O   UNL     1      -0.096   9.100  22.674  0.00  0.00    +0.000 OA
ATOM      3  N   UNL     1       0.527  10.027  20.642  0.00  0.00    +0.000 N 
ATOM      4  C   UNL     1       1.055   8.854  20.158  0.00  0.00    +0.000 A 
ATOM      5  N   UNL     1       0.934   7.657  20.649  0.00  0.00    +0.000 NA
ATOM      6  C   UNL     1       1.725   6.750  19.959  0.00  0.00    +0.000 A 
ATOM      7  C   UNL     1       2.470   7.308  18.925  0.00  0.00    +0.000 A 
ATOM      8  S   UNL     1       1.981   8.973  18.742  0.00  0.00    +0.000 S 
ATOM      9  H   UNL     1       0.682  10.856  20.094  0.00  0.00    +0.000 HD
ENDROOT
BRANCH   1  13
ATOM     10  C   UNL     1      -1.971  13.653  23.304  0.00  0.00    +0.000 A 
ATOM     11  C   UNL     1      -2.466  12.390  23.611  0.00  0.00    +0.000 A 
ATOM     12  C   UNL     1      -1.807  11.247  23.162  0.00  0.00    +0.000 A 
ATOM     13  C   UNL     1      -0.648  11.341  22.375  0.00  0.00    +0.000 A 
ATOM     14  C   UNL     1      -0.156  12.613  22.058  0.00  0.00    +0.000 A 
ATOM     15  C   UNL     1      -0.817  13.763  22.525  0.00  0.00    +0.000 A 
BRANCH  10  17
ATOM     16  C   UNL     1      -2.263  15.341  24.935  0.00  0.00    +0.000 C 
ATOM     17  O   UNL     1      -2.729  14.692  23.760  0.00  0.00    +0.000 OA
ENDBRANCH  10  17
ENDBRANCH   1  13
BRANCH   6  18
ATOM     18  C   UNL     1       1.713   5.365  20.429  0.00  0.00    +0.000 A 
ATOM     19  C   UNL     1       0.756   4.486  19.890  0.00  0.00    +0.000 A 
ATOM     20  C   UNL     1       0.618   3.184  20.374  0.00  0.00    +0.000 A 
ATOM     21  C   UNL     1       1.440   2.739  21.404  0.00  0.00    +0.000 A 
ATOM     22  C   UNL     1       2.401   3.594  21.942  0.00  0.00    +0.000 A 
ATOM     23  C   UNL     1       2.532   4.902  21.463  0.00  0.00    +0.000 A 
ENDBRANCH   6  18
BRANCH   7  24
ATOM     24  C   UNL     1       3.417   6.697  18.002  0.00  0.00    +0.000 C 
ATOM     25  O   UNL     1       4.099   7.348  17.212  0.00  0.00    +0.000 OA
BRANCH  24  26
ATOM     26  C   UNL     1       3.627   5.213  17.981  0.00  0.00    +0.000 A 
ATOM     27  C   UNL     1       4.655   4.676  18.767  0.00  0.00    +0.000 A 
ATOM     28  C   UNL     1       4.803   3.292  18.890  0.00  0.00    +0.000 A 
ATOM     29  C   UNL     1       3.931   2.427  18.221  0.00  0.00    +0.000 A 
ATOM     30  C   UNL     1       3.978   0.947  18.464  0.00  0.00    +0.000 C 
ATOM     31  C   UNL     1       2.963   2.963  17.362  0.00  0.00    +0.000 A 
ATOM     32  C   UNL     1       2.829   4.347  17.221  0.00  0.00    +0.000 A 
ENDBRANCH  24  26
ENDBRANCH   7  24
TORSDOF 5
ENDMDL
MODEL 8
REMARK VINA RESULT:      -7.9      3.133      3.905
REMARK  Name = 
REMARK  7 active torsions:
REMARK  status: ('A' for Active; 'I' for Inactive)
REMARK    1  A    between atoms: C_1  and  O_2
REMARK    2  A    between atoms: O_2  and  C_3
REMARK    3  A    between atoms: C_6  and  C_7
REMARK    4  A    between atoms: C_12  and  C_13
REMARK    5  A    between atoms: C_19  and  C_20
REMARK    6  A    between atoms: C_20  and  C_22
REMARK    7  A    between atoms: C_25  and  C_26
REMARK                            x       y       z     vdW  Elec       q    Type
REMARK                         _______ _______ _______ _____ _____    ______ ____
ROOT
ATOM      1  C   UNL     1      -0.147  10.110  21.854  0.00  0.00    +0.000 C 
ATOM      2  O   UNL     1      -0.255   9.156  22.627  0.00  0.00    +0.000 OA
ATOM      3  N   UNL     1       0.496  10.073  20.633  0.00  0.00    +0.000 N 
ATOM      4  C   UNL     1       1.018   8.888  20.172  0.00  0.00    +0.000 A 
ATOM      5  N   UNL     1       0.841   7.693  20.651  0.00  0.00    +0.000 NA
ATOM      6  C   UNL     1       1.644   6.768  19.999  0.00  0.00    +0.000 A 
ATOM      7  C   UNL     1       2.455   7.311  19.007  0.00  0.00    +0.000 A 
ATOM      8  S   UNL     1       2.018   8.987  18.806  0.00  0.00    +0.000 S 
ATOM      9  H   UNL     1       0.700  10.900  20.098  0.00  0.00    +0.000 HD
ENDROOT
BRANCH   1  13
ATOM     10  C   UNL     1      -1.631  13.960  23.122  0.00  0.00    +0.000 A 
ATOM     11  C   UNL     1      -0.533  13.839  22.277  0.00  0.00    +0.000 A 
ATOM     12  C   UNL     1      -0.096  12.581  21.864  0.00  0.00    +0.000 A 
ATOM     13  C   UNL     1      -0.734  11.412  22.308  0.00  0.00    +0.000 A 
ATOM     14  C   UNL     1      -1.833  11.533  23.167  0.00  0.00    +0.000 A 
ATOM     15  C   UNL     1      -2.278  12.805  23.569  0.00  0.00    +0.000 A 
BRANCH  10  17
ATOM     16  C   UNL     1      -2.712  15.386  24.669  0.00  0.00    +0.000 C 
ATOM     17  O   UNL     1      -1.932  15.239  23.491  0.00  0.00    +0.000 OA
ENDBRANCH  10  17
ENDBRANCH   1  13
BRANCH   6  18
ATOM     18  C   UNL     1       1.572   5.383  20.462  0.00  0.00    +0.000 A 
ATOM     19  C   UNL     1       2.511   4.951  21.417  0.00  0.00    +0.000 A 
ATOM     20  C   UNL     1       2.569   3.616  21.820  0.00  0.00    +0.000 A 
ATOM     21  C   UNL     1       1.685   2.691  21.274  0.00  0.00    +0.000 A 
ATOM     22  C   UNL     1       0.742   3.104  20.335  0.00  0.00    +0.000 A 
ATOM     23  C   UNL     1       0.691   4.441  19.925  0.00  0.00    +0.000 A 
ENDBRANCH   6  18
BRANCH   7  24
ATOM     24  C   UNL     1       3.432   6.677  18.131  0.00  0.00    +0.000 C 
ATOM     25  O   UNL     1       4.176   7.314  17.386  0.00  0.00    +0.000 OA
BRANCH  24  26
ATOM     26  C   UNL     1       3.599   5.188  18.108  0.00  0.00    +0.000 A 
ATOM     27  C   UNL     1       4.619   4.622  18.883  0.00  0.00    +0.000 A 
ATOM     28  C   UNL     1       4.729   3.234  19.005  0.00  0.00    +0.000 A 
ATOM     29  C   UNL     1       3.825   2.395  18.346  0.00  0.00    +0.000 A 
ATOM     30  C   UNL     1       3.832   0.914  18.588  0.00  0.00    +0.000 C 
ATOM     31  C   UNL     1       2.864   2.959  17.497  0.00  0.00    +0.000 A 
ATOM     32  C   UNL     1       2.769   4.346  17.357  0.00  0.00    +0.000 A 
ENDBRANCH  24  26
ENDBRANCH   7  24
TORSDOF 5
ENDMDL
MODEL 9
REMARK VINA RESULT:      -7.9      2.804     10.501
REMARK  Name = 
REMARK  7 active torsions:
REMARK  status: ('A' for Active; 'I' for Inactive)
REMARK    1  A    between atoms: C_1  and  O_2
REMARK    2  A    between atoms: O_2  and  C_3
REMARK    3  A    between atoms: C_6  and  C_7
REMARK    4  A    between atoms: C_12  and  C_13
REMARK    5  A    between atoms: C_19  and  C_20
REMARK    6  A    between atoms: C_20  and  C_22
REMARK    7  A    between atoms: C_25  and  C_26
REMARK                            x       y       z     vdW  Elec       q    Type
REMARK                         _______ _______ _______ _____ _____    ______ ____
ROOT
ATOM      1  C   UNL     1       2.441   7.631  18.574  0.00  0.00    +0.000 C 
ATOM      2  O   UNL     1       2.930   8.605  17.998  0.00  0.00    +0.000 OA
ATOM      3  N   UNL     1       1.498   7.695  19.579  0.00  0.00    +0.000 N 
ATOM      4  C   UNL     1       0.987   8.913  19.960  0.00  0.00    +0.000 A 
ATOM      5  N   UNL     1       1.133  10.063  19.372  0.00  0.00    +0.000 NA
ATOM      6  C   UNL     1       0.584  11.087  20.131  0.00  0.00    +0.000 A 
ATOM      7  C   UNL     1       0.024  10.672  21.335  0.00  0.00    +0.000 A 
ATOM      8  S   UNL     1       0.047   8.928  21.371  0.00  0.00    +0.000 S 
ATOM      9  H   UNL     1       1.233   6.898  20.132  0.00  0.00    +0.000 HD
ENDROOT
BRANCH   1  13
ATOM     10  C   UNL     1       3.738   3.652  17.518  0.00  0.00    +0.000 A 
ATOM     11  C   UNL     1       2.441   3.910  17.950  0.00  0.00    +0.000 A 
ATOM     12  C   UNL     1       2.047   5.212  18.256  0.00  0.00    +0.000 A 
ATOM     13  C   UNL     1       2.950   6.283  18.162  0.00  0.00    +0.000 A 
ATOM     14  C   UNL     1       4.257   6.021  17.738  0.00  0.00    +0.000 A 
ATOM     15  C   UNL     1       4.646   4.708  17.416  0.00  0.00    +0.000 A 
BRANCH  10  17
ATOM     16  C   UNL     1       3.621   1.427  18.313  0.00  0.00    +0.000 C 
ATOM     17  O   UNL     1       4.015   2.335  17.293  0.00  0.00    +0.000 OA
ENDBRANCH  10  17
ENDBRANCH   1  13
BRANCH   6  18
ATOM     18  C   UNL     1       0.708  12.445  19.604  0.00  0.00    +0.000 A 
ATOM     19  C   UNL     1       1.780  13.239  20.053  0.00  0.00    +0.000 A 
ATOM     20  C   UNL     1       1.895  14.578  19.675  0.00  0.00    +0.000 A 
ATOM     21  C   UNL     1       0.939  15.143  18.838  0.00  0.00    +0.000 A 
ATOM     22  C   UNL     1      -0.123  14.368  18.375  0.00  0.00    +0.000 A 
ATOM     23  C   UNL     1      -0.243  13.029  18.762  0.00  0.00    +0.000 A 
ENDBRANCH   6  18
BRANCH   7  24
ATOM     24  C   UNL     1      -0.618  11.438  22.395  0.00  0.00    +0.000 C 
ATOM     25  O   UNL     1      -0.613  11.085  23.574  0.00  0.00    +0.000 OA
BRANCH  24  26
ATOM     26  C   UNL     1      -1.315  12.731  22.100  0.00  0.00    +0.000 A 
ATOM     27  C   UNL     1      -0.711  13.923  22.523  0.00  0.00    +0.000 A 
ATOM     28  C   UNL     1      -1.248  15.159  22.153  0.00  0.00    +0.000 A 
ATOM     29  C   UNL     1      -2.402  15.219  21.364  0.00  0.00    +0.000 A 
ATOM     30  C   UNL     1      -2.902  16.529  20.831  0.00  0.00    +0.000 C 
ATOM     31  C   UNL     1      -3.057  14.030  21.022  0.00  0.00    +0.000 A 
ATOM     32  C   UNL     1      -2.532  12.794  21.411  0.00  0.00    +0.000 A 
ENDBRANCH  24  26
ENDBRANCH   7  24
TORSDOF 5
ENDMDL
