MODEL 1
REMARK VINA RESULT:      -7.2      0.000      0.000
REMARK  Name = 
REMARK  11 active torsions:
REMARK  status: ('A' for Active; 'I' for Inactive)
REMARK    1  A    between atoms: C_1  and  C_2
REMARK    2  A    between atoms: C_2  and  C_3
REMARK    3  A    between atoms: C_3  and  S_4
REMARK    4  A    between atoms: S_4  and  N_7
REMARK    5  A    between atoms: N_7  and  C_8
REMARK    6  A    between atoms: C_12  and  N_13
REMARK    7  A    between atoms: N_13  and  C_14
REMARK    8  A    between atoms: C_20  and  O_21
REMARK    9  A    between atoms: O_21  and  C_22
REMARK   10  A    between atoms: C_23  and  O_24
REMARK   11  A    between atoms: O_24  and  C_25
REMARK                            x       y       z     vdW  Elec       q    Type
REMARK                         _______ _______ _______ _____ _____    ______ ____
ROOT
ATOM      1  N   UNL     1       4.112   3.622  19.812  0.00  0.00    +0.000 N 
ATOM      2  H   UNL     1       4.112   2.620  19.619  0.00  0.00    +0.000 HD
ENDROOT
BRANCH   1   3
ATOM      3  C   UNL     1       2.690   4.056  19.732  0.00  0.00    +0.000 A 
ATOM      4  N   UNL     1       2.011   3.353  18.826  0.00  0.00    +0.000 NA
ATOM      5  C   UNL     1       1.947   3.962  17.649  0.00  0.00    +0.000 A 
ATOM      6  N   UNL     1       2.255   5.243  17.427  0.00  0.00    +0.000 NA
ATOM      7  C   UNL     1       2.352   6.005  18.512  0.00  0.00    +0.000 A 
ATOM      8  C   UNL     1       2.218   7.360  18.283  0.00  0.00    +0.000 A 
ATOM      9  C   UNL     1       1.780   8.286  19.238  0.00  0.00    +0.000 A 
ATOM     10  C   UNL     1       1.461   7.792  20.500  0.00  0.00    +0.000 A 
ATOM     11  C   UNL     1       1.817   6.420  20.792  0.00  0.00    +0.000 A 
ATOM     12  C   UNL     1       2.390   5.485  19.794  0.00  0.00    +0.000 A 
BRANCH   9  13
ATOM     13  O   UNL     1       1.604   9.606  18.930  0.00  0.00    +0.000 OA
ATOM     14  C   UNL     1       0.350  10.001  18.371  0.00  0.00    +0.000 C 
ENDBRANCH   9  13
BRANCH  10  15
ATOM     15  O   UNL     1       0.771   8.468  21.486  0.00  0.00    +0.000 OA
ATOM     16  C   UNL     1       1.435   9.306  22.450  0.00  0.00    +0.000 C 
ENDBRANCH  10  15
ENDBRANCH   1   3
BRANCH   1  21
ATOM     17  C   UNL     1       6.702   4.347  17.086  0.00  0.00    +0.000 A 
ATOM     18  C   UNL     1       7.465   5.361  17.655  0.00  0.00    +0.000 A 
ATOM     19  C   UNL     1       7.156   5.792  18.939  0.00  0.00    +0.000 A 
ATOM     20  C   UNL     1       6.076   5.226  19.654  0.00  0.00    +0.000 A 
ATOM     21  C   UNL     1       5.280   4.192  19.125  0.00  0.00    +0.000 A 
ATOM     22  C   UNL     1       5.611   3.782  17.804  0.00  0.00    +0.000 A 
BRANCH  17  23
ATOM     23  N   UNL     1       7.012   3.939  15.734  0.00  0.00    +0.000 N 
ATOM     24  H   UNL     1       8.019   3.804  15.596  0.00  0.00    +0.000 HD
BRANCH  23  25
ATOM     25  S   UNL     1       6.527   5.019  14.498  0.00  0.00    +0.000 S 
ATOM     26  O   UNL     1       7.738   5.379  13.800  0.00  0.00    +0.000 OA
ATOM     27  O   UNL     1       5.638   6.016  15.040  0.00  0.00    +0.000 OA
BRANCH  25  28
ATOM     28  C   UNL     1       5.581   3.926  13.439  0.00  0.00    +0.000 C 
BRANCH  28  30
ATOM     29  C   UNL     1       5.825   2.222  11.584  0.00  0.00    +0.000 C 
ATOM     30  C   UNL     1       6.417   3.452  12.253  0.00  0.00    +0.000 C 
ENDBRANCH  28  30
ENDBRANCH  25  28
ENDBRANCH  23  25
ENDBRANCH  17  23
ENDBRANCH   1  21
TORSDOF 8
ENDMDL
MODEL 2
REMARK VINA RESULT:      -7.2      3.216      5.145
REMARK  Name = 
REMARK  11 active torsions:
REMARK  status: ('A' for Active; 'I' for Inactive)
REMARK    1  A    between atoms: C_1  and  C_2
REMARK    2  A    between atoms: C_2  and  C_3
REMARK    3  A    between atoms: C_3  and  S_4
REMARK    4  A    between atoms: S_4  and  N_7
REMARK    5  A    between atoms: N_7  and  C_8
REMARK    6  A    between atoms: C_12  and  N_13
REMARK    7  A    between atoms: N_13  and  C_14
REMARK    8  A    between atoms: C_20  and  O_21
REMARK    9  A    between atoms: O_21  and  C_22
REMARK   10  A    between atoms: C_23  and  O_24
REMARK   11  A    between atoms: O_24  and  C_25
REMARK                            x       y       z     vdW  Elec       q    Type
REMARK                         _______ _______ _______ _____ _____    ______ ____
ROOT
ATOM      1  N   UNL     1       1.824   8.578  19.128  0.00  0.00    +0.000 N 
ATOM      2  H   UNL     1       1.056   8.500  19.796  0.00  0.00    +0.000 HD
ENDROOT
BRANCH   1   3
ATOM      3  C   UNL     1       1.346   9.497  18.058  0.00  0.00    +0.000 A 
ATOM      4  N   UNL     1       2.258  10.421  17.759  0.00  0.00    +0.000 NA
ATOM      5  C   UNL     1       2.061  11.562  18.406  0.00  0.00    +0.000 A 
ATOM      6  N   UNL     1       0.945  11.893  19.063  0.00  0.00    +0.000 NA
ATOM      7  C   UNL     1      -0.120  11.143  18.795  0.00  0.00    +0.000 A 
ATOM      8  C   UNL     1      -1.333  11.730  19.096  0.00  0.00    +0.000 A 
ATOM      9  C   UNL     1      -2.546  11.407  18.475  0.00  0.00    +0.000 A 
ATOM     10  C   UNL     1      -2.510  10.426  17.488  0.00  0.00    +0.000 A 
ATOM     11  C   UNL     1      -1.287   9.667  17.340  0.00  0.00    +0.000 A 
ATOM     12  C   UNL     1      -0.042   9.952  18.095  0.00  0.00    +0.000 A 
BRANCH   9  13
ATOM     13  O   UNL     1      -3.703  12.072  18.769  0.00  0.00    +0.000 OA
ATOM     14  C   UNL     1      -3.823  12.665  20.063  0.00  0.00    +0.000 C 
ENDBRANCH   9  13
BRANCH  10  15
ATOM     15  O   UNL     1      -3.514  10.150  16.581  0.00  0.00    +0.000 OA
ATOM     16  C   UNL     1      -3.526  10.713  15.255  0.00  0.00    +0.000 C 
ENDBRANCH  10  15
ENDBRANCH   1   3
BRANCH   1  21
ATOM     17  C   UNL     1       3.834   5.647  17.703  0.00  0.00    +0.000 A 
ATOM     18  C   UNL     1       3.704   4.681  18.695  0.00  0.00    +0.000 A 
ATOM     19  C   UNL     1       2.939   4.970  19.817  0.00  0.00    +0.000 A 
ATOM     20  C   UNL     1       2.314   6.229  19.964  0.00  0.00    +0.000 A 
ATOM     21  C   UNL     1       2.408   7.237  18.985  0.00  0.00    +0.000 A 
ATOM     22  C   UNL     1       3.209   6.917  17.855  0.00  0.00    +0.000 A 
BRANCH  17  23
ATOM     23  N   UNL     1       4.668   5.343  16.561  0.00  0.00    +0.000 N 
ATOM     24  H   UNL     1       4.613   4.353  16.299  0.00  0.00    +0.000 HD
BRANCH  23  25
ATOM     25  S   UNL     1       6.337   5.671  16.747  0.00  0.00    +0.000 S 
ATOM     26  O   UNL     1       6.790   4.793  17.799  0.00  0.00    +0.000 OA
ATOM     27  O   UNL     1       6.554   7.094  16.799  0.00  0.00    +0.000 OA
BRANCH  25  28
ATOM     28  C   UNL     1       6.982   5.051  15.193  0.00  0.00    +0.000 C 
BRANCH  28  30
ATOM     29  C   UNL     1       6.311   3.773  13.114  0.00  0.00    +0.000 C 
ATOM     30  C   UNL     1       6.057   3.994  14.598  0.00  0.00    +0.000 C 
ENDBRANCH  28  30
ENDBRANCH  25  28
ENDBRANCH  23  25
ENDBRANCH  17  23
ENDBRANCH   1  21
TORSDOF 8
ENDMDL
MODEL 3
REMARK VINA RESULT:      -7.1      0.994      1.093
REMARK  Name = 
REMARK  11 active torsions:
REMARK  status: ('A' for Active; 'I' for Inactive)
REMARK    1  A    between atoms: C_1  and  C_2
REMARK    2  A    between atoms: C_2  and  C_3
REMARK    3  A    between atoms: C_3  and  S_4
REMARK    4  A    between atoms: S_4  and  N_7
REMARK    5  A    between atoms: N_7  and  C_8
REMARK    6  A    between atoms: C_12  and  N_13
REMARK    7  A    between atoms: N_13  and  C_14
REMARK    8  A    between atoms: C_20  and  O_21
REMARK    9  A    between atoms: O_21  and  C_22
REMARK   10  A    between atoms: C_23  and  O_24
REMARK   11  A    between atoms: O_24  and  C_25
REMARK                            x       y       z     vdW  Elec       q    Type
REMARK                         _______ _______ _______ _____ _____    ______ ____
ROOT
ATOM      1  N   UNL     1       4.386   4.050  19.600  0.00  0.00    +0.000 N 
ATOM      2  H   UNL     1       4.372   3.101  19.226  0.00  0.00    +0.000 HD
ENDROOT
BRANCH   1   3
ATOM      3  C   UNL     1       2.962   4.429  19.811  0.00  0.00    +0.000 A 
ATOM      4  N   UNL     1       2.132   3.578  19.208  0.00  0.00    +0.000 NA
ATOM      5  C   UNL     1       1.751   3.997  18.009  0.00  0.00    +0.000 A 
ATOM      6  N   UNL     1       1.916   5.237  17.538  0.00  0.00    +0.000 NA
ATOM      7  C   UNL     1       2.221   6.158  18.446  0.00  0.00    +0.000 A 
ATOM      8  C   UNL     1       1.951   7.459  18.067  0.00  0.00    +0.000 A 
ATOM      9  C   UNL     1       1.697   8.508  18.958  0.00  0.00    +0.000 A 
ATOM     10  C   UNL     1       1.720   8.206  20.317  0.00  0.00    +0.000 A 
ATOM     11  C   UNL     1       2.220   6.904  20.705  0.00  0.00    +0.000 A 
ATOM     12  C   UNL     1       2.596   5.842  19.741  0.00  0.00    +0.000 A 
BRANCH   9  13
ATOM     13  O   UNL     1       1.370   9.760  18.519  0.00  0.00    +0.000 OA
ATOM     14  C   UNL     1      -0.010  10.051  18.296  0.00  0.00    +0.000 C 
ENDBRANCH   9  13
BRANCH  10  15
ATOM     15  O   UNL     1       1.244   9.006  21.336  0.00  0.00    +0.000 OA
ATOM     16  C   UNL     1      -0.088   8.864  21.864  0.00  0.00    +0.000 C 
ENDBRANCH  10  15
ENDBRANCH   1   3
BRANCH   1  21
ATOM     17  C   UNL     1       6.268   5.751  16.732  0.00  0.00    +0.000 A 
ATOM     18  C   UNL     1       7.349   6.335  17.384  0.00  0.00    +0.000 A 
ATOM     19  C   UNL     1       7.484   6.154  18.754  0.00  0.00    +0.000 A 
ATOM     20  C   UNL     1       6.533   5.403  19.483  0.00  0.00    +0.000 A 
ATOM     21  C   UNL     1       5.427   4.785  18.868  0.00  0.00    +0.000 A 
ATOM     22  C   UNL     1       5.308   5.001  17.468  0.00  0.00    +0.000 A 
BRANCH  17  23
ATOM     23  N   UNL     1       6.121   5.986  15.312  0.00  0.00    +0.000 N 
ATOM     24  H   UNL     1       5.137   6.087  15.041  0.00  0.00    +0.000 HD
BRANCH  23  25
ATOM     25  S   UNL     1       6.750   4.770  14.285  0.00  0.00    +0.000 S 
ATOM     26  O   UNL     1       7.180   3.707  15.161  0.00  0.00    +0.000 OA
ATOM     27  O   UNL     1       7.637   5.360  13.315  0.00  0.00    +0.000 OA
BRANCH  25  28
ATOM     28  C   UNL     1       5.263   4.228  13.445  0.00  0.00    +0.000 C 
BRANCH  28  30
ATOM     29  C   UNL     1       4.366   3.089  11.370  0.00  0.00    +0.000 C 
ATOM     30  C   UNL     1       5.602   3.432  12.188  0.00  0.00    +0.000 C 
ENDBRANCH  28  30
ENDBRANCH  25  28
ENDBRANCH  23  25
ENDBRANCH  17  23
ENDBRANCH   1  21
TORSDOF 8
ENDMDL
MODEL 4
REMARK VINA RESULT:      -7.0      3.566      5.820
REMARK  Name = 
REMARK  11 active torsions:
REMARK  status: ('A' for Active; 'I' for Inactive)
REMARK    1  A    between atoms: C_1  and  C_2
REMARK    2  A    between atoms: C_2  and  C_3
REMARK    3  A    between atoms: C_3  and  S_4
REMARK    4  A    between atoms: S_4  and  N_7
REMARK    5  A    between atoms: N_7  and  C_8
REMARK    6  A    between atoms: C_12  and  N_13
REMARK    7  A    between atoms: N_13  and  C_14
REMARK    8  A    between atoms: C_20  and  O_21
REMARK    9  A    between atoms: O_21  and  C_22
REMARK   10  A    between atoms: C_23  and  O_24
REMARK   11  A    between atoms: O_24  and  C_25
REMARK                            x       y       z     vdW  Elec       q    Type
REMARK                         _______ _______ _______ _____ _____    ______ ____
ROOT
ATOM      1  N   UNL     1       1.732   8.355  18.650  0.00  0.00    +0.000 N 
ATOM      2  H   UNL     1       0.906   8.072  19.179  0.00  0.00    +0.000 HD
ENDROOT
BRANCH   1   3
ATOM      3  C   UNL     1       1.298   9.488  17.787  0.00  0.00    +0.000 A 
ATOM      4  N   UNL     1       2.253  10.410  17.668  0.00  0.00    +0.000 NA
ATOM      5  C   UNL     1       2.110  11.408  18.529  0.00  0.00    +0.000 A 
ATOM      6  N   UNL     1       1.011  11.655  19.247  0.00  0.00    +0.000 NA
ATOM      7  C   UNL     1      -0.088  11.023  18.847  0.00  0.00    +0.000 A 
ATOM      8  C   UNL     1      -1.273  11.594  19.268  0.00  0.00    +0.000 A 
ATOM      9  C   UNL     1      -2.499  11.457  18.606  0.00  0.00    +0.000 A 
ATOM     10  C   UNL     1      -2.510  10.690  17.445  0.00  0.00    +0.000 A 
ATOM     11  C   UNL     1      -1.323   9.919  17.140  0.00  0.00    +0.000 A 
ATOM     12  C   UNL     1      -0.067   9.991  17.925  0.00  0.00    +0.000 A 
BRANCH   9  13
ATOM     13  O   UNL     1      -3.624  12.104  19.036  0.00  0.00    +0.000 OA
ATOM     14  C   UNL     1      -4.844  11.364  19.084  0.00  0.00    +0.000 C 
ENDBRANCH   9  13
BRANCH  10  15
ATOM     15  O   UNL     1      -3.524  10.645  16.510  0.00  0.00    +0.000 OA
ATOM     16  C   UNL     1      -3.264  10.483  15.103  0.00  0.00    +0.000 C 
ENDBRANCH  10  15
ENDBRANCH   1   3
BRANCH   1  21
ATOM     17  C   UNL     1       4.542   5.984  17.579  0.00  0.00    +0.000 A 
ATOM     18  C   UNL     1       3.917   4.742  17.610  0.00  0.00    +0.000 A 
ATOM     19  C   UNL     1       2.573   4.675  17.952  0.00  0.00    +0.000 A 
ATOM     20  C   UNL     1       1.850   5.844  18.281  0.00  0.00    +0.000 A 
ATOM     21  C   UNL     1       2.434   7.125  18.256  0.00  0.00    +0.000 A 
ATOM     22  C   UNL     1       3.814   7.160  17.916  0.00  0.00    +0.000 A 
BRANCH  17  23
ATOM     23  N   UNL     1       5.952   6.030  17.260  0.00  0.00    +0.000 N 
ATOM     24  H   UNL     1       6.176   5.466  16.434  0.00  0.00    +0.000 HD
BRANCH  23  25
ATOM     25  S   UNL     1       7.013   5.481  18.485  0.00  0.00    +0.000 S 
ATOM     26  O   UNL     1       7.771   4.407  17.888  0.00  0.00    +0.000 OA
ATOM     27  O   UNL     1       6.288   5.304  19.718  0.00  0.00    +0.000 OA
BRANCH  25  28
ATOM     28  C   UNL     1       8.098   6.897  18.659  0.00  0.00    +0.000 C 
BRANCH  28  30
ATOM     29  C   UNL     1       8.293   9.337  18.017  0.00  0.00    +0.000 C 
ATOM     30  C   UNL     1       7.780   7.963  17.614  0.00  0.00    +0.000 C 
ENDBRANCH  28  30
ENDBRANCH  25  28
ENDBRANCH  23  25
ENDBRANCH  17  23
ENDBRANCH   1  21
TORSDOF 8
ENDMDL
MODEL 5
REMARK VINA RESULT:      -6.9      2.944      8.050
REMARK  Name = 
REMARK  11 active torsions:
REMARK  status: ('A' for Active; 'I' for Inactive)
REMARK    1  A    between atoms: C_1  and  C_2
REMARK    2  A    between atoms: C_2  and  C_3
REMARK    3  A    between atoms: C_3  and  S_4
REMARK    4  A    between atoms: S_4  and  N_7
REMARK    5  A    between atoms: N_7  and  C_8
REMARK    6  A    between atoms: C_12  and  N_13
REMARK    7  A    between atoms: N_13  and  C_14
REMARK    8  A    between atoms: C_20  and  O_21
REMARK    9  A    between atoms: O_21  and  C_22
REMARK   10  A    between atoms: C_23  and  O_24
REMARK   11  A    between atoms: O_24  and  C_25
REMARK                            x       y       z     vdW  Elec       q    Type
REMARK                         _______ _______ _______ _____ _____    ______ ____
ROOT
ATOM      1  N   UNL     1       1.963   4.724  18.687  0.00  0.00    +0.000 N 
ATOM      2  H   UNL     1       1.717   4.264  19.563  0.00  0.00    +0.000 HD
ENDROOT
BRANCH   1   3
ATOM      3  C   UNL     1       3.128   3.973  18.142  0.00  0.00    +0.000 A 
ATOM      4  N   UNL     1       3.369   2.864  18.839  0.00  0.00    +0.000 NA
ATOM      5  C   UNL     1       4.299   3.035  19.768  0.00  0.00    +0.000 A 
ATOM      6  N   UNL     1       5.127   4.081  19.846  0.00  0.00    +0.000 NA
ATOM      7  C   UNL     1       5.196   4.839  18.755  0.00  0.00    +0.000 A 
ATOM      8  C   UNL     1       6.334   5.614  18.658  0.00  0.00    +0.000 A 
ATOM      9  C   UNL     1       6.880   6.074  17.453  0.00  0.00    +0.000 A 
ATOM     10  C   UNL     1       6.220   5.716  16.281  0.00  0.00    +0.000 A 
ATOM     11  C   UNL     1       4.916   5.099  16.407  0.00  0.00    +0.000 A 
ATOM     12  C   UNL     1       4.302   4.725  17.704  0.00  0.00    +0.000 A 
BRANCH   9  13
ATOM     13  O   UNL     1       8.049   6.781  17.418  0.00  0.00    +0.000 OA
ATOM     14  C   UNL     1       7.987   8.187  17.660  0.00  0.00    +0.000 C 
ENDBRANCH   9  13
BRANCH  10  15
ATOM     15  O   UNL     1       6.721   5.829  15.000  0.00  0.00    +0.000 OA
ATOM     16  C   UNL     1       6.813   4.701  14.110  0.00  0.00    +0.000 C 
ENDBRANCH  10  15
ENDBRANCH   1   3
BRANCH   1  21
ATOM     17  C   UNL     1       1.738   8.096  20.487  0.00  0.00    +0.000 A 
ATOM     18  C   UNL     1       1.726   9.002  19.432  0.00  0.00    +0.000 A 
ATOM     19  C   UNL     1       1.763   8.517  18.131  0.00  0.00    +0.000 A 
ATOM     20  C   UNL     1       1.829   7.128  17.877  0.00  0.00    +0.000 A 
ATOM     21  C   UNL     1       1.834   6.171  18.910  0.00  0.00    +0.000 A 
ATOM     22  C   UNL     1       1.810   6.698  20.230  0.00  0.00    +0.000 A 
BRANCH  17  23
ATOM     23  N   UNL     1       1.740   8.620  21.835  0.00  0.00    +0.000 N 
ATOM     24  H   UNL     1       2.054   7.921  22.517  0.00  0.00    +0.000 HD
BRANCH  23  25
ATOM     25  S   UNL     1       0.233   9.180  22.422  0.00  0.00    +0.000 S 
ATOM     26  O   UNL     1       0.451   9.490  23.815  0.00  0.00    +0.000 OA
ATOM     27  O   UNL     1      -0.819   8.292  21.997  0.00  0.00    +0.000 OA
BRANCH  25  28
ATOM     28  C   UNL     1       0.071  10.726  21.529  0.00  0.00    +0.000 C 
BRANCH  28  30
ATOM     29  C   UNL     1      -0.417  13.141  22.106  0.00  0.00    +0.000 C 
ATOM     30  C   UNL     1      -0.850  11.692  22.269  0.00  0.00    +0.000 C 
ENDBRANCH  28  30
ENDBRANCH  25  28
ENDBRANCH  23  25
ENDBRANCH  17  23
ENDBRANCH   1  21
TORSDOF 8
ENDMDL
MODEL 6
REMARK VINA RESULT:      -6.9      3.774      6.203
REMARK  Name = 
REMARK  11 active torsions:
REMARK  status: ('A' for Active; 'I' for Inactive)
REMARK    1  A    between atoms: C_1  and  C_2
REMARK    2  A    between atoms: C_2  and  C_3
REMARK    3  A    between atoms: C_3  and  S_4
REMARK    4  A    between atoms: S_4  and  N_7
REMARK    5  A    between atoms: N_7  and  C_8
REMARK    6  A    between atoms: C_12  and  N_13
REMARK    7  A    between atoms: N_13  and  C_14
REMARK    8  A    between atoms: C_20  and  O_21
REMARK    9  A    between atoms: O_21  and  C_22
REMARK   10  A    between atoms: C_23  and  O_24
REMARK   11  A    between atoms: O_24  and  C_25
REMARK                            x       y       z     vdW  Elec       q    Type
REMARK                         _______ _______ _______ _____ _____    ______ ____
ROOT
ATOM      1  N   UNL     1       1.811   8.311  18.529  0.00  0.00    +0.000 N 
ATOM      2  H   UNL     1       0.982   7.831  18.880  0.00  0.00    +0.000 HD
ENDROOT
BRANCH   1   3
ATOM      3  C   UNL     1       1.310   9.478  17.750  0.00  0.00    +0.000 A 
ATOM      4  N   UNL     1       2.267  10.385  17.554  0.00  0.00    +0.000 NA
ATOM      5  C   UNL     1       2.242  11.359  18.453  0.00  0.00    +0.000 A 
ATOM      6  N   UNL     1       1.233  11.605  19.294  0.00  0.00    +0.000 NA
ATOM      7  C   UNL     1       0.083  11.006  18.999  0.00  0.00    +0.000 A 
ATOM      8  C   UNL     1      -1.036  11.587  19.563  0.00  0.00    +0.000 A 
ATOM      9  C   UNL     1      -2.330  11.494  19.037  0.00  0.00    +0.000 A 
ATOM     10  C   UNL     1      -2.484  10.762  17.862  0.00  0.00    +0.000 A 
ATOM     11  C   UNL     1      -1.355   9.978  17.407  0.00  0.00    +0.000 A 
ATOM     12  C   UNL     1      -0.020  10.002  18.052  0.00  0.00    +0.000 A 
BRANCH   9  13
ATOM     13  O   UNL     1      -3.386  12.148  19.606  0.00  0.00    +0.000 OA
ATOM     14  C   UNL     1      -3.181  12.774  20.873  0.00  0.00    +0.000 C 
ENDBRANCH   9  13
BRANCH  10  15
ATOM     15  O   UNL     1      -3.595  10.765  17.044  0.00  0.00    +0.000 OA
ATOM     16  C   UNL     1      -3.490  10.766  15.607  0.00  0.00    +0.000 C 
ENDBRANCH  10  15
ENDBRANCH   1   3
BRANCH   1  21
ATOM     17  C   UNL     1       3.226   4.891  17.549  0.00  0.00    +0.000 A 
ATOM     18  C   UNL     1       4.522   5.203  17.152  0.00  0.00    +0.000 A 
ATOM     19  C   UNL     1       4.949   6.522  17.229  0.00  0.00    +0.000 A 
ATOM     20  C   UNL     1       4.079   7.540  17.686  0.00  0.00    +0.000 A 
ATOM     21  C   UNL     1       2.762   7.274  18.106  0.00  0.00    +0.000 A 
ATOM     22  C   UNL     1       2.350   5.917  18.002  0.00  0.00    +0.000 A 
BRANCH  17  23
ATOM     23  N   UNL     1       2.787   3.519  17.423  0.00  0.00    +0.000 N 
ATOM     24  H   UNL     1       1.778   3.455  17.246  0.00  0.00    +0.000 HD
BRANCH  23  25
ATOM     25  S   UNL     1       3.073   2.515  18.778  0.00  0.00    +0.000 S 
ATOM     26  O   UNL     1       3.800   3.333  19.720  0.00  0.00    +0.000 OA
ATOM     27  O   UNL     1       3.571   1.234  18.343  0.00  0.00    +0.000 OA
BRANCH  25  28
ATOM     28  C   UNL     1       1.407   2.298  19.402  0.00  0.00    +0.000 C 
BRANCH  28  30
ATOM     29  C   UNL     1       1.440   2.713  21.899  0.00  0.00    +0.000 C 
ATOM     30  C   UNL     1       1.110   3.284  20.528  0.00  0.00    +0.000 C 
ENDBRANCH  28  30
ENDBRANCH  25  28
ENDBRANCH  23  25
ENDBRANCH  17  23
ENDBRANCH   1  21
TORSDOF 8
ENDMDL
MODEL 7
REMARK VINA RESULT:      -6.8      4.405      6.769
REMARK  Name = 
REMARK  11 active torsions:
REMARK  status: ('A' for Active; 'I' for Inactive)
REMARK    1  A    between atoms: C_1  and  C_2
REMARK    2  A    between atoms: C_2  and  C_3
REMARK    3  A    between atoms: C_3  and  S_4
REMARK    4  A    between atoms: S_4  and  N_7
REMARK    5  A    between atoms: N_7  and  C_8
REMARK    6  A    between atoms: C_12  and  N_13
REMARK    7  A    between atoms: N_13  and  C_14
REMARK    8  A    between atoms: C_20  and  O_21
REMARK    9  A    between atoms: O_21  and  C_22
REMARK   10  A    between atoms: C_23  and  O_24
REMARK   11  A    between atoms: O_24  and  C_25
REMARK                            x       y       z     vdW  Elec       q    Type
REMARK                         _______ _______ _______ _____ _____    ______ ____
ROOT
ATOM      1  N   UNL     1       1.192   8.992  19.478  0.00  0.00    +0.000 N 
ATOM      2  H   UNL     1       0.308   8.697  19.894  0.00  0.00    +0.000 HD
ENDROOT
BRANCH   1   3
ATOM      3  C   UNL     1       0.837   9.931  18.379  0.00  0.00    +0.000 A 
ATOM      4  N   UNL     1       1.703  10.941  18.295  0.00  0.00    +0.000 NA
ATOM      5  C   UNL     1       1.292  12.022  18.943  0.00  0.00    +0.000 A 
ATOM      6  N   UNL     1       0.051  12.226  19.394  0.00  0.00    +0.000 NA
ATOM      7  C   UNL     1      -0.877  11.411  18.901  0.00  0.00    +0.000 A 
ATOM      8  C   UNL     1      -2.172  11.882  18.997  0.00  0.00    +0.000 A 
ATOM      9  C   UNL     1      -3.219  11.502  18.148  0.00  0.00    +0.000 A 
ATOM     10  C   UNL     1      -2.919  10.586  17.143  0.00  0.00    +0.000 A 
ATOM     11  C   UNL     1      -1.626   9.936  17.193  0.00  0.00    +0.000 A 
ATOM     12  C   UNL     1      -0.569  10.273  18.177  0.00  0.00    +0.000 A 
BRANCH   9  13
ATOM     13  O   UNL     1      -4.464  12.055  18.251  0.00  0.00    +0.000 OA
ATOM     14  C   UNL     1      -4.849  12.606  19.511  0.00  0.00    +0.000 C 
ENDBRANCH   9  13
BRANCH  10  15
ATOM     15  O   UNL     1      -3.712  10.286  16.055  0.00  0.00    +0.000 OA
ATOM     16  C   UNL     1      -3.252  10.452  14.700  0.00  0.00    +0.000 C 
ENDBRANCH  10  15
ENDBRANCH   1   3
BRANCH   1  21
ATOM     17  C   UNL     1       2.802   5.645  20.412  0.00  0.00    +0.000 A 
ATOM     18  C   UNL     1       3.612   5.382  19.313  0.00  0.00    +0.000 A 
ATOM     19  C   UNL     1       3.658   6.306  18.277  0.00  0.00    +0.000 A 
ATOM     20  C   UNL     1       2.884   7.489  18.325  0.00  0.00    +0.000 A 
ATOM     21  C   UNL     1       2.056   7.804  19.419  0.00  0.00    +0.000 A 
ATOM     22  C   UNL     1       2.019   6.833  20.456  0.00  0.00    +0.000 A 
BRANCH  17  23
ATOM     23  N   UNL     1       2.734   4.652  21.462  0.00  0.00    +0.000 N 
ATOM     24  H   UNL     1       3.642   4.517  21.920  0.00  0.00    +0.000 HD
BRANCH  23  25
ATOM     25  S   UNL     1       2.234   3.088  20.980  0.00  0.00    +0.000 S 
ATOM     26  O   UNL     1       1.480   2.562  22.093  0.00  0.00    +0.000 OA
ATOM     27  O   UNL     1       3.347   2.372  20.410  0.00  0.00    +0.000 OA
BRANCH  25  28
ATOM     28  C   UNL     1       1.080   3.487  19.668  0.00  0.00    +0.000 C 
BRANCH  28  30
ATOM     29  C   UNL     1       2.242   2.932  17.489  0.00  0.00    +0.000 C 
ATOM     30  C   UNL     1       1.202   2.499  18.511  0.00  0.00    +0.000 C 
ENDBRANCH  28  30
ENDBRANCH  25  28
ENDBRANCH  23  25
ENDBRANCH  17  23
ENDBRANCH   1  21
TORSDOF 8
ENDMDL
MODEL 8
REMARK VINA RESULT:      -6.8      3.774      6.302
REMARK  Name = 
REMARK  11 active torsions:
REMARK  status: ('A' for Active; 'I' for Inactive)
REMARK    1  A    between atoms: C_1  and  C_2
REMARK    2  A    between atoms: C_2  and  C_3
REMARK    3  A    between atoms: C_3  and  S_4
REMARK    4  A    between atoms: S_4  and  N_7
REMARK    5  A    between atoms: N_7  and  C_8
REMARK    6  A    between atoms: C_12  and  N_13
REMARK    7  A    between atoms: N_13  and  C_14
REMARK    8  A    between atoms: C_20  and  O_21
REMARK    9  A    between atoms: O_21  and  C_22
REMARK   10  A    between atoms: C_23  and  O_24
REMARK   11  A    between atoms: O_24  and  C_25
REMARK                            x       y       z     vdW  Elec       q    Type
REMARK                         _______ _______ _______ _____ _____    ______ ____
ROOT
ATOM      1  N   UNL     1       1.698   8.609  18.836  0.00  0.00    +0.000 N 
ATOM      2  H   UNL     1       0.885   8.138  19.234  0.00  0.00    +0.000 HD
ENDROOT
BRANCH   1   3
ATOM      3  C   UNL     1       1.160   9.717  17.999  0.00  0.00    +0.000 A 
ATOM      4  N   UNL     1       2.111  10.590  17.667  0.00  0.00    +0.000 NA
ATOM      5  C   UNL     1       2.156  11.634  18.483  0.00  0.00    +0.000 A 
ATOM      6  N   UNL     1       1.207  11.963  19.365  0.00  0.00    +0.000 NA
ATOM      7  C   UNL     1       0.034  11.361  19.195  0.00  0.00    +0.000 A 
ATOM      8  C   UNL     1      -1.039  12.003  19.781  0.00  0.00    +0.000 A 
ATOM      9  C   UNL     1      -2.365  11.889  19.349  0.00  0.00    +0.000 A 
ATOM     10  C   UNL     1      -2.605  11.067  18.250  0.00  0.00    +0.000 A 
ATOM     11  C   UNL     1      -1.517  10.231  17.789  0.00  0.00    +0.000 A 
ATOM     12  C   UNL     1      -0.141  10.286  18.341  0.00  0.00    +0.000 A 
BRANCH   9  13
ATOM     13  O   UNL     1      -3.375  12.604  19.929  0.00  0.00    +0.000 OA
ATOM     14  C   UNL     1      -3.045  13.455  21.028  0.00  0.00    +0.000 C 
ENDBRANCH   9  13
BRANCH  10  15
ATOM     15  O   UNL     1      -3.767  11.022  17.508  0.00  0.00    +0.000 OA
ATOM     16  C   UNL     1      -5.053  10.782  18.111  0.00  0.00    +0.000 C 
ENDBRANCH  10  15
ENDBRANCH   1   3
BRANCH   1  21
ATOM     17  C   UNL     1       3.454   5.212  18.652  0.00  0.00    +0.000 A 
ATOM     18  C   UNL     1       4.413   5.420  17.666  0.00  0.00    +0.000 A 
ATOM     19  C   UNL     1       4.509   6.675  17.078  0.00  0.00    +0.000 A 
ATOM     20  C   UNL     1       3.640   7.723  17.459  0.00  0.00    +0.000 A 
ATOM     21  C   UNL     1       2.659   7.564  18.457  0.00  0.00    +0.000 A 
ATOM     22  C   UNL     1       2.575   6.265  19.029  0.00  0.00    +0.000 A 
BRANCH  17  23
ATOM     23  N   UNL     1       3.341   3.888  19.223  0.00  0.00    +0.000 N 
ATOM     24  H   UNL     1       4.258   3.442  19.341  0.00  0.00    +0.000 HD
BRANCH  23  25
ATOM     25  S   UNL     1       2.405   2.767  18.331  0.00  0.00    +0.000 S 
ATOM     26  O   UNL     1       3.085   1.501  18.466  0.00  0.00    +0.000 OA
ATOM     27  O   UNL     1       2.078   3.319  17.041  0.00  0.00    +0.000 OA
BRANCH  25  28
ATOM     28  C   UNL     1       0.912   2.703  19.321  0.00  0.00    +0.000 C 
BRANCH  28  30
ATOM     29  C   UNL     1       1.527   2.517  21.769  0.00  0.00    +0.000 C 
ATOM     30  C   UNL     1       1.098   3.444  20.642  0.00  0.00    +0.000 C 
ENDBRANCH  28  30
ENDBRANCH  25  28
ENDBRANCH  23  25
ENDBRANCH  17  23
ENDBRANCH   1  21
TORSDOF 8
ENDMDL
MODEL 9
REMARK VINA RESULT:      -6.8      4.063      6.533
REMARK  Name = 
REMARK  11 active torsions:
REMARK  status: ('A' for Active; 'I' for Inactive)
REMARK    1  A    between atoms: C_1  and  C_2
REMARK    2  A    between atoms: C_2  and  C_3
REMARK    3  A    between atoms: C_3  and  S_4
REMARK    4  A    between atoms: S_4  and  N_7
REMARK    5  A    between atoms: N_7  and  C_8
REMARK    6  A    between atoms: C_12  and  N_13
REMARK    7  A    between atoms: N_13  and  C_14
REMARK    8  A    between atoms: C_20  and  O_21
REMARK    9  A    between atoms: O_21  and  C_22
REMARK   10  A    between atoms: C_23  and  O_24
REMARK   11  A    between atoms: O_24  and  C_25
REMARK                            x       y       z     vdW  Elec       q    Type
REMARK                         _______ _______ _______ _____ _____    ______ ____
ROOT
ATOM      1  N   UNL     1       0.904   8.506  20.810  0.00  0.00    +0.000 N 
ATOM      2  H   UNL     1      -0.006   8.640  20.369  0.00  0.00    +0.000 HD
ENDROOT
BRANCH   1   3
ATOM      3  C   UNL     1       1.142   9.719  21.640  0.00  0.00    +0.000 A 
ATOM      4  N   UNL     1       1.159   9.429  22.941  0.00  0.00    +0.000 NA
ATOM      5  C   UNL     1      -0.015   9.629  23.525  0.00  0.00    +0.000 A 
ATOM      6  N   UNL     1      -1.036  10.307  22.992  0.00  0.00    +0.000 NA
ATOM      7  C   UNL     1      -0.734  11.058  21.936  0.00  0.00    +0.000 A 
ATOM      8  C   UNL     1      -1.632  12.073  21.671  0.00  0.00    +0.000 A 
ATOM      9  C   UNL     1      -1.315  13.256  20.994  0.00  0.00    +0.000 A 
ATOM     10  C   UNL     1       0.001  13.407  20.564  0.00  0.00    +0.000 A 
ATOM     11  C   UNL     1       0.870  12.252  20.648  0.00  0.00    +0.000 A 
ATOM     12  C   UNL     1       0.474  10.964  21.268  0.00  0.00    +0.000 A 
BRANCH   9  13
ATOM     13  O   UNL     1      -2.233  14.254  20.821  0.00  0.00    +0.000 OA
ATOM     14  C   UNL     1      -2.933  14.725  21.974  0.00  0.00    +0.000 C 
ENDBRANCH   9  13
BRANCH  10  15
ATOM     15  O   UNL     1       0.584  14.579  20.126  0.00  0.00    +0.000 OA
ATOM     16  C   UNL     1       1.321  14.654  18.891  0.00  0.00    +0.000 C 
ENDBRANCH  10  15
ENDBRANCH   1   3
BRANCH   1  21
ATOM     17  C   UNL     1       2.980   5.907  18.912  0.00  0.00    +0.000 A 
ATOM     18  C   UNL     1       3.397   6.615  17.790  0.00  0.00    +0.000 A 
ATOM     19  C   UNL     1       3.027   7.947  17.661  0.00  0.00    +0.000 A 
ATOM     20  C   UNL     1       2.227   8.576  18.642  0.00  0.00    +0.000 A 
ATOM     21  C   UNL     1       1.787   7.905  19.799  0.00  0.00    +0.000 A 
ATOM     22  C   UNL     1       2.169   6.539  19.896  0.00  0.00    +0.000 A 
BRANCH  17  23
ATOM     23  N   UNL     1       3.340   4.510  19.009  0.00  0.00    +0.000 N 
ATOM     24  H   UNL     1       4.320   4.348  18.754  0.00  0.00    +0.000 HD
BRANCH  23  25
ATOM     25  S   UNL     1       2.435   3.436  18.031  0.00  0.00    +0.000 S 
ATOM     26  O   UNL     1       3.403   2.757  17.203  0.00  0.00    +0.000 OA
ATOM     27  O   UNL     1       1.302   4.124  17.467  0.00  0.00    +0.000 OA
BRANCH  25  28
ATOM     28  C   UNL     1       1.843   2.272  19.259  0.00  0.00    +0.000 C 
BRANCH  28  30
ATOM     29  C   UNL     1       1.664   2.831  21.721  0.00  0.00    +0.000 C 
ATOM     30  C   UNL     1       1.037   2.981  20.343  0.00  0.00    +0.000 C 
ENDBRANCH  28  30
ENDBRANCH  25  28
ENDBRANCH  23  25
ENDBRANCH  17  23
ENDBRANCH   1  21
TORSDOF 8
ENDMDL
