MODEL 1
REMARK VINA RESULT:      -7.7      0.000      0.000
REMARK  Name = 
REMARK  4 active torsions:
REMARK  status: ('A' for Active; 'I' for Inactive)
REMARK    1  A    between atoms: C_2  and  C_3
REMARK    2  A    between atoms: C_2  and  C_4
REMARK    3  A    between atoms: C_11  and  O_12
REMARK    4  A    between atoms: N_21  and  C_22
REMARK                            x       y       z     vdW  Elec       q    Type
REMARK                         _______ _______ _______ _____ _____    ______ ____
ROOT
ATOM      1  C   UNL     1       5.877   4.061  14.078  0.00  0.00    +0.000 C 
ATOM      2  C   UNL     1       6.941   4.848  14.824  0.00  0.00    +0.000 C 
ATOM      3  C   UNL     1       6.112   4.916  16.049  0.00  0.00    +0.000 A 
ATOM      4  C   UNL     1       5.451   3.705  16.206  0.00  0.00    +0.000 A 
ATOM      5  C   UNL     1       4.558   3.473  17.250  0.00  0.00    +0.000 A 
ATOM      6  C   UNL     1       4.150   4.584  18.023  0.00  0.00    +0.000 A 
ATOM      7  C   UNL     1       4.566   5.860  17.570  0.00  0.00    +0.000 A 
ATOM      8  C   UNL     1       5.594   6.033  16.642  0.00  0.00    +0.000 A 
ATOM      9  C   UNL     1       3.756   7.030  17.940  0.00  0.00    +0.000 A 
ATOM     10  O   UNL     1       3.907   8.089  17.332  0.00  0.00    +0.000 OA
ATOM     11  C   UNL     1       2.760   6.901  19.002  0.00  0.00    +0.000 A 
ATOM     12  C   UNL     1       2.027   8.047  19.349  0.00  0.00    +0.000 A 
ATOM     13  C   UNL     1       1.170   8.007  20.431  0.00  0.00    +0.000 A 
ATOM     14  C   UNL     1       1.059   6.827  21.161  0.00  0.00    +0.000 A 
ATOM     15  C   UNL     1       1.757   5.669  20.768  0.00  0.00    +0.000 A 
ATOM     16  C   UNL     1       2.610   5.659  19.655  0.00  0.00    +0.000 A 
ATOM     17  N   UNL     1       3.250   4.507  19.129  0.00  0.00    +0.000 N 
ATOM     18  C   UNL     1       3.420   3.319  19.967  0.00  0.00    +0.000 C 
ATOM     19  O   UNL     1       5.545   2.962  15.013  0.00  0.00    +0.000 OA
ENDROOT
BRANCH   1  21
ATOM     20  C   UNL     1       5.657   2.854  11.861  0.00  0.00    +0.000 C 
ATOM     21  C   UNL     1       6.267   3.744  12.657  0.00  0.00    +0.000 C 
ATOM     22  C   UNL     1       7.403   4.607  12.142  0.00  0.00    +0.000 C 
ENDBRANCH   1  21
BRANCH   8  23
ATOM     23  O   UNL     1       5.969   7.241  16.128  0.00  0.00    +0.000 OA
ATOM     24  H   UNL     1       6.917   7.163  15.870  0.00  0.00    +0.000 HD
ENDBRANCH   8  23
TORSDOF 2
ENDMDL
MODEL 2
REMARK VINA RESULT:      -7.6      3.292      7.335
REMARK  Name = 
REMARK  4 active torsions:
REMARK  status: ('A' for Active; 'I' for Inactive)
REMARK    1  A    between atoms: C_2  and  C_3
REMARK    2  A    between atoms: C_2  and  C_4
REMARK    3  A    between atoms: C_11  and  O_12
REMARK    4  A    between atoms: N_21  and  C_22
REMARK                            x       y       z     vdW  Elec       q    Type
REMARK                         _______ _______ _______ _____ _____    ______ ____
ROOT
ATOM      1  C   UNL     1      -0.050  10.167  19.124  0.00  0.00    +0.000 C 
ATOM      2  C   UNL     1       0.796  10.099  20.385  0.00  0.00    +0.000 C 
ATOM      3  C   UNL     1       1.605   8.981  19.849  0.00  0.00    +0.000 A 
ATOM      4  C   UNL     1       1.819   9.196  18.495  0.00  0.00    +0.000 A 
ATOM      5  C   UNL     1       2.516   8.291  17.697  0.00  0.00    +0.000 A 
ATOM      6  C   UNL     1       2.802   7.019  18.245  0.00  0.00    +0.000 A 
ATOM      7  C   UNL     1       2.220   6.723  19.501  0.00  0.00    +0.000 A 
ATOM      8  C   UNL     1       1.689   7.707  20.337  0.00  0.00    +0.000 A 
ATOM      9  C   UNL     1       1.988   5.314  19.847  0.00  0.00    +0.000 A 
ATOM     10  O   UNL     1       1.227   5.034  20.773  0.00  0.00    +0.000 OA
ATOM     11  C   UNL     1       2.640   4.269  19.061  0.00  0.00    +0.000 A 
ATOM     12  C   UNL     1       2.420   2.935  19.440  0.00  0.00    +0.000 A 
ATOM     13  C   UNL     1       3.116   1.923  18.811  0.00  0.00    +0.000 A 
ATOM     14  C   UNL     1       4.031   2.252  17.814  0.00  0.00    +0.000 A 
ATOM     15  C   UNL     1       4.201   3.588  17.404  0.00  0.00    +0.000 A 
ATOM     16  C   UNL     1       3.487   4.640  17.995  0.00  0.00    +0.000 A 
ATOM     17  N   UNL     1       3.515   5.990  17.557  0.00  0.00    +0.000 N 
ATOM     18  C   UNL     1       4.626   6.468  16.734  0.00  0.00    +0.000 C 
ATOM     19  O   UNL     1       0.954  10.210  18.039  0.00  0.00    +0.000 OA
ENDROOT
BRANCH   1  21
ATOM     20  C   UNL     1      -1.405  11.980  20.263  0.00  0.00    +0.000 C 
ATOM     21  C   UNL     1      -1.126  11.220  19.194  0.00  0.00    +0.000 C 
ATOM     22  C   UNL     1      -1.851  11.424  17.877  0.00  0.00    +0.000 C 
ENDBRANCH   1  21
BRANCH   8  23
ATOM     23  O   UNL     1       1.053   7.450  21.518  0.00  0.00    +0.000 OA
ATOM     24  H   UNL     1       1.482   6.653  21.908  0.00  0.00    +0.000 HD
ENDBRANCH   8  23
TORSDOF 2
ENDMDL
MODEL 3
REMARK VINA RESULT:      -7.4      3.507      6.132
REMARK  Name = 
REMARK  4 active torsions:
REMARK  status: ('A' for Active; 'I' for Inactive)
REMARK    1  A    between atoms: C_2  and  C_3
REMARK    2  A    between atoms: C_2  and  C_4
REMARK    3  A    between atoms: C_11  and  O_12
REMARK    4  A    between atoms: N_21  and  C_22
REMARK                            x       y       z     vdW  Elec       q    Type
REMARK                         _______ _______ _______ _____ _____    ______ ____
ROOT
ATOM      1  C   UNL     1       2.205   5.534  18.547  0.00  0.00    +0.000 C 
ATOM      2  C   UNL     1       3.182   6.647  18.210  0.00  0.00    +0.000 C 
ATOM      3  C   UNL     1       2.463   7.615  19.069  0.00  0.00    +0.000 A 
ATOM      4  C   UNL     1       2.032   6.958  20.213  0.00  0.00    +0.000 A 
ATOM      5  C   UNL     1       1.284   7.595  21.202  0.00  0.00    +0.000 A 
ATOM      6  C   UNL     1       0.764   8.876  20.907  0.00  0.00    +0.000 A 
ATOM      7  C   UNL     1       0.920   9.334  19.577  0.00  0.00    +0.000 A 
ATOM      8  C   UNL     1       1.820   8.755  18.680  0.00  0.00    +0.000 A 
ATOM      9  C   UNL     1      -0.040  10.322  19.062  0.00  0.00    +0.000 A 
ATOM     10  O   UNL     1      -0.123  10.513  17.850  0.00  0.00    +0.000 OA
ATOM     11  C   UNL     1      -0.904  11.033  20.002  0.00  0.00    +0.000 A 
ATOM     12  C   UNL     1      -1.786  11.991  19.478  0.00  0.00    +0.000 A 
ATOM     13  C   UNL     1      -2.527  12.779  20.336  0.00  0.00    +0.000 A 
ATOM     14  C   UNL     1      -2.374  12.609  21.710  0.00  0.00    +0.000 A 
ATOM     15  C   UNL     1      -1.528  11.606  22.221  0.00  0.00    +0.000 A 
ATOM     16  C   UNL     1      -0.787  10.763  21.382  0.00  0.00    +0.000 A 
ATOM     17  N   UNL     1      -0.011   9.658  21.818  0.00  0.00    +0.000 N 
ATOM     18  C   UNL     1       0.429   9.578  23.212  0.00  0.00    +0.000 C 
ATOM     19  O   UNL     1       2.145   5.566  20.025  0.00  0.00    +0.000 OA
ENDROOT
BRANCH   1  21
ATOM     20  C   UNL     1       3.590   4.016  17.065  0.00  0.00    +0.000 C 
ATOM     21  C   UNL     1       2.517   4.241  17.837  0.00  0.00    +0.000 C 
ATOM     22  C   UNL     1       1.524   3.136  18.139  0.00  0.00    +0.000 C 
ENDBRANCH   1  21
BRANCH   8  23
ATOM     23  O   UNL     1       1.940   9.121  17.370  0.00  0.00    +0.000 OA
ATOM     24  H   UNL     1       2.175   8.309  16.864  0.00  0.00    +0.000 HD
ENDBRANCH   8  23
TORSDOF 2
ENDMDL
MODEL 4
REMARK VINA RESULT:      -7.3      2.828      7.873
REMARK  Name = 
REMARK  4 active torsions:
REMARK  status: ('A' for Active; 'I' for Inactive)
REMARK    1  A    between atoms: C_2  and  C_3
REMARK    2  A    between atoms: C_2  and  C_4
REMARK    3  A    between atoms: C_11  and  O_12
REMARK    4  A    between atoms: N_21  and  C_22
REMARK                            x       y       z     vdW  Elec       q    Type
REMARK                         _______ _______ _______ _____ _____    ______ ____
ROOT
ATOM      1  C   UNL     1       0.750  11.429  20.947  0.00  0.00    +0.000 C 
ATOM      2  C   UNL     1      -0.165  11.061  19.791  0.00  0.00    +0.000 C 
ATOM      3  C   UNL     1       0.458   9.726  19.649  0.00  0.00    +0.000 A 
ATOM      4  C   UNL     1       0.741   9.231  20.915  0.00  0.00    +0.000 A 
ATOM      5  C   UNL     1       1.373   8.004  21.111  0.00  0.00    +0.000 A 
ATOM      6  C   UNL     1       1.940   7.371  19.982  0.00  0.00    +0.000 A 
ATOM      7  C   UNL     1       1.952   8.113  18.776  0.00  0.00    +0.000 A 
ATOM      8  C   UNL     1       1.158   9.244  18.579  0.00  0.00    +0.000 A 
ATOM      9  C   UNL     1       2.979   7.798  17.773  0.00  0.00    +0.000 A 
ATOM     10  O   UNL     1       3.209   8.599  16.867  0.00  0.00    +0.000 OA
ATOM     11  C   UNL     1       3.733   6.551  17.891  0.00  0.00    +0.000 A 
ATOM     12  C   UNL     1       4.684   6.269  16.897  0.00  0.00    +0.000 A 
ATOM     13  C   UNL     1       5.327   5.048  16.895  0.00  0.00    +0.000 A 
ATOM     14  C   UNL     1       5.008   4.116  17.879  0.00  0.00    +0.000 A 
ATOM     15  C   UNL     1       4.094   4.433  18.902  0.00  0.00    +0.000 A 
ATOM     16  C   UNL     1       3.447   5.675  18.959  0.00  0.00    +0.000 A 
ATOM     17  N   UNL     1       2.611   6.109  20.020  0.00  0.00    +0.000 N 
ATOM     18  C   UNL     1       2.006   5.129  20.923  0.00  0.00    +0.000 C 
ATOM     19  O   UNL     1       0.633  10.270  21.859  0.00  0.00    +0.000 OA
ENDROOT
BRANCH   1  21
ATOM     20  C   UNL     1       1.174  13.923  21.091  0.00  0.00    +0.000 C 
ATOM     21  C   UNL     1       0.508  12.822  21.469  0.00  0.00    +0.000 C 
ATOM     22  C   UNL     1      -0.654  12.905  22.440  0.00  0.00    +0.000 C 
ENDBRANCH   1  21
BRANCH   8  23
ATOM     23  O   UNL     1       1.201  10.026  17.460  0.00  0.00    +0.000 OA
ATOM     24  H   UNL     1       1.927  10.680  17.593  0.00  0.00    +0.000 HD
ENDBRANCH   8  23
TORSDOF 2
ENDMDL
MODEL 5
REMARK VINA RESULT:      -7.3      3.747      5.781
REMARK  Name = 
REMARK  4 active torsions:
REMARK  status: ('A' for Active; 'I' for Inactive)
REMARK    1  A    between atoms: C_2  and  C_3
REMARK    2  A    between atoms: C_2  and  C_4
REMARK    3  A    between atoms: C_11  and  O_12
REMARK    4  A    between atoms: N_21  and  C_22
REMARK                            x       y       z     vdW  Elec       q    Type
REMARK                         _______ _______ _______ _____ _____    ______ ____
ROOT
ATOM      1  C   UNL     1       1.837   4.444  18.867  0.00  0.00    +0.000 C 
ATOM      2  C   UNL     1       3.198   5.110  18.747  0.00  0.00    +0.000 C 
ATOM      3  C   UNL     1       2.705   6.358  19.371  0.00  0.00    +0.000 A 
ATOM      4  C   UNL     1       1.826   6.026  20.393  0.00  0.00    +0.000 A 
ATOM      5  C   UNL     1       1.160   6.992  21.146  0.00  0.00    +0.000 A 
ATOM      6  C   UNL     1       1.214   8.329  20.692  0.00  0.00    +0.000 A 
ATOM      7  C   UNL     1       1.812   8.548  19.428  0.00  0.00    +0.000 A 
ATOM      8  C   UNL     1       2.617   7.596  18.800  0.00  0.00    +0.000 A 
ATOM      9  C   UNL     1       1.410   9.736  18.661  0.00  0.00    +0.000 A 
ATOM     10  O   UNL     1       1.670   9.801  17.461  0.00  0.00    +0.000 OA
ATOM     11  C   UNL     1       0.676  10.805  19.336  0.00  0.00    +0.000 A 
ATOM     12  C   UNL     1       0.336  11.938  18.581  0.00  0.00    +0.000 A 
ATOM     13  C   UNL     1      -0.241  13.026  19.204  0.00  0.00    +0.000 A 
ATOM     14  C   UNL     1      -0.466  12.976  20.578  0.00  0.00    +0.000 A 
ATOM     15  C   UNL     1      -0.172  11.813  21.313  0.00  0.00    +0.000 A 
ATOM     16  C   UNL     1       0.382  10.675  20.710  0.00  0.00    +0.000 A 
ATOM     17  N   UNL     1       0.593   9.430  21.359  0.00  0.00    +0.000 N 
ATOM     18  C   UNL     1       0.657   9.369  22.820  0.00  0.00    +0.000 C 
ATOM     19  O   UNL     1       1.470   4.668  20.283  0.00  0.00    +0.000 OA
ENDROOT
BRANCH   1  21
ATOM     20  C   UNL     1       2.716   2.537  17.450  0.00  0.00    +0.000 C 
ATOM     21  C   UNL     1       1.811   3.049  18.297  0.00  0.00    +0.000 C 
ATOM     22  C   UNL     1       0.679   2.200  18.841  0.00  0.00    +0.000 C 
ENDBRANCH   1  21
BRANCH   8  23
ATOM     23  O   UNL     1       3.145   7.742  17.549  0.00  0.00    +0.000 OA
ATOM     24  H   UNL     1       3.668   6.928  17.360  0.00  0.00    +0.000 HD
ENDBRANCH   8  23
TORSDOF 2
ENDMDL
MODEL 6
REMARK VINA RESULT:      -6.9      2.346      4.360
REMARK  Name = 
REMARK  4 active torsions:
REMARK  status: ('A' for Active; 'I' for Inactive)
REMARK    1  A    between atoms: C_2  and  C_3
REMARK    2  A    between atoms: C_2  and  C_4
REMARK    3  A    between atoms: C_11  and  O_12
REMARK    4  A    between atoms: N_21  and  C_22
REMARK                            x       y       z     vdW  Elec       q    Type
REMARK                         _______ _______ _______ _____ _____    ______ ____
ROOT
ATOM      1  C   UNL     1       5.625   5.565  17.308  0.00  0.00    +0.000 C 
ATOM      2  C   UNL     1       4.398   4.686  17.132  0.00  0.00    +0.000 C 
ATOM      3  C   UNL     1       3.493   5.759  17.602  0.00  0.00    +0.000 A 
ATOM      4  C   UNL     1       3.948   6.973  17.107  0.00  0.00    +0.000 A 
ATOM      5  C   UNL     1       3.327   8.182  17.412  0.00  0.00    +0.000 A 
ATOM      6  C   UNL     1       2.352   8.179  18.436  0.00  0.00    +0.000 A 
ATOM      7  C   UNL     1       2.204   6.976  19.168  0.00  0.00    +0.000 A 
ATOM      8  C   UNL     1       2.707   5.753  18.719  0.00  0.00    +0.000 A 
ATOM      9  C   UNL     1       1.679   7.054  20.539  0.00  0.00    +0.000 A 
ATOM     10  O   UNL     1       1.816   6.094  21.297  0.00  0.00    +0.000 OA
ATOM     11  C   UNL     1       1.032   8.286  20.986  0.00  0.00    +0.000 A 
ATOM     12  C   UNL     1       0.514   8.312  22.290  0.00  0.00    +0.000 A 
ATOM     13  C   UNL     1      -0.218   9.404  22.712  0.00  0.00    +0.000 A 
ATOM     14  C   UNL     1      -0.434  10.455  21.824  0.00  0.00    +0.000 A 
ATOM     15  C   UNL     1       0.138  10.441  20.538  0.00  0.00    +0.000 A 
ATOM     16  C   UNL     1       0.917   9.366  20.086  0.00  0.00    +0.000 A 
ATOM     17  N   UNL     1       1.622   9.334  18.855  0.00  0.00    +0.000 N 
ATOM     18  C   UNL     1       1.238  10.235  17.767  0.00  0.00    +0.000 C 
ATOM     19  O   UNL     1       5.255   6.814  16.606  0.00  0.00    +0.000 OA
ENDROOT
BRANCH   1  21
ATOM     20  C   UNL     1       7.864   4.498  17.828  0.00  0.00    +0.000 C 
ATOM     21  C   UNL     1       6.910   4.860  16.957  0.00  0.00    +0.000 C 
ATOM     22  C   UNL     1       7.013   4.498  15.488  0.00  0.00    +0.000 C 
ENDBRANCH   1  21
BRANCH   8  23
ATOM     23  O   UNL     1       2.649   4.591  19.434  0.00  0.00    +0.000 OA
ATOM     24  H   UNL     1       2.078   4.763  20.219  0.00  0.00    +0.000 HD
ENDBRANCH   8  23
TORSDOF 2
ENDMDL
MODEL 7
REMARK VINA RESULT:      -6.8      3.007      5.510
REMARK  Name = 
REMARK  4 active torsions:
REMARK  status: ('A' for Active; 'I' for Inactive)
REMARK    1  A    between atoms: C_2  and  C_3
REMARK    2  A    between atoms: C_2  and  C_4
REMARK    3  A    between atoms: C_11  and  O_12
REMARK    4  A    between atoms: N_21  and  C_22
REMARK                            x       y       z     vdW  Elec       q    Type
REMARK                         _______ _______ _______ _____ _____    ______ ____
ROOT
ATOM      1  C   UNL     1       4.830   6.679  17.993  0.00  0.00    +0.000 C 
ATOM      2  C   UNL     1       3.808   5.619  18.368  0.00  0.00    +0.000 C 
ATOM      3  C   UNL     1       2.762   6.636  18.620  0.00  0.00    +0.000 A 
ATOM      4  C   UNL     1       2.879   7.638  17.666  0.00  0.00    +0.000 A 
ATOM      5  C   UNL     1       2.058   8.764  17.663  0.00  0.00    +0.000 A 
ATOM      6  C   UNL     1       1.248   8.987  18.799  0.00  0.00    +0.000 A 
ATOM      7  C   UNL     1       1.456   8.130  19.907  0.00  0.00    +0.000 A 
ATOM      8  C   UNL     1       2.147   6.922  19.805  0.00  0.00    +0.000 A 
ATOM      9  C   UNL     1       1.108   8.625  21.247  0.00  0.00    +0.000 A 
ATOM     10  O   UNL     1       1.545   8.045  22.240  0.00  0.00    +0.000 OA
ATOM     11  C   UNL     1       0.276   9.820  21.372  0.00  0.00    +0.000 A 
ATOM     12  C   UNL     1      -0.062  10.245  22.667  0.00  0.00    +0.000 A 
ATOM     13  C   UNL     1      -0.950  11.288  22.833  0.00  0.00    +0.000 A 
ATOM     14  C   UNL     1      -1.499  11.893  21.705  0.00  0.00    +0.000 A 
ATOM     15  C   UNL     1      -1.108  11.495  20.413  0.00  0.00    +0.000 A 
ATOM     16  C   UNL     1      -0.183  10.463  20.203  0.00  0.00    +0.000 A 
ATOM     17  N   UNL     1       0.348  10.088  18.941  0.00  0.00    +0.000 N 
ATOM     18  C   UNL     1      -0.358  10.456  17.713  0.00  0.00    +0.000 C 
ATOM     19  O   UNL     1       4.114   7.509  17.000  0.00  0.00    +0.000 OA
ENDROOT
BRANCH   1  21
ATOM     20  C   UNL     1       7.356   6.726  17.802  0.00  0.00    +0.000 C 
ATOM     21  C   UNL     1       6.180   6.100  17.653  0.00  0.00    +0.000 C 
ATOM     22  C   UNL     1       6.113   4.659  17.185  0.00  0.00    +0.000 C 
ENDBRANCH   1  21
BRANCH   8  23
ATOM     23  O   UNL     1       2.432   6.109  20.866  0.00  0.00    +0.000 OA
ATOM     24  H   UNL     1       3.239   6.474  21.299  0.00  0.00    +0.000 HD
ENDBRANCH   8  23
TORSDOF 2
ENDMDL
MODEL 8
REMARK VINA RESULT:      -6.6      4.956     10.263
REMARK  Name = 
REMARK  4 active torsions:
REMARK  status: ('A' for Active; 'I' for Inactive)
REMARK    1  A    between atoms: C_2  and  C_3
REMARK    2  A    between atoms: C_2  and  C_4
REMARK    3  A    between atoms: C_11  and  O_12
REMARK    4  A    between atoms: N_21  and  C_22
REMARK                            x       y       z     vdW  Elec       q    Type
REMARK                         _______ _______ _______ _____ _____    ______ ____
ROOT
ATOM      1  C   UNL     1      -2.711  12.327  22.169  0.00  0.00    +0.000 C 
ATOM      2  C   UNL     1      -1.536  12.432  23.127  0.00  0.00    +0.000 C 
ATOM      3  C   UNL     1      -0.610  11.819  22.148  0.00  0.00    +0.000 A 
ATOM      4  C   UNL     1      -0.929  12.289  20.881  0.00  0.00    +0.000 A 
ATOM      5  C   UNL     1      -0.259  11.860  19.737  0.00  0.00    +0.000 A 
ATOM      6  C   UNL     1       0.606  10.749  19.861  0.00  0.00    +0.000 A 
ATOM      7  C   UNL     1       0.597  10.073  21.105  0.00  0.00    +0.000 A 
ATOM      8  C   UNL     1       0.058  10.634  22.264  0.00  0.00    +0.000 A 
ATOM      9  C   UNL     1       0.987   8.656  21.131  0.00  0.00    +0.000 A 
ATOM     10  O   UNL     1       0.708   7.968  22.113  0.00  0.00    +0.000 OA
ATOM     11  C   UNL     1       1.669   8.082  19.973  0.00  0.00    +0.000 A 
ATOM     12  C   UNL     1       2.055   6.734  20.047  0.00  0.00    +0.000 A 
ATOM     13  C   UNL     1       2.815   6.185  19.034  0.00  0.00    +0.000 A 
ATOM     14  C   UNL     1       3.190   6.989  17.960  0.00  0.00    +0.000 A 
ATOM     15  C   UNL     1       2.750   8.324  17.871  0.00  0.00    +0.000 A 
ATOM     16  C   UNL     1       1.947   8.907  18.863  0.00  0.00    +0.000 A 
ATOM     17  N   UNL     1       1.368  10.200  18.785  0.00  0.00    +0.000 N 
ATOM     18  C   UNL     1       1.920  11.194  17.864  0.00  0.00    +0.000 C 
ATOM     19  O   UNL     1      -2.187  12.921  20.919  0.00  0.00    +0.000 OA
ENDROOT
BRANCH   1  21
ATOM     20  C   UNL     1      -5.163  12.961  22.104  0.00  0.00    +0.000 C 
ATOM     21  C   UNL     1      -4.000  12.838  22.760  0.00  0.00    +0.000 C 
ATOM     22  C   UNL     1      -3.901  13.140  24.243  0.00  0.00    +0.000 C 
ENDBRANCH   1  21
BRANCH   8  23
ATOM     23  O   UNL     1      -0.036   9.981  23.460  0.00  0.00    +0.000 OA
ATOM     24  H   UNL     1       0.284  10.604  24.154  0.00  0.00    +0.000 HD
ENDBRANCH   8  23
TORSDOF 2
ENDMDL
MODEL 9
REMARK VINA RESULT:      -6.4      6.503      9.825
REMARK  Name = 
REMARK  4 active torsions:
REMARK  status: ('A' for Active; 'I' for Inactive)
REMARK    1  A    between atoms: C_2  and  C_3
REMARK    2  A    between atoms: C_2  and  C_4
REMARK    3  A    between atoms: C_11  and  O_12
REMARK    4  A    between atoms: N_21  and  C_22
REMARK                            x       y       z     vdW  Elec       q    Type
REMARK                         _______ _______ _______ _____ _____    ______ ____
ROOT
ATOM      1  C   UNL     1       0.722   9.280  19.413  0.00  0.00    +0.000 C 
ATOM      2  C   UNL     1       0.819  10.143  18.166  0.00  0.00    +0.000 C 
ATOM      3  C   UNL     1      -0.347  10.959  18.572  0.00  0.00    +0.000 A 
ATOM      4  C   UNL     1      -0.296  11.155  19.945  0.00  0.00    +0.000 A 
ATOM      5  C   UNL     1      -1.284  11.853  20.636  0.00  0.00    +0.000 A 
ATOM      6  C   UNL     1      -2.476  12.163  19.941  0.00  0.00    +0.000 A 
ATOM      7  C   UNL     1      -2.623  11.600  18.650  0.00  0.00    +0.000 A 
ATOM      8  C   UNL     1      -1.550  11.067  17.933  0.00  0.00    +0.000 A 
ATOM      9  C   UNL     1      -3.982  11.391  18.131  0.00  0.00    +0.000 A 
ATOM     10  O   UNL     1      -4.156  10.645  17.168  0.00  0.00    +0.000 OA
ATOM     11  C   UNL     1      -5.107  12.047  18.793  0.00  0.00    +0.000 A 
ATOM     12  C   UNL     1      -6.387  11.849  18.250  0.00  0.00    +0.000 A 
ATOM     13  C   UNL     1      -7.461  12.551  18.761  0.00  0.00    +0.000 A 
ATOM     14  C   UNL     1      -7.246  13.449  19.803  0.00  0.00    +0.000 A 
ATOM     15  C   UNL     1      -5.968  13.596  20.375  0.00  0.00    +0.000 A 
ATOM     16  C   UNL     1      -4.860  12.876  19.907  0.00  0.00    +0.000 A 
ATOM     17  N   UNL     1      -3.574  12.881  20.508  0.00  0.00    +0.000 N 
ATOM     18  C   UNL     1      -3.186  13.976  21.398  0.00  0.00    +0.000 C 
ATOM     19  O   UNL     1       0.644  10.271  20.510  0.00  0.00    +0.000 OA
ENDROOT
BRANCH   1  21
ATOM     20  C   UNL     1       1.955   7.337  20.474  0.00  0.00    +0.000 C 
ATOM     21  C   UNL     1       1.764   8.191  19.458  0.00  0.00    +0.000 C 
ATOM     22  C   UNL     1       2.564   8.075  18.175  0.00  0.00    +0.000 C 
ENDBRANCH   1  21
BRANCH   8  23
ATOM     23  O   UNL     1      -1.669  10.449  16.721  0.00  0.00    +0.000 OA
ATOM     24  H   UNL     1      -2.247   9.662  16.854  0.00  0.00    +0.000 HD
ENDBRANCH   8  23
TORSDOF 2
ENDMDL
