MODEL 1
REMARK VINA RESULT:      -6.8      0.000      0.000
REMARK  Name = 
REMARK  5 active torsions:
REMARK  status: ('A' for Active; 'I' for Inactive)
REMARK    1  A    between atoms: C_1  and  C_2
REMARK    2  A    between atoms: C_5  and  N_6
REMARK    3  A    between atoms: C_7  and  C_9
REMARK    4  A    between atoms: C_9  and  N_10
REMARK    5  A    between atoms: C_16  and  N_17
REMARK                            x       y       z     vdW  Elec       q    Type
REMARK                         _______ _______ _______ _____ _____    ______ ____
ROOT
ATOM      1  N   UNL     1       6.177   4.547  18.169  0.00  0.00    +0.000 N 
ATOM      2  C   UNL     1       5.101   4.290  19.004  0.00  0.00    +0.000 C 
ATOM      3  O   UNL     1       4.593   5.121  19.760  0.00  0.00    +0.000 OA
ATOM      4  H   UNL     1       6.229   3.956  17.331  0.00  0.00    +0.000 HD
ENDROOT
BRANCH   1   9
ATOM      5  C   UNL     1       8.730   9.715  18.062  0.00  0.00    +0.000 C 
ATOM      6  C   UNL     1       8.099   8.352  18.076  0.00  0.00    +0.000 A 
ATOM      7  C   UNL     1       8.508   7.364  18.976  0.00  0.00    +0.000 A 
ATOM      8  C   UNL     1       7.868   6.111  19.009  0.00  0.00    +0.000 A 
ATOM      9  C   UNL     1       6.817   5.815  18.132  0.00  0.00    +0.000 A 
ATOM     10  C   UNL     1       6.435   6.813  17.225  0.00  0.00    +0.000 A 
ATOM     11  C   UNL     1       7.056   8.071  17.192  0.00  0.00    +0.000 A 
BRANCH  10  12
ATOM     12  N   UNL     1       5.271   6.621  16.385  0.00  0.00    +0.000 N 
ATOM     13  O   UNL     1       4.163   6.787  16.910  0.00  0.00    +0.000 OA
ATOM     14  O   UNL     1       5.472   6.309  15.203  0.00  0.00    +0.000 OA
ENDBRANCH  10  12
ENDBRANCH   1   9
BRANCH   2  15
ATOM     15  C   UNL     1       4.537   2.876  18.898  0.00  0.00    +0.000 C 
BRANCH  15  16
ATOM     16  N   UNL     1       3.132   2.835  19.279  0.00  0.00    +0.000 N 
ATOM     17  C   UNL     1       2.657   2.650  20.569  0.00  0.00    +0.000 A 
ATOM     18  C   UNL     1       1.322   2.571  20.677  0.00  0.00    +0.000 A 
ATOM     19  S   UNL     1       0.553   2.740  19.114  0.00  0.00    +0.000 S 
ATOM     20  C   UNL     1       2.137   2.928  18.339  0.00  0.00    +0.000 A 
ATOM     21  N   UNL     1       2.239   3.121  17.073  0.00  0.00    +0.000 NA
ATOM     22  H   UNL     1       1.279   3.128  16.700  0.00  0.00    +0.000 HD
ENDBRANCH  15  16
ENDBRANCH   2  15
TORSDOF 4
ENDMDL
MODEL 2
REMARK VINA RESULT:      -6.8      0.799      1.591
REMARK  Name = 
REMARK  5 active torsions:
REMARK  status: ('A' for Active; 'I' for Inactive)
REMARK    1  A    between atoms: C_1  and  C_2
REMARK    2  A    between atoms: C_5  and  N_6
REMARK    3  A    between atoms: C_7  and  C_9
REMARK    4  A    between atoms: C_9  and  N_10
REMARK    5  A    between atoms: C_16  and  N_17
REMARK                            x       y       z     vdW  Elec       q    Type
REMARK                         _______ _______ _______ _____ _____    ______ ____
ROOT
ATOM      1  N   UNL     1       6.141   4.247  18.479  0.00  0.00    +0.000 N 
ATOM      2  C   UNL     1       4.990   4.071  19.232  0.00  0.00    +0.000 C 
ATOM      3  O   UNL     1       4.386   4.983  19.801  0.00  0.00    +0.000 OA
ATOM      4  H   UNL     1       6.293   3.543  17.747  0.00  0.00    +0.000 HD
ENDROOT
BRANCH   1   9
ATOM      5  C   UNL     1       8.574   9.438  17.872  0.00  0.00    +0.000 C 
ATOM      6  C   UNL     1       7.974   8.069  18.016  0.00  0.00    +0.000 A 
ATOM      7  C   UNL     1       8.431   7.166  18.981  0.00  0.00    +0.000 A 
ATOM      8  C   UNL     1       7.820   5.908  19.136  0.00  0.00    +0.000 A 
ATOM      9  C   UNL     1       6.751   5.520  18.319  0.00  0.00    +0.000 A 
ATOM     10  C   UNL     1       6.321   6.432  17.345  0.00  0.00    +0.000 A 
ATOM     11  C   UNL     1       6.912   7.695  17.191  0.00  0.00    +0.000 A 
BRANCH  10  12
ATOM     12  N   UNL     1       5.137   6.149  16.561  0.00  0.00    +0.000 N 
ATOM     13  O   UNL     1       5.245   5.306  15.660  0.00  0.00    +0.000 OA
ATOM     14  O   UNL     1       4.106   6.770  16.850  0.00  0.00    +0.000 OA
ENDBRANCH  10  12
ENDBRANCH   1   9
BRANCH   2  15
ATOM     15  C   UNL     1       4.474   2.637  19.280  0.00  0.00    +0.000 C 
BRANCH  15  16
ATOM     16  N   UNL     1       3.020   2.599  19.367  0.00  0.00    +0.000 N 
ATOM     17  C   UNL     1       2.154   2.543  18.284  0.00  0.00    +0.000 A 
ATOM     18  C   UNL     1       0.851   2.592  18.597  0.00  0.00    +0.000 A 
ATOM     19  S   UNL     1       0.622   2.704  20.329  0.00  0.00    +0.000 S 
ATOM     20  C   UNL     1       2.378   2.672  20.577  0.00  0.00    +0.000 A 
ATOM     21  N   UNL     1       2.882   2.713  21.757  0.00  0.00    +0.000 NA
ATOM     22  H   UNL     1       2.091   2.767  22.413  0.00  0.00    +0.000 HD
ENDBRANCH  15  16
ENDBRANCH   2  15
TORSDOF 4
ENDMDL
MODEL 3
REMARK VINA RESULT:      -6.7      2.763      3.549
REMARK  Name = 
REMARK  5 active torsions:
REMARK  status: ('A' for Active; 'I' for Inactive)
REMARK    1  A    between atoms: C_1  and  C_2
REMARK    2  A    between atoms: C_5  and  N_6
REMARK    3  A    between atoms: C_7  and  C_9
REMARK    4  A    between atoms: C_9  and  N_10
REMARK    5  A    between atoms: C_16  and  N_17
REMARK                            x       y       z     vdW  Elec       q    Type
REMARK                         _______ _______ _______ _____ _____    ______ ____
ROOT
ATOM      1  N   UNL     1       5.454   3.535  17.444  0.00  0.00    +0.000 N 
ATOM      2  C   UNL     1       4.746   4.390  18.274  0.00  0.00    +0.000 C 
ATOM      3  O   UNL     1       4.475   5.560  17.999  0.00  0.00    +0.000 OA
ATOM      4  H   UNL     1       5.253   2.536  17.574  0.00  0.00    +0.000 HD
ENDROOT
BRANCH   1   9
ATOM      5  C   UNL     1       7.556   5.189  12.336  0.00  0.00    +0.000 C 
ATOM      6  C   UNL     1       6.975   4.779  13.659  0.00  0.00    +0.000 A 
ATOM      7  C   UNL     1       5.897   3.892  13.743  0.00  0.00    +0.000 A 
ATOM      8  C   UNL     1       5.401   3.479  14.993  0.00  0.00    +0.000 A 
ATOM      9  C   UNL     1       5.962   3.955  16.185  0.00  0.00    +0.000 A 
ATOM     10  C   UNL     1       7.030   4.857  16.078  0.00  0.00    +0.000 A 
ATOM     11  C   UNL     1       7.542   5.265  14.838  0.00  0.00    +0.000 A 
BRANCH  10  12
ATOM     12  N   UNL     1       7.741   5.281  17.266  0.00  0.00    +0.000 N 
ATOM     13  O   UNL     1       8.223   4.394  17.983  0.00  0.00    +0.000 OA
ATOM     14  O   UNL     1       7.815   6.499  17.476  0.00  0.00    +0.000 OA
ENDBRANCH  10  12
ENDBRANCH   1   9
BRANCH   2  15
ATOM     15  C   UNL     1       4.270   3.759  19.579  0.00  0.00    +0.000 C 
BRANCH  15  16
ATOM     16  N   UNL     1       2.844   3.464  19.536  0.00  0.00    +0.000 N 
ATOM     17  C   UNL     1       1.856   4.191  20.184  0.00  0.00    +0.000 A 
ATOM     18  C   UNL     1       0.616   3.694  20.067  0.00  0.00    +0.000 A 
ATOM     19  S   UNL     1       0.610   2.239  19.095  0.00  0.00    +0.000 S 
ATOM     20  C   UNL     1       2.364   2.367  18.867  0.00  0.00    +0.000 A 
ATOM     21  N   UNL     1       3.006   1.511  18.157  0.00  0.00    +0.000 NA
ATOM     22  H   UNL     1       2.310   0.831  17.817  0.00  0.00    +0.000 HD
ENDBRANCH  15  16
ENDBRANCH   2  15
TORSDOF 4
ENDMDL
MODEL 4
REMARK VINA RESULT:      -6.6      2.498      3.436
REMARK  Name = 
REMARK  5 active torsions:
REMARK  status: ('A' for Active; 'I' for Inactive)
REMARK    1  A    between atoms: C_1  and  C_2
REMARK    2  A    between atoms: C_5  and  N_6
REMARK    3  A    between atoms: C_7  and  C_9
REMARK    4  A    between atoms: C_9  and  N_10
REMARK    5  A    between atoms: C_16  and  N_17
REMARK                            x       y       z     vdW  Elec       q    Type
REMARK                         _______ _______ _______ _____ _____    ______ ____
ROOT
ATOM      1  N   UNL     1       4.651   4.865  18.046  0.00  0.00    +0.000 N 
ATOM      2  C   UNL     1       3.757   5.879  18.358  0.00  0.00    +0.000 C 
ATOM      3  O   UNL     1       3.497   6.829  17.617  0.00  0.00    +0.000 OA
ATOM      4  H   UNL     1       4.470   3.968  18.511  0.00  0.00    +0.000 HD
ENDROOT
BRANCH   1   9
ATOM      5  C   UNL     1       7.629   4.747  13.111  0.00  0.00    +0.000 C 
ATOM      6  C   UNL     1       6.829   4.806  14.381  0.00  0.00    +0.000 A 
ATOM      7  C   UNL     1       5.509   4.348  14.439  0.00  0.00    +0.000 A 
ATOM      8  C   UNL     1       4.795   4.363  15.651  0.00  0.00    +0.000 A 
ATOM      9  C   UNL     1       5.379   4.851  16.827  0.00  0.00    +0.000 A 
ATOM     10  C   UNL     1       6.697   5.322  16.743  0.00  0.00    +0.000 A 
ATOM     11  C   UNL     1       7.424   5.299  15.544  0.00  0.00    +0.000 A 
BRANCH  10  12
ATOM     12  N   UNL     1       7.404   5.713  17.945  0.00  0.00    +0.000 N 
ATOM     13  O   UNL     1       7.715   6.906  18.055  0.00  0.00    +0.000 OA
ATOM     14  O   UNL     1       7.642   4.824  18.774  0.00  0.00    +0.000 OA
ENDBRANCH  10  12
ENDBRANCH   1   9
BRANCH   2  15
ATOM     15  C   UNL     1       3.059   5.718  19.705  0.00  0.00    +0.000 C 
BRANCH  15  16
ATOM     16  N   UNL     1       2.341   4.454  19.783  0.00  0.00    +0.000 N 
ATOM     17  C   UNL     1       2.347   3.595  20.873  0.00  0.00    +0.000 A 
ATOM     18  C   UNL     1       1.674   2.448  20.695  0.00  0.00    +0.000 A 
ATOM     19  S   UNL     1       0.957   2.378  19.101  0.00  0.00    +0.000 S 
ATOM     20  C   UNL     1       1.619   3.979  18.718  0.00  0.00    +0.000 A 
ATOM     21  N   UNL     1       1.398   4.534  17.581  0.00  0.00    +0.000 NA
ATOM     22  H   UNL     1       0.819   3.876  17.041  0.00  0.00    +0.000 HD
ENDBRANCH  15  16
ENDBRANCH   2  15
TORSDOF 4
ENDMDL
MODEL 5
REMARK VINA RESULT:      -6.6      4.204      5.354
REMARK  Name = 
REMARK  5 active torsions:
REMARK  status: ('A' for Active; 'I' for Inactive)
REMARK    1  A    between atoms: C_1  and  C_2
REMARK    2  A    between atoms: C_5  and  N_6
REMARK    3  A    between atoms: C_7  and  C_9
REMARK    4  A    between atoms: C_9  and  N_10
REMARK    5  A    between atoms: C_16  and  N_17
REMARK                            x       y       z     vdW  Elec       q    Type
REMARK                         _______ _______ _______ _____ _____    ______ ____
ROOT
ATOM      1  N   UNL     1       4.080   6.283  18.392  0.00  0.00    +0.000 N 
ATOM      2  C   UNL     1       2.720   6.205  18.652  0.00  0.00    +0.000 C 
ATOM      3  O   UNL     1       1.911   5.602  17.944  0.00  0.00    +0.000 OA
ATOM      4  H   UNL     1       4.673   6.425  19.218  0.00  0.00    +0.000 HD
ENDROOT
BRANCH   1   9
ATOM      5  C   UNL     1       6.393   3.826  13.717  0.00  0.00    +0.000 C 
ATOM      6  C   UNL     1       5.825   4.487  14.941  0.00  0.00    +0.000 A 
ATOM      7  C   UNL     1       5.514   5.850  14.960  0.00  0.00    +0.000 A 
ATOM      8  C   UNL     1       4.933   6.439  16.098  0.00  0.00    +0.000 A 
ATOM      9  C   UNL     1       4.665   5.681  17.246  0.00  0.00    +0.000 A 
ATOM     10  C   UNL     1       5.001   4.321  17.211  0.00  0.00    +0.000 A 
ATOM     11  C   UNL     1       5.568   3.719  16.078  0.00  0.00    +0.000 A 
BRANCH  10  12
ATOM     12  N   UNL     1       4.628   3.455  18.310  0.00  0.00    +0.000 N 
ATOM     13  O   UNL     1       5.249   3.590  19.372  0.00  0.00    +0.000 OA
ATOM     14  O   UNL     1       3.713   2.645  18.106  0.00  0.00    +0.000 OA
ENDBRANCH  10  12
ENDBRANCH   1   9
BRANCH   2  15
ATOM     15  C   UNL     1       2.277   6.901  19.934  0.00  0.00    +0.000 C 
BRANCH  15  16
ATOM     16  N   UNL     1       1.729   8.222  19.659  0.00  0.00    +0.000 N 
ATOM     17  C   UNL     1       1.796   8.880  18.439  0.00  0.00    +0.000 A 
ATOM     18  C   UNL     1       1.289  10.122  18.435  0.00  0.00    +0.000 A 
ATOM     19  S   UNL     1       0.665  10.553  20.012  0.00  0.00    +0.000 S 
ATOM     20  C   UNL     1       1.127   8.962  20.646  0.00  0.00    +0.000 A 
ATOM     21  N   UNL     1       0.890   8.639  21.866  0.00  0.00    +0.000 NA
ATOM     22  H   UNL     1       0.429   9.451  22.300  0.00  0.00    +0.000 HD
ENDBRANCH  15  16
ENDBRANCH   2  15
TORSDOF 4
ENDMDL
MODEL 6
REMARK VINA RESULT:      -6.5      3.003      4.016
REMARK  Name = 
REMARK  5 active torsions:
REMARK  status: ('A' for Active; 'I' for Inactive)
REMARK    1  A    between atoms: C_1  and  C_2
REMARK    2  A    between atoms: C_5  and  N_6
REMARK    3  A    between atoms: C_7  and  C_9
REMARK    4  A    between atoms: C_9  and  N_10
REMARK    5  A    between atoms: C_16  and  N_17
REMARK                            x       y       z     vdW  Elec       q    Type
REMARK                         _______ _______ _______ _____ _____    ______ ____
ROOT
ATOM      1  N   UNL     1       4.866   4.463  17.040  0.00  0.00    +0.000 N 
ATOM      2  C   UNL     1       4.324   5.621  17.576  0.00  0.00    +0.000 C 
ATOM      3  O   UNL     1       4.292   6.708  16.995  0.00  0.00    +0.000 OA
ATOM      4  H   UNL     1       4.472   3.588  17.405  0.00  0.00    +0.000 HD
ENDROOT
BRANCH   1   9
ATOM      5  C   UNL     1       7.340   4.302  11.834  0.00  0.00    +0.000 C 
ATOM      6  C   UNL     1       6.668   4.370  13.176  0.00  0.00    +0.000 A 
ATOM      7  C   UNL     1       5.395   3.833  13.387  0.00  0.00    +0.000 A 
ATOM      8  C   UNL     1       4.805   3.860  14.664  0.00  0.00    +0.000 A 
ATOM      9  C   UNL     1       5.469   4.438  15.754  0.00  0.00    +0.000 A 
ATOM     10  C   UNL     1       6.737   4.987  15.517  0.00  0.00    +0.000 A 
ATOM     11  C   UNL     1       7.341   4.953  14.251  0.00  0.00    +0.000 A 
BRANCH  10  12
ATOM     12  N   UNL     1       7.532   5.476  16.623  0.00  0.00    +0.000 N 
ATOM     13  O   UNL     1       7.730   6.697  16.680  0.00  0.00    +0.000 OA
ATOM     14  O   UNL     1       7.952   4.637  17.432  0.00  0.00    +0.000 OA
ENDBRANCH  10  12
ENDBRANCH   1   9
BRANCH   2  15
ATOM     15  C   UNL     1       3.710   5.453  18.962  0.00  0.00    +0.000 C 
BRANCH  15  16
ATOM     16  N   UNL     1       2.916   4.234  19.047  0.00  0.00    +0.000 N 
ATOM     17  C   UNL     1       1.551   4.150  18.817  0.00  0.00    +0.000 A 
ATOM     18  C   UNL     1       1.014   2.938  19.026  0.00  0.00    +0.000 A 
ATOM     19  S   UNL     1       2.232   1.787  19.530  0.00  0.00    +0.000 S 
ATOM     20  C   UNL     1       3.480   3.043  19.428  0.00  0.00    +0.000 A 
ATOM     21  N   UNL     1       4.710   2.780  19.690  0.00  0.00    +0.000 NA
ATOM     22  H   UNL     1       4.749   1.782  19.942  0.00  0.00    +0.000 HD
ENDBRANCH  15  16
ENDBRANCH   2  15
TORSDOF 4
ENDMDL
MODEL 7
REMARK VINA RESULT:      -6.4      3.636      6.589
REMARK  Name = 
REMARK  5 active torsions:
REMARK  status: ('A' for Active; 'I' for Inactive)
REMARK    1  A    between atoms: C_1  and  C_2
REMARK    2  A    between atoms: C_5  and  N_6
REMARK    3  A    between atoms: C_7  and  C_9
REMARK    4  A    between atoms: C_9  and  N_10
REMARK    5  A    between atoms: C_16  and  N_17
REMARK                            x       y       z     vdW  Elec       q    Type
REMARK                         _______ _______ _______ _____ _____    ______ ____
ROOT
ATOM      1  N   UNL     1       5.500   3.633  17.064  0.00  0.00    +0.000 N 
ATOM      2  C   UNL     1       5.671   4.732  16.236  0.00  0.00    +0.000 C 
ATOM      3  O   UNL     1       4.853   5.647  16.117  0.00  0.00    +0.000 OA
ATOM      4  H   UNL     1       6.369   3.195  17.390  0.00  0.00    +0.000 HD
ENDROOT
BRANCH   1   9
ATOM      5  C   UNL     1       0.710   2.948  20.199  0.00  0.00    +0.000 C 
ATOM      6  C   UNL     1       1.969   3.088  19.392  0.00  0.00    +0.000 A 
ATOM      7  C   UNL     1       2.167   2.368  18.210  0.00  0.00    +0.000 A 
ATOM      8  C   UNL     1       3.330   2.554  17.441  0.00  0.00    +0.000 A 
ATOM      9  C   UNL     1       4.327   3.452  17.845  0.00  0.00    +0.000 A 
ATOM     10  C   UNL     1       4.117   4.150  19.042  0.00  0.00    +0.000 A 
ATOM     11  C   UNL     1       2.955   3.984  19.810  0.00  0.00    +0.000 A 
BRANCH  10  12
ATOM     12  N   UNL     1       5.041   5.190  19.445  0.00  0.00    +0.000 N 
ATOM     13  O   UNL     1       6.185   4.837  19.759  0.00  0.00    +0.000 OA
ATOM     14  O   UNL     1       4.617   6.353  19.444  0.00  0.00    +0.000 OA
ENDBRANCH  10  12
ENDBRANCH   1   9
BRANCH   2  15
ATOM     15  C   UNL     1       6.998   4.762  15.485  0.00  0.00    +0.000 C 
BRANCH  15  16
ATOM     16  N   UNL     1       6.816   4.450  14.073  0.00  0.00    +0.000 N 
ATOM     17  C   UNL     1       5.878   3.566  13.563  0.00  0.00    +0.000 A 
ATOM     18  C   UNL     1       5.940   3.375  12.236  0.00  0.00    +0.000 A 
ATOM     19  S   UNL     1       7.216   4.335  11.521  0.00  0.00    +0.000 S 
ATOM     20  C   UNL     1       7.633   4.994  13.114  0.00  0.00    +0.000 A 
ATOM     21  N   UNL     1       8.577   5.853  13.251  0.00  0.00    +0.000 NA
ATOM     22  H   UNL     1       8.963   6.018  12.311  0.00  0.00    +0.000 HD
ENDBRANCH  15  16
ENDBRANCH   2  15
TORSDOF 4
ENDMDL
MODEL 8
REMARK VINA RESULT:      -6.3      2.889      3.770
REMARK  Name = 
REMARK  5 active torsions:
REMARK  status: ('A' for Active; 'I' for Inactive)
REMARK    1  A    between atoms: C_1  and  C_2
REMARK    2  A    between atoms: C_5  and  N_6
REMARK    3  A    between atoms: C_7  and  C_9
REMARK    4  A    between atoms: C_9  and  N_10
REMARK    5  A    between atoms: C_16  and  N_17
REMARK                            x       y       z     vdW  Elec       q    Type
REMARK                         _______ _______ _______ _____ _____    ______ ____
ROOT
ATOM      1  N   UNL     1       5.683   3.765  17.316  0.00  0.00    +0.000 N 
ATOM      2  C   UNL     1       4.748   4.536  17.990  0.00  0.00    +0.000 C 
ATOM      3  O   UNL     1       4.175   5.515  17.506  0.00  0.00    +0.000 OA
ATOM      4  H   UNL     1       5.759   2.793  17.638  0.00  0.00    +0.000 HD
ENDROOT
BRANCH   1   9
ATOM      5  C   UNL     1       7.378   4.926  11.929  0.00  0.00    +0.000 C 
ATOM      6  C   UNL     1       6.899   4.636  13.323  0.00  0.00    +0.000 A 
ATOM      7  C   UNL     1       6.007   3.593  13.590  0.00  0.00    +0.000 A 
ATOM      8  C   UNL     1       5.612   3.304  14.909  0.00  0.00    +0.000 A 
ATOM      9  C   UNL     1       6.088   4.061  15.987  0.00  0.00    +0.000 A 
ATOM     10  C   UNL     1       6.967   5.114  15.696  0.00  0.00    +0.000 A 
ATOM     11  C   UNL     1       7.379   5.402  14.386  0.00  0.00    +0.000 A 
BRANCH  10  12
ATOM     12  N   UNL     1       7.600   5.847  16.772  0.00  0.00    +0.000 N 
ATOM     13  O   UNL     1       8.042   5.188  17.721  0.00  0.00    +0.000 OA
ATOM     14  O   UNL     1       7.654   7.079  16.660  0.00  0.00    +0.000 OA
ENDBRANCH  10  12
ENDBRANCH   1   9
BRANCH   2  15
ATOM     15  C   UNL     1       4.429   4.058  19.403  0.00  0.00    +0.000 C 
BRANCH  15  16
ATOM     16  N   UNL     1       3.073   3.535  19.493  0.00  0.00    +0.000 N 
ATOM     17  C   UNL     1       2.571   2.477  18.750  0.00  0.00    +0.000 A 
ATOM     18  C   UNL     1       1.270   2.214  18.943  0.00  0.00    +0.000 A 
ATOM     19  S   UNL     1       0.574   3.308  20.117  0.00  0.00    +0.000 S 
ATOM     20  C   UNL     1       2.141   4.113  20.318  0.00  0.00    +0.000 A 
ATOM     21  N   UNL     1       2.287   5.086  21.143  0.00  0.00    +0.000 NA
ATOM     22  H   UNL     1       1.368   5.240  21.581  0.00  0.00    +0.000 HD
ENDBRANCH  15  16
ENDBRANCH   2  15
TORSDOF 4
ENDMDL
MODEL 9
REMARK VINA RESULT:      -6.3      5.805      7.337
REMARK  Name = 
REMARK  5 active torsions:
REMARK  status: ('A' for Active; 'I' for Inactive)
REMARK    1  A    between atoms: C_1  and  C_2
REMARK    2  A    between atoms: C_5  and  N_6
REMARK    3  A    between atoms: C_7  and  C_9
REMARK    4  A    between atoms: C_9  and  N_10
REMARK    5  A    between atoms: C_16  and  N_17
REMARK                            x       y       z     vdW  Elec       q    Type
REMARK                         _______ _______ _______ _____ _____    ______ ____
ROOT
ATOM      1  N   UNL     1       2.165   7.574  20.790  0.00  0.00    +0.000 N 
ATOM      2  C   UNL     1       1.032   8.191  21.298  0.00  0.00    +0.000 C 
ATOM      3  O   UNL     1      -0.109   7.732  21.211  0.00  0.00    +0.000 OA
ATOM      4  H   UNL     1       3.041   7.811  21.270  0.00  0.00    +0.000 HD
ENDROOT
BRANCH   1   9
ATOM      5  C   UNL     1       1.969   2.561  17.949  0.00  0.00    +0.000 C 
ATOM      6  C   UNL     1       1.980   3.865  18.694  0.00  0.00    +0.000 A 
ATOM      7  C   UNL     1       1.699   3.931  20.062  0.00  0.00    +0.000 A 
ATOM      8  C   UNL     1       1.766   5.155  20.753  0.00  0.00    +0.000 A 
ATOM      9  C   UNL     1       2.101   6.341  20.087  0.00  0.00    +0.000 A 
ATOM     10  C   UNL     1       2.361   6.256  18.712  0.00  0.00    +0.000 A 
ATOM     11  C   UNL     1       2.311   5.039  18.016  0.00  0.00    +0.000 A 
BRANCH  10  12
ATOM     12  N   UNL     1       2.843   7.417  17.993  0.00  0.00    +0.000 N 
ATOM     13  O   UNL     1       3.974   7.343  17.495  0.00  0.00    +0.000 OA
ATOM     14  O   UNL     1       2.087   8.396  17.929  0.00  0.00    +0.000 OA
ENDBRANCH  10  12
ENDBRANCH   1   9
BRANCH   2  15
ATOM     15  C   UNL     1       1.297   9.501  22.033  0.00  0.00    +0.000 C 
BRANCH  15  16
ATOM     16  N   UNL     1       0.541  10.600  21.449  0.00  0.00    +0.000 N 
ATOM     17  C   UNL     1       0.800  11.186  20.219  0.00  0.00    +0.000 A 
ATOM     18  C   UNL     1       0.021  12.235  19.914  0.00  0.00    +0.000 A 
ATOM     19  S   UNL     1      -1.131  12.556  21.191  0.00  0.00    +0.000 S 
ATOM     20  C   UNL     1      -0.493  11.193  22.129  0.00  0.00    +0.000 A 
ATOM     21  N   UNL     1      -0.992  10.880  23.270  0.00  0.00    +0.000 NA
ATOM     22  H   UNL     1      -1.751  11.553  23.453  0.00  0.00    +0.000 HD
ENDBRANCH  15  16
ENDBRANCH   2  15
TORSDOF 4
ENDMDL
