MODEL 1
REMARK VINA RESULT:      -8.0      0.000      0.000
REMARK  Name = 
REMARK  12 active torsions:
REMARK  status: ('A' for Active; 'I' for Inactive)
REMARK    1  A    between atoms: C_1  and  C_2
REMARK    2  A    between atoms: C_2  and  N_3
REMARK    3  A    between atoms: N_3  and  C_4
REMARK    4  A    between atoms: N_3  and  C_6
REMARK    5  A    between atoms: C_4  and  C_5
REMARK    6  A    between atoms: C_6  and  C_7
REMARK    7  A    between atoms: C_7  and  O_8
REMARK    8  A    between atoms: O_8  and  C_9
REMARK    9  A    between atoms: C_12  and  C_13
REMARK   10  A    between atoms: C_14  and  C_15
REMARK   11  A    between atoms: C_26  and  O_27
REMARK   12  A    between atoms: O_27  and  C_28
REMARK                            x       y       z     vdW  Elec       q    Type
REMARK                         _______ _______ _______ _____ _____    ______ ____
ROOT
ATOM      1  C   UNL     1       0.633  11.282  19.607  0.00  0.00    +0.000 C 
ATOM      2  C   UNL     1      -0.710  11.205  19.798  0.00  0.00    +0.000 C 
ATOM      3  C   UNL     1      -1.202  12.165  20.844  0.00  0.00    +0.000 C 
ATOM      4  O   UNL     1      -1.405  13.381  20.168  0.00  0.00    +0.000 OA
ATOM      5  C   UNL     1      -0.217  13.721  19.529  0.00  0.00    +0.000 A 
ATOM      6  C   UNL     1      -0.295  15.046  19.105  0.00  0.00    +0.000 A 
ATOM      7  C   UNL     1       0.821  15.726  18.697  0.00  0.00    +0.000 A 
ATOM      8  C   UNL     1       2.025  15.016  18.731  0.00  0.00    +0.000 A 
ATOM      9  C   UNL     1       2.071  13.565  19.026  0.00  0.00    +0.000 A 
ATOM     10  C   UNL     1       0.921  12.836  19.380  0.00  0.00    +0.000 A 
ENDROOT
BRANCH   2  11
ATOM     11  C   UNL     1      -1.578  11.022  18.579  0.00  0.00    +0.000 A 
ATOM     12  C   UNL     1      -2.877  11.577  18.513  0.00  0.00    +0.000 A 
ATOM     13  C   UNL     1      -3.751  11.278  17.475  0.00  0.00    +0.000 A 
ATOM     14  C   UNL     1      -3.338  10.401  16.486  0.00  0.00    +0.000 A 
ATOM     15  F   UNL     1      -4.179  10.082  15.494  0.00  0.00    +0.000 F 
ATOM     16  C   UNL     1      -2.076   9.834  16.528  0.00  0.00    +0.000 A 
ATOM     17  C   UNL     1      -1.191  10.137  17.567  0.00  0.00    +0.000 A 
ENDBRANCH   2  11
BRANCH   1  21
ATOM     18  C   UNL     1       2.475   7.267  18.810  0.00  0.00    +0.000 A 
ATOM     19  C   UNL     1       1.839   7.496  20.031  0.00  0.00    +0.000 A 
ATOM     20  C   UNL     1       1.166   8.749  20.333  0.00  0.00    +0.000 A 
ATOM     21  C   UNL     1       1.117   9.814  19.421  0.00  0.00    +0.000 A 
ATOM     22  C   UNL     1       1.832   9.530  18.204  0.00  0.00    +0.000 A 
ATOM     23  C   UNL     1       2.511   8.322  17.919  0.00  0.00    +0.000 A 
BRANCH  18  24
ATOM     24  O   UNL     1       3.128   6.139  18.377  0.00  0.00    +0.000 OA
BRANCH  24  25
ATOM     25  C   UNL     1       4.096   5.464  19.211  0.00  0.00    +0.000 C 
BRANCH  25  26
ATOM     26  C   UNL     1       4.862   4.362  18.442  0.00  0.00    +0.000 C 
BRANCH  26  27
ATOM     27  N   UNL     1       6.343   4.482  18.403  0.00  0.00    +0.000 NA
BRANCH  27  29
ATOM     28  C   UNL     1       5.673   4.398  15.954  0.00  0.00    +0.000 C 
ATOM     29  C   UNL     1       6.787   4.531  16.986  0.00  0.00    +0.000 C 
ENDBRANCH  27  29
BRANCH  27  30
ATOM     30  C   UNL     1       6.907   5.557  19.232  0.00  0.00    +0.000 C 
ATOM     31  C   UNL     1       7.837   6.558  18.547  0.00  0.00    +0.000 C 
ENDBRANCH  27  30
ENDBRANCH  26  27
ENDBRANCH  25  26
ENDBRANCH  24  25
ENDBRANCH  18  24
ENDBRANCH   1  21
BRANCH   7  32
ATOM     32  O   UNL     1       0.466  16.981  18.327  0.00  0.00    +0.000 OA
ATOM     33  C   UNL     1      -0.791  17.581  18.527  0.00  0.00    +0.000 C 
ENDBRANCH   7  32
TORSDOF 9
ENDMDL
MODEL 2
REMARK VINA RESULT:      -7.9      0.711      1.156
REMARK  Name = 
REMARK  12 active torsions:
REMARK  status: ('A' for Active; 'I' for Inactive)
REMARK    1  A    between atoms: C_1  and  C_2
REMARK    2  A    between atoms: C_2  and  N_3
REMARK    3  A    between atoms: N_3  and  C_4
REMARK    4  A    between atoms: N_3  and  C_6
REMARK    5  A    between atoms: C_4  and  C_5
REMARK    6  A    between atoms: C_6  and  C_7
REMARK    7  A    between atoms: C_7  and  O_8
REMARK    8  A    between atoms: O_8  and  C_9
REMARK    9  A    between atoms: C_12  and  C_13
REMARK   10  A    between atoms: C_14  and  C_15
REMARK   11  A    between atoms: C_26  and  O_27
REMARK   12  A    between atoms: O_27  and  C_28
REMARK                            x       y       z     vdW  Elec       q    Type
REMARK                         _______ _______ _______ _____ _____    ______ ____
ROOT
ATOM      1  C   UNL     1       0.701  11.116  19.684  0.00  0.00    +0.000 C 
ATOM      2  C   UNL     1      -0.613  11.052  20.024  0.00  0.00    +0.000 C 
ATOM      3  C   UNL     1      -0.983  12.040  21.093  0.00  0.00    +0.000 C 
ATOM      4  O   UNL     1      -1.255  13.240  20.415  0.00  0.00    +0.000 OA
ATOM      5  C   UNL     1      -0.143  13.558  19.642  0.00  0.00    +0.000 A 
ATOM      6  C   UNL     1      -0.262  14.873  19.197  0.00  0.00    +0.000 A 
ATOM      7  C   UNL     1       0.805  15.537  18.653  0.00  0.00    +0.000 A 
ATOM      8  C   UNL     1       2.002  14.820  18.571  0.00  0.00    +0.000 A 
ATOM      9  C   UNL     1       2.075  13.376  18.894  0.00  0.00    +0.000 A 
ATOM     10  C   UNL     1       0.969  12.663  19.389  0.00  0.00    +0.000 A 
ENDROOT
BRANCH   2  11
ATOM     11  C   UNL     1      -1.610  10.846  18.912  0.00  0.00    +0.000 A 
ATOM     12  C   UNL     1      -1.255  10.165  17.724  0.00  0.00    +0.000 A 
ATOM     13  C   UNL     1      -2.105  10.115  16.625  0.00  0.00    +0.000 A 
ATOM     14  C   UNL     1      -3.327  10.763  16.696  0.00  0.00    +0.000 A 
ATOM     15  F   UNL     1      -4.144  10.747  15.635  0.00  0.00    +0.000 F 
ATOM     16  C   UNL     1      -3.698  11.446  17.841  0.00  0.00    +0.000 A 
ATOM     17  C   UNL     1      -2.849  11.493  18.951  0.00  0.00    +0.000 A 
ENDBRANCH   2  11
BRANCH   1  21
ATOM     18  C   UNL     1       2.444   7.073  18.807  0.00  0.00    +0.000 A 
ATOM     19  C   UNL     1       1.894   7.321  20.065  0.00  0.00    +0.000 A 
ATOM     20  C   UNL     1       1.255   8.584  20.398  0.00  0.00    +0.000 A 
ATOM     21  C   UNL     1       1.156   9.641  19.481  0.00  0.00    +0.000 A 
ATOM     22  C   UNL     1       1.786   9.338  18.223  0.00  0.00    +0.000 A 
ATOM     23  C   UNL     1       2.432   8.120  17.905  0.00  0.00    +0.000 A 
BRANCH  18  24
ATOM     24  O   UNL     1       3.055   5.935  18.343  0.00  0.00    +0.000 OA
BRANCH  24  25
ATOM     25  C   UNL     1       4.329   5.989  17.663  0.00  0.00    +0.000 C 
BRANCH  25  26
ATOM     26  C   UNL     1       5.505   5.614  18.595  0.00  0.00    +0.000 C 
BRANCH  26  27
ATOM     27  N   UNL     1       6.875   5.830  18.062  0.00  0.00    +0.000 NA
BRANCH  27  29
ATOM     28  C   UNL     1       7.136   4.579  15.866  0.00  0.00    +0.000 C 
ATOM     29  C   UNL     1       7.330   4.591  17.378  0.00  0.00    +0.000 C 
ENDBRANCH  27  29
BRANCH  27  30
ATOM     30  C   UNL     1       7.048   7.044  17.251  0.00  0.00    +0.000 C 
ATOM     31  C   UNL     1       7.952   8.142  17.811  0.00  0.00    +0.000 C 
ENDBRANCH  27  30
ENDBRANCH  26  27
ENDBRANCH  25  26
ENDBRANCH  24  25
ENDBRANCH  18  24
ENDBRANCH   1  21
BRANCH   7  32
ATOM     32  O   UNL     1       0.415  16.785  18.294  0.00  0.00    +0.000 OA
ATOM     33  C   UNL     1      -0.887  17.308  18.391  0.00  0.00    +0.000 C 
ENDBRANCH   7  32
TORSDOF 9
ENDMDL
MODEL 3
REMARK VINA RESULT:      -7.9      0.682      1.531
REMARK  Name = 
REMARK  12 active torsions:
REMARK  status: ('A' for Active; 'I' for Inactive)
REMARK    1  A    between atoms: C_1  and  C_2
REMARK    2  A    between atoms: C_2  and  N_3
REMARK    3  A    between atoms: N_3  and  C_4
REMARK    4  A    between atoms: N_3  and  C_6
REMARK    5  A    between atoms: C_4  and  C_5
REMARK    6  A    between atoms: C_6  and  C_7
REMARK    7  A    between atoms: C_7  and  O_8
REMARK    8  A    between atoms: O_8  and  C_9
REMARK    9  A    between atoms: C_12  and  C_13
REMARK   10  A    between atoms: C_14  and  C_15
REMARK   11  A    between atoms: C_26  and  O_27
REMARK   12  A    between atoms: O_27  and  C_28
REMARK                            x       y       z     vdW  Elec       q    Type
REMARK                         _______ _______ _______ _____ _____    ______ ____
ROOT
ATOM      1  C   UNL     1       0.948  10.971  19.670  0.00  0.00    +0.000 C 
ATOM      2  C   UNL     1      -0.350  10.942  20.070  0.00  0.00    +0.000 C 
ATOM      3  C   UNL     1      -0.644  11.936  21.158  0.00  0.00    +0.000 C 
ATOM      4  O   UNL     1      -0.913  13.146  20.496  0.00  0.00    +0.000 OA
ATOM      5  C   UNL     1       0.171  13.436  19.673  0.00  0.00    +0.000 A 
ATOM      6  C   UNL     1       0.067  14.755  19.237  0.00  0.00    +0.000 A 
ATOM      7  C   UNL     1       1.125  15.391  18.646  0.00  0.00    +0.000 A 
ATOM      8  C   UNL     1       2.298  14.642  18.507  0.00  0.00    +0.000 A 
ATOM      9  C   UNL     1       2.345  13.195  18.823  0.00  0.00    +0.000 A 
ATOM     10  C   UNL     1       1.244  12.511  19.367  0.00  0.00    +0.000 A 
ENDROOT
BRANCH   2  11
ATOM     11  C   UNL     1      -1.403  10.767  19.006  0.00  0.00    +0.000 A 
ATOM     12  C   UNL     1      -1.122  10.081  17.801  0.00  0.00    +0.000 A 
ATOM     13  C   UNL     1      -2.023  10.058  16.743  0.00  0.00    +0.000 A 
ATOM     14  C   UNL     1      -3.222  10.739  16.872  0.00  0.00    +0.000 A 
ATOM     15  F   UNL     1      -4.087  10.749  15.849  0.00  0.00    +0.000 F 
ATOM     16  C   UNL     1      -3.521  11.428  18.033  0.00  0.00    +0.000 A 
ATOM     17  C   UNL     1      -2.621  11.448  19.104  0.00  0.00    +0.000 A 
ENDBRANCH   2  11
BRANCH   1  21
ATOM     18  C   UNL     1       2.564   6.887  18.748  0.00  0.00    +0.000 A 
ATOM     19  C   UNL     1       1.973   7.122  19.989  0.00  0.00    +0.000 A 
ATOM     20  C   UNL     1       1.372   8.400  20.333  0.00  0.00    +0.000 A 
ATOM     21  C   UNL     1       1.352   9.485  19.443  0.00  0.00    +0.000 A 
ATOM     22  C   UNL     1       2.020   9.191  18.203  0.00  0.00    +0.000 A 
ATOM     23  C   UNL     1       2.630   7.957  17.877  0.00  0.00    +0.000 A 
BRANCH  18  24
ATOM     24  O   UNL     1       3.148   5.737  18.276  0.00  0.00    +0.000 OA
BRANCH  24  25
ATOM     25  C   UNL     1       4.049   4.960  19.096  0.00  0.00    +0.000 C 
BRANCH  25  26
ATOM     26  C   UNL     1       5.483   5.540  19.099  0.00  0.00    +0.000 C 
BRANCH  26  27
ATOM     27  N   UNL     1       6.140   5.706  17.776  0.00  0.00    +0.000 NA
BRANCH  27  29
ATOM     28  C   UNL     1       7.699   7.710  17.705  0.00  0.00    +0.000 C 
ATOM     29  C   UNL     1       7.519   6.221  17.981  0.00  0.00    +0.000 C 
ENDBRANCH  27  29
BRANCH  27  30
ATOM     30  C   UNL     1       6.078   4.532  16.894  0.00  0.00    +0.000 C 
ATOM     31  C   UNL     1       6.821   4.615  15.560  0.00  0.00    +0.000 C 
ENDBRANCH  27  30
ENDBRANCH  26  27
ENDBRANCH  25  26
ENDBRANCH  24  25
ENDBRANCH  18  24
ENDBRANCH   1  21
BRANCH   7  32
ATOM     32  O   UNL     1       0.754  16.651  18.308  0.00  0.00    +0.000 OA
ATOM     33  C   UNL     1      -0.566  17.121  18.183  0.00  0.00    +0.000 C 
ENDBRANCH   7  32
TORSDOF 9
ENDMDL
MODEL 4
REMARK VINA RESULT:      -7.9      0.518      1.265
REMARK  Name = 
REMARK  12 active torsions:
REMARK  status: ('A' for Active; 'I' for Inactive)
REMARK    1  A    between atoms: C_1  and  C_2
REMARK    2  A    between atoms: C_2  and  N_3
REMARK    3  A    between atoms: N_3  and  C_4
REMARK    4  A    between atoms: N_3  and  C_6
REMARK    5  A    between atoms: C_4  and  C_5
REMARK    6  A    between atoms: C_6  and  C_7
REMARK    7  A    between atoms: C_7  and  O_8
REMARK    8  A    between atoms: O_8  and  C_9
REMARK    9  A    between atoms: C_12  and  C_13
REMARK   10  A    between atoms: C_14  and  C_15
REMARK   11  A    between atoms: C_26  and  O_27
REMARK   12  A    between atoms: O_27  and  C_28
REMARK                            x       y       z     vdW  Elec       q    Type
REMARK                         _______ _______ _______ _____ _____    ______ ____
ROOT
ATOM      1  C   UNL     1       0.715  11.341  19.645  0.00  0.00    +0.000 C 
ATOM      2  C   UNL     1      -0.619  11.274  19.892  0.00  0.00    +0.000 C 
ATOM      3  C   UNL     1      -1.056  12.224  20.971  0.00  0.00    +0.000 C 
ATOM      4  O   UNL     1      -1.274  13.451  20.322  0.00  0.00    +0.000 OA
ATOM      5  C   UNL     1      -0.110  13.789  19.639  0.00  0.00    +0.000 A 
ATOM      6  C   UNL     1      -0.191  15.121  19.239  0.00  0.00    +0.000 A 
ATOM      7  C   UNL     1       0.914  15.796  18.794  0.00  0.00    +0.000 A 
ATOM      8  C   UNL     1       2.110  15.073  18.766  0.00  0.00    +0.000 A 
ATOM      9  C   UNL     1       2.152  13.617  19.038  0.00  0.00    +0.000 A 
ATOM     10  C   UNL     1       1.011  12.895  19.429  0.00  0.00    +0.000 A 
ENDROOT
BRANCH   2  11
ATOM     11  C   UNL     1      -1.539  11.119  18.708  0.00  0.00    +0.000 A 
ATOM     12  C   UNL     1      -2.824  11.711  18.695  0.00  0.00    +0.000 A 
ATOM     13  C   UNL     1      -3.747  11.439  17.691  0.00  0.00    +0.000 A 
ATOM     14  C   UNL     1      -3.398  10.553  16.686  0.00  0.00    +0.000 A 
ATOM     15  F   UNL     1      -4.287  10.260  15.727  0.00  0.00    +0.000 F 
ATOM     16  C   UNL     1      -2.152   9.950  16.676  0.00  0.00    +0.000 A 
ATOM     17  C   UNL     1      -1.218  10.226  17.680  0.00  0.00    +0.000 A 
ENDBRANCH   2  11
BRANCH   1  21
ATOM     18  C   UNL     1       2.483   7.319  18.721  0.00  0.00    +0.000 A 
ATOM     19  C   UNL     1       1.882   7.531  19.961  0.00  0.00    +0.000 A 
ATOM     20  C   UNL     1       1.233   8.786  20.306  0.00  0.00    +0.000 A 
ATOM     21  C   UNL     1       1.175   9.871  19.417  0.00  0.00    +0.000 A 
ATOM     22  C   UNL     1       1.855   9.603  18.177  0.00  0.00    +0.000 A 
ATOM     23  C   UNL     1       2.510   8.392  17.851  0.00  0.00    +0.000 A 
BRANCH  18  24
ATOM     24  O   UNL     1       3.109   6.193  18.249  0.00  0.00    +0.000 OA
BRANCH  24  25
ATOM     25  C   UNL     1       3.820   5.300  19.136  0.00  0.00    +0.000 C 
BRANCH  25  26
ATOM     26  C   UNL     1       5.290   5.092  18.701  0.00  0.00    +0.000 C 
BRANCH  26  27
ATOM     27  N   UNL     1       5.601   5.322  17.266  0.00  0.00    +0.000 NA
BRANCH  27  29
ATOM     28  C   UNL     1       7.647   6.226  18.471  0.00  0.00    +0.000 C 
ATOM     29  C   UNL     1       6.880   6.072  17.162  0.00  0.00    +0.000 C 
ENDBRANCH  27  29
BRANCH  27  30
ATOM     30  C   UNL     1       5.553   4.125  16.414  0.00  0.00    +0.000 C 
ATOM     31  C   UNL     1       6.263   4.195  15.062  0.00  0.00    +0.000 C 
ENDBRANCH  27  30
ENDBRANCH  26  27
ENDBRANCH  25  26
ENDBRANCH  24  25
ENDBRANCH  18  24
ENDBRANCH   1  21
BRANCH   7  32
ATOM     32  O   UNL     1       0.557  17.060  18.457  0.00  0.00    +0.000 OA
ATOM     33  C   UNL     1      -0.604  17.435  17.757  0.00  0.00    +0.000 C 
ENDBRANCH   7  32
TORSDOF 9
ENDMDL
MODEL 5
REMARK VINA RESULT:      -7.9      1.502      2.328
REMARK  Name = 
REMARK  12 active torsions:
REMARK  status: ('A' for Active; 'I' for Inactive)
REMARK    1  A    between atoms: C_1  and  C_2
REMARK    2  A    between atoms: C_2  and  N_3
REMARK    3  A    between atoms: N_3  and  C_4
REMARK    4  A    between atoms: N_3  and  C_6
REMARK    5  A    between atoms: C_4  and  C_5
REMARK    6  A    between atoms: C_6  and  C_7
REMARK    7  A    between atoms: C_7  and  O_8
REMARK    8  A    between atoms: O_8  and  C_9
REMARK    9  A    between atoms: C_12  and  C_13
REMARK   10  A    between atoms: C_14  and  C_15
REMARK   11  A    between atoms: C_26  and  O_27
REMARK   12  A    between atoms: O_27  and  C_28
REMARK                            x       y       z     vdW  Elec       q    Type
REMARK                         _______ _______ _______ _____ _____    ______ ____
ROOT
ATOM      1  C   UNL     1       0.948  11.007  19.599  0.00  0.00    +0.000 C 
ATOM      2  C   UNL     1      -0.340  10.962  20.032  0.00  0.00    +0.000 C 
ATOM      3  C   UNL     1      -0.612  11.939  21.140  0.00  0.00    +0.000 C 
ATOM      4  O   UNL     1      -0.906  13.156  20.502  0.00  0.00    +0.000 OA
ATOM      5  C   UNL     1       0.154  13.465  19.655  0.00  0.00    +0.000 A 
ATOM      6  C   UNL     1       0.029  14.789  19.241  0.00  0.00    +0.000 A 
ATOM      7  C   UNL     1       1.068  15.441  18.631  0.00  0.00    +0.000 A 
ATOM      8  C   UNL     1       2.242  14.703  18.452  0.00  0.00    +0.000 A 
ATOM      9  C   UNL     1       2.307  13.252  18.747  0.00  0.00    +0.000 A 
ATOM     10  C   UNL     1       1.225  12.553  19.310  0.00  0.00    +0.000 A 
ENDROOT
BRANCH   2  11
ATOM     11  C   UNL     1      -1.418  10.795  18.992  0.00  0.00    +0.000 A 
ATOM     12  C   UNL     1      -1.161  10.134  17.768  0.00  0.00    +0.000 A 
ATOM     13  C   UNL     1      -2.089  10.119  16.733  0.00  0.00    +0.000 A 
ATOM     14  C   UNL     1      -3.292  10.783  16.906  0.00  0.00    +0.000 A 
ATOM     15  F   UNL     1      -4.184  10.801  15.907  0.00  0.00    +0.000 F 
ATOM     16  C   UNL     1      -3.569  11.448  18.088  0.00  0.00    +0.000 A 
ATOM     17  C   UNL     1      -2.641  11.459  19.134  0.00  0.00    +0.000 A 
ENDBRANCH   2  11
BRANCH   1  21
ATOM     18  C   UNL     1       2.573   6.947  18.587  0.00  0.00    +0.000 A 
ATOM     19  C   UNL     1       1.994   7.157  19.838  0.00  0.00    +0.000 A 
ATOM     20  C   UNL     1       1.390   8.426  20.211  0.00  0.00    +0.000 A 
ATOM     21  C   UNL     1       1.357   9.527  19.341  0.00  0.00    +0.000 A 
ATOM     22  C   UNL     1       2.013   9.258  18.089  0.00  0.00    +0.000 A 
ATOM     23  C   UNL     1       2.625   8.033  17.735  0.00  0.00    +0.000 A 
BRANCH  18  24
ATOM     24  O   UNL     1       3.157   5.809  18.089  0.00  0.00    +0.000 OA
BRANCH  24  25
ATOM     25  C   UNL     1       4.463   5.378  18.533  0.00  0.00    +0.000 C 
BRANCH  25  26
ATOM     26  C   UNL     1       4.445   3.934  19.087  0.00  0.00    +0.000 C 
BRANCH  26  27
ATOM     27  N   UNL     1       3.128   3.405  19.530  0.00  0.00    +0.000 NA
BRANCH  27  29
ATOM     28  C   UNL     1       1.043   2.395  18.488  0.00  0.00    +0.000 C 
ATOM     29  C   UNL     1       2.559   2.558  18.449  0.00  0.00    +0.000 C 
ENDBRANCH  27  29
BRANCH  27  30
ATOM     30  C   UNL     1       3.125   2.754  20.848  0.00  0.00    +0.000 C 
ATOM     31  C   UNL     1       2.080   3.224  21.861  0.00  0.00    +0.000 C 
ENDBRANCH  27  30
ENDBRANCH  26  27
ENDBRANCH  25  26
ENDBRANCH  24  25
ENDBRANCH  18  24
ENDBRANCH   1  21
BRANCH   7  32
ATOM     32  O   UNL     1       0.679  16.703  18.320  0.00  0.00    +0.000 OA
ATOM     33  C   UNL     1      -0.593  17.258  18.547  0.00  0.00    +0.000 C 
ENDBRANCH   7  32
TORSDOF 9
ENDMDL
MODEL 6
REMARK VINA RESULT:      -7.8      3.039      4.970
REMARK  Name = 
REMARK  12 active torsions:
REMARK  status: ('A' for Active; 'I' for Inactive)
REMARK    1  A    between atoms: C_1  and  C_2
REMARK    2  A    between atoms: C_2  and  N_3
REMARK    3  A    between atoms: N_3  and  C_4
REMARK    4  A    between atoms: N_3  and  C_6
REMARK    5  A    between atoms: C_4  and  C_5
REMARK    6  A    between atoms: C_6  and  C_7
REMARK    7  A    between atoms: C_7  and  O_8
REMARK    8  A    between atoms: O_8  and  C_9
REMARK    9  A    between atoms: C_12  and  C_13
REMARK   10  A    between atoms: C_14  and  C_15
REMARK   11  A    between atoms: C_26  and  O_27
REMARK   12  A    between atoms: O_27  and  C_28
REMARK                            x       y       z     vdW  Elec       q    Type
REMARK                         _______ _______ _______ _____ _____    ______ ____
ROOT
ATOM      1  C   UNL     1       0.040  10.875  19.892  0.00  0.00    +0.000 C 
ATOM      2  C   UNL     1       0.141  11.921  19.030  0.00  0.00    +0.000 C 
ATOM      3  C   UNL     1      -1.190  12.544  18.718  0.00  0.00    +0.000 C 
ATOM      4  O   UNL     1      -1.423  13.466  19.754  0.00  0.00    +0.000 OA
ATOM      5  C   UNL     1      -1.330  12.786  20.964  0.00  0.00    +0.000 A 
ATOM      6  C   UNL     1      -1.840  13.594  21.977  0.00  0.00    +0.000 A 
ATOM      7  C   UNL     1      -2.127  13.083  23.214  0.00  0.00    +0.000 A 
ATOM      8  C   UNL     1      -1.877  11.719  23.393  0.00  0.00    +0.000 A 
ATOM      9  C   UNL     1      -1.183  10.909  22.365  0.00  0.00    +0.000 A 
ATOM     10  C   UNL     1      -0.820  11.438  21.114  0.00  0.00    +0.000 A 
ENDROOT
BRANCH   2  11
ATOM     11  C   UNL     1       1.307  12.860  19.207  0.00  0.00    +0.000 A 
ATOM     12  C   UNL     1       1.975  13.419  18.093  0.00  0.00    +0.000 A 
ATOM     13  C   UNL     1       3.151  14.146  18.232  0.00  0.00    +0.000 A 
ATOM     14  C   UNL     1       3.687  14.314  19.498  0.00  0.00    +0.000 A 
ATOM     15  F   UNL     1       4.834  14.989  19.644  0.00  0.00    +0.000 F 
ATOM     16  C   UNL     1       3.062  13.771  20.607  0.00  0.00    +0.000 A 
ATOM     17  C   UNL     1       1.875  13.044  20.472  0.00  0.00    +0.000 A 
ENDBRANCH   2  11
BRANCH   1  21
ATOM     18  C   UNL     1       2.611   7.410  18.651  0.00  0.00    +0.000 A 
ATOM     19  C   UNL     1       2.389   8.452  17.751  0.00  0.00    +0.000 A 
ATOM     20  C   UNL     1       1.621   9.635  18.105  0.00  0.00    +0.000 A 
ATOM     21  C   UNL     1       1.045   9.805  19.373  0.00  0.00    +0.000 A 
ATOM     22  C   UNL     1       1.270   8.675  20.235  0.00  0.00    +0.000 A 
ATOM     23  C   UNL     1       1.993   7.511  19.884  0.00  0.00    +0.000 A 
BRANCH  18  24
ATOM     24  O   UNL     1       3.325   6.252  18.470  0.00  0.00    +0.000 OA
BRANCH  24  25
ATOM     25  C   UNL     1       3.967   5.583  19.579  0.00  0.00    +0.000 C 
BRANCH  25  26
ATOM     26  C   UNL     1       4.204   4.081  19.297  0.00  0.00    +0.000 C 
BRANCH  26  27
ATOM     27  N   UNL     1       3.136   3.143  19.732  0.00  0.00    +0.000 NA
BRANCH  27  29
ATOM     28  C   UNL     1       1.498   2.803  21.644  0.00  0.00    +0.000 C 
ATOM     29  C   UNL     1       2.368   3.765  20.842  0.00  0.00    +0.000 C 
ENDBRANCH  27  29
BRANCH  27  30
ATOM     30  C   UNL     1       2.286   2.618  18.654  0.00  0.00    +0.000 C 
ATOM     31  C   UNL     1       2.598   3.070  17.227  0.00  0.00    +0.000 C 
ENDBRANCH  27  30
ENDBRANCH  26  27
ENDBRANCH  25  26
ENDBRANCH  24  25
ENDBRANCH  18  24
ENDBRANCH   1  21
BRANCH   7  32
ATOM     32  O   UNL     1      -2.594  14.078  24.009  0.00  0.00    +0.000 OA
ATOM     33  C   UNL     1      -1.812  14.978  24.756  0.00  0.00    +0.000 C 
ENDBRANCH   7  32
TORSDOF 9
ENDMDL
MODEL 7
REMARK VINA RESULT:      -7.8      2.714      4.543
REMARK  Name = 
REMARK  12 active torsions:
REMARK  status: ('A' for Active; 'I' for Inactive)
REMARK    1  A    between atoms: C_1  and  C_2
REMARK    2  A    between atoms: C_2  and  N_3
REMARK    3  A    between atoms: N_3  and  C_4
REMARK    4  A    between atoms: N_3  and  C_6
REMARK    5  A    between atoms: C_4  and  C_5
REMARK    6  A    between atoms: C_6  and  C_7
REMARK    7  A    between atoms: C_7  and  O_8
REMARK    8  A    between atoms: O_8  and  C_9
REMARK    9  A    between atoms: C_12  and  C_13
REMARK   10  A    between atoms: C_14  and  C_15
REMARK   11  A    between atoms: C_26  and  O_27
REMARK   12  A    between atoms: O_27  and  C_28
REMARK                            x       y       z     vdW  Elec       q    Type
REMARK                         _______ _______ _______ _____ _____    ______ ____
ROOT
ATOM      1  C   UNL     1       0.103  10.769  19.809  0.00  0.00    +0.000 C 
ATOM      2  C   UNL     1       0.180  11.825  18.958  0.00  0.00    +0.000 C 
ATOM      3  C   UNL     1      -1.166  12.418  18.647  0.00  0.00    +0.000 C 
ATOM      4  O   UNL     1      -1.425  13.323  19.691  0.00  0.00    +0.000 OA
ATOM      5  C   UNL     1      -1.319  12.634  20.895  0.00  0.00    +0.000 A 
ATOM      6  C   UNL     1      -1.853  13.419  21.914  0.00  0.00    +0.000 A 
ATOM      7  C   UNL     1      -2.131  12.888  23.145  0.00  0.00    +0.000 A 
ATOM      8  C   UNL     1      -1.847  11.530  23.311  0.00  0.00    +0.000 A 
ATOM      9  C   UNL     1      -1.130  10.747  22.278  0.00  0.00    +0.000 A 
ATOM     10  C   UNL     1      -0.775  11.298  21.034  0.00  0.00    +0.000 A 
ENDROOT
BRANCH   2  11
ATOM     11  C   UNL     1       1.321  12.791  19.149  0.00  0.00    +0.000 A 
ATOM     12  C   UNL     1       1.972  13.386  18.043  0.00  0.00    +0.000 A 
ATOM     13  C   UNL     1       3.129  14.142  18.192  0.00  0.00    +0.000 A 
ATOM     14  C   UNL     1       3.663  14.303  19.460  0.00  0.00    +0.000 A 
ATOM     15  F   UNL     1       4.793  15.005  19.615  0.00  0.00    +0.000 F 
ATOM     16  C   UNL     1       3.055  13.725  20.560  0.00  0.00    +0.000 A 
ATOM     17  C   UNL     1       1.887  12.969  20.416  0.00  0.00    +0.000 A 
ENDBRANCH   2  11
BRANCH   1  21
ATOM     18  C   UNL     1       2.763   7.382  18.544  0.00  0.00    +0.000 A 
ATOM     19  C   UNL     1       2.520   8.427  17.653  0.00  0.00    +0.000 A 
ATOM     20  C   UNL     1       1.721   9.587  18.016  0.00  0.00    +0.000 A 
ATOM     21  C   UNL     1       1.135   9.729  19.284  0.00  0.00    +0.000 A 
ATOM     22  C   UNL     1       1.385   8.596  20.135  0.00  0.00    +0.000 A 
ATOM     23  C   UNL     1       2.139   7.454  19.775  0.00  0.00    +0.000 A 
BRANCH  18  24
ATOM     24  O   UNL     1       3.507   6.244  18.354  0.00  0.00    +0.000 OA
BRANCH  24  25
ATOM     25  C   UNL     1       4.099   5.538  19.467  0.00  0.00    +0.000 C 
BRANCH  25  26
ATOM     26  C   UNL     1       5.532   5.048  19.153  0.00  0.00    +0.000 C 
BRANCH  26  27
ATOM     27  N   UNL     1       6.163   5.579  17.917  0.00  0.00    +0.000 NA
BRANCH  27  29
ATOM     28  C   UNL     1       7.613   7.640  17.595  0.00  0.00    +0.000 C 
ATOM     29  C   UNL     1       7.416   6.292  18.280  0.00  0.00    +0.000 C 
ENDBRANCH  27  29
BRANCH  27  30
ATOM     30  C   UNL     1       6.339   4.601  16.833  0.00  0.00    +0.000 C 
ATOM     31  C   UNL     1       5.092   4.183  16.054  0.00  0.00    +0.000 C 
ENDBRANCH  27  30
ENDBRANCH  26  27
ENDBRANCH  25  26
ENDBRANCH  24  25
ENDBRANCH  18  24
ENDBRANCH   1  21
BRANCH   7  32
ATOM     32  O   UNL     1      -2.625  13.864  23.948  0.00  0.00    +0.000 OA
ATOM     33  C   UNL     1      -3.113  15.115  23.529  0.00  0.00    +0.000 C 
ENDBRANCH   7  32
TORSDOF 9
ENDMDL
MODEL 8
REMARK VINA RESULT:      -7.8      1.616      2.351
REMARK  Name = 
REMARK  12 active torsions:
REMARK  status: ('A' for Active; 'I' for Inactive)
REMARK    1  A    between atoms: C_1  and  C_2
REMARK    2  A    between atoms: C_2  and  N_3
REMARK    3  A    between atoms: N_3  and  C_4
REMARK    4  A    between atoms: N_3  and  C_6
REMARK    5  A    between atoms: C_4  and  C_5
REMARK    6  A    between atoms: C_6  and  C_7
REMARK    7  A    between atoms: C_7  and  O_8
REMARK    8  A    between atoms: O_8  and  C_9
REMARK    9  A    between atoms: C_12  and  C_13
REMARK   10  A    between atoms: C_14  and  C_15
REMARK   11  A    between atoms: C_26  and  O_27
REMARK   12  A    between atoms: O_27  and  C_28
REMARK                            x       y       z     vdW  Elec       q    Type
REMARK                         _______ _______ _______ _____ _____    ______ ____
ROOT
ATOM      1  C   UNL     1       0.498  11.383  19.635  0.00  0.00    +0.000 C 
ATOM      2  C   UNL     1      -0.840  11.261  19.833  0.00  0.00    +0.000 C 
ATOM      3  C   UNL     1      -1.354  12.181  20.904  0.00  0.00    +0.000 C 
ATOM      4  O   UNL     1      -1.597  13.406  20.258  0.00  0.00    +0.000 OA
ATOM      5  C   UNL     1      -0.424  13.796  19.621  0.00  0.00    +0.000 A 
ATOM      6  C   UNL     1      -0.544  15.128  19.229  0.00  0.00    +0.000 A 
ATOM      7  C   UNL     1       0.549  15.851  18.831  0.00  0.00    +0.000 A 
ATOM      8  C   UNL     1       1.773  15.177  18.841  0.00  0.00    +0.000 A 
ATOM      9  C   UNL     1       1.864  13.720  19.101  0.00  0.00    +0.000 A 
ATOM     10  C   UNL     1       0.739  12.950  19.444  0.00  0.00    +0.000 A 
ENDROOT
BRANCH   2  11
ATOM     11  C   UNL     1      -1.710  11.081  18.615  0.00  0.00    +0.000 A 
ATOM     12  C   UNL     1      -3.027  11.597  18.571  0.00  0.00    +0.000 A 
ATOM     13  C   UNL     1      -3.898  11.296  17.530  0.00  0.00    +0.000 A 
ATOM     14  C   UNL     1      -3.464  10.457  16.517  0.00  0.00    +0.000 A 
ATOM     15  F   UNL     1      -4.302  10.137  15.522  0.00  0.00    +0.000 F 
ATOM     16  C   UNL     1      -2.185   9.929  16.537  0.00  0.00    +0.000 A 
ATOM     17  C   UNL     1      -1.303  10.234  17.579  0.00  0.00    +0.000 A 
ENDBRANCH   2  11
BRANCH   1  21
ATOM     18  C   UNL     1       2.447   7.444  18.722  0.00  0.00    +0.000 A 
ATOM     19  C   UNL     1       1.839   7.632  19.963  0.00  0.00    +0.000 A 
ATOM     20  C   UNL     1       1.134   8.857  20.304  0.00  0.00    +0.000 A 
ATOM     21  C   UNL     1       1.024   9.935  19.412  0.00  0.00    +0.000 A 
ATOM     22  C   UNL     1       1.714   9.694  18.172  0.00  0.00    +0.000 A 
ATOM     23  C   UNL     1       2.424   8.514  17.848  0.00  0.00    +0.000 A 
BRANCH  18  24
ATOM     24  O   UNL     1       3.124   6.345  18.252  0.00  0.00    +0.000 OA
BRANCH  24  25
ATOM     25  C   UNL     1       4.142   5.694  19.044  0.00  0.00    +0.000 C 
BRANCH  25  26
ATOM     26  C   UNL     1       3.674   4.322  19.583  0.00  0.00    +0.000 C 
BRANCH  26  27
ATOM     27  N   UNL     1       2.220   4.027  19.486  0.00  0.00    +0.000 NA
BRANCH  27  29
ATOM     28  C   UNL     1       0.623   2.228  18.671  0.00  0.00    +0.000 C 
ATOM     29  C   UNL     1       2.026   2.822  18.638  0.00  0.00    +0.000 C 
ENDBRANCH  27  29
BRANCH  27  30
ATOM     30  C   UNL     1       1.507   3.960  20.770  0.00  0.00    +0.000 C 
ATOM     31  C   UNL     1       2.086   3.047  21.850  0.00  0.00    +0.000 C 
ENDBRANCH  27  30
ENDBRANCH  26  27
ENDBRANCH  25  26
ENDBRANCH  24  25
ENDBRANCH  18  24
ENDBRANCH   1  21
BRANCH   7  32
ATOM     32  O   UNL     1       0.153  17.103  18.493  0.00  0.00    +0.000 OA
ATOM     33  C   UNL     1       0.993  18.159  18.094  0.00  0.00    +0.000 C 
ENDBRANCH   7  32
TORSDOF 9
ENDMDL
MODEL 9
REMARK VINA RESULT:      -7.8      2.767      4.374
REMARK  Name = 
REMARK  12 active torsions:
REMARK  status: ('A' for Active; 'I' for Inactive)
REMARK    1  A    between atoms: C_1  and  C_2
REMARK    2  A    between atoms: C_2  and  N_3
REMARK    3  A    between atoms: N_3  and  C_4
REMARK    4  A    between atoms: N_3  and  C_6
REMARK    5  A    between atoms: C_4  and  C_5
REMARK    6  A    between atoms: C_6  and  C_7
REMARK    7  A    between atoms: C_7  and  O_8
REMARK    8  A    between atoms: O_8  and  C_9
REMARK    9  A    between atoms: C_12  and  C_13
REMARK   10  A    between atoms: C_14  and  C_15
REMARK   11  A    between atoms: C_26  and  O_27
REMARK   12  A    between atoms: O_27  and  C_28
REMARK                            x       y       z     vdW  Elec       q    Type
REMARK                         _______ _______ _______ _____ _____    ______ ____
ROOT
ATOM      1  C   UNL     1       0.122  10.894  19.816  0.00  0.00    +0.000 C 
ATOM      2  C   UNL     1       0.356  11.886  18.917  0.00  0.00    +0.000 C 
ATOM      3  C   UNL     1      -0.900  12.603  18.506  0.00  0.00    +0.000 C 
ATOM      4  O   UNL     1      -1.105  13.588  19.487  0.00  0.00    +0.000 OA
ATOM      5  C   UNL     1      -1.132  12.960  20.729  0.00  0.00    +0.000 A 
ATOM      6  C   UNL     1      -1.623  13.855  21.677  0.00  0.00    +0.000 A 
ATOM      7  C   UNL     1      -2.016  13.428  22.917  0.00  0.00    +0.000 A 
ATOM      8  C   UNL     1      -1.893  12.059  23.167  0.00  0.00    +0.000 A 
ATOM      9  C   UNL     1      -1.219  11.145  22.214  0.00  0.00    +0.000 A 
ATOM     10  C   UNL     1      -0.748  11.583  20.964  0.00  0.00    +0.000 A 
ENDROOT
BRANCH   2  11
ATOM     11  C   UNL     1       1.587  12.731  19.118  0.00  0.00    +0.000 A 
ATOM     12  C   UNL     1       2.082  13.011  20.414  0.00  0.00    +0.000 A 
ATOM     13  C   UNL     1       3.110  13.923  20.626  0.00  0.00    +0.000 A 
ATOM     14  C   UNL     1       3.652  14.583  19.536  0.00  0.00    +0.000 A 
ATOM     15  F   UNL     1       4.624  15.485  19.728  0.00  0.00    +0.000 F 
ATOM     16  C   UNL     1       3.183  14.339  18.257  0.00  0.00    +0.000 A 
ATOM     17  C   UNL     1       2.153  13.417  18.039  0.00  0.00    +0.000 A 
ENDBRANCH   2  11
BRANCH   1  21
ATOM     18  C   UNL     1       2.492   7.185  18.937  0.00  0.00    +0.000 A 
ATOM     19  C   UNL     1       2.255   8.101  17.913  0.00  0.00    +0.000 A 
ATOM     20  C   UNL     1       1.551   9.353  18.138  0.00  0.00    +0.000 A 
ATOM     21  C   UNL     1       1.056   9.720  19.399  0.00  0.00    +0.000 A 
ATOM     22  C   UNL     1       1.291   8.711  20.397  0.00  0.00    +0.000 A 
ATOM     23  C   UNL     1       1.952   7.480  20.174  0.00  0.00    +0.000 A 
BRANCH  18  24
ATOM     24  O   UNL     1       3.154   5.983  18.882  0.00  0.00    +0.000 OA
BRANCH  24  25
ATOM     25  C   UNL     1       3.536   5.393  17.619  0.00  0.00    +0.000 C 
BRANCH  25  26
ATOM     26  C   UNL     1       5.016   5.674  17.268  0.00  0.00    +0.000 C 
BRANCH  26  27
ATOM     27  N   UNL     1       5.934   4.504  17.258  0.00  0.00    +0.000 NA
BRANCH  27  29
ATOM     28  C   UNL     1       6.271   4.840  14.762  0.00  0.00    +0.000 C 
ATOM     29  C   UNL     1       5.923   3.891  15.904  0.00  0.00    +0.000 C 
ENDBRANCH  27  29
BRANCH  27  30
ATOM     30  C   UNL     1       7.286   4.764  17.773  0.00  0.00    +0.000 C 
ATOM     31  C   UNL     1       7.609   6.191  18.213  0.00  0.00    +0.000 C 
ENDBRANCH  27  30
ENDBRANCH  26  27
ENDBRANCH  25  26
ENDBRANCH  24  25
ENDBRANCH  18  24
ENDBRANCH   1  21
BRANCH   7  32
ATOM     32  O   UNL     1      -2.435  14.495  23.642  0.00  0.00    +0.000 OA
ATOM     33  C   UNL     1      -3.690  15.124  23.543  0.00  0.00    +0.000 C 
ENDBRANCH   7  32
TORSDOF 9
ENDMDL
