MODEL 1
REMARK VINA RESULT:      -7.0      0.000      0.000
REMARK  Name = 
REMARK  3 active torsions:
REMARK  status: ('A' for Active; 'I' for Inactive)
REMARK    1  A    between atoms: C_1  and  N_2
REMARK    2  A    between atoms: C_3  and  C_4
REMARK    3  A    between atoms: C_5  and  C_6
REMARK                            x       y       z     vdW  Elec       q    Type
REMARK                         _______ _______ _______ _____ _____    ______ ____
ROOT
ATOM      1  C   UNL     1       3.518   7.109  17.619  0.00  0.00    +0.000 C 
ATOM      2  N   UNL     1       3.016   6.159  18.620  0.00  0.00    +0.000 N 
ATOM      3  C   UNL     1       2.292   6.468  19.745  0.00  0.00    +0.000 A 
ATOM      4  S   UNL     1       1.913   5.060  20.620  0.00  0.00    +0.000 S 
ATOM      5  C   UNL     1       2.681   4.049  19.539  0.00  0.00    +0.000 A 
ATOM      6  C   UNL     1       2.790   2.663  19.591  0.00  0.00    +0.000 A 
ATOM      7  C   UNL     1       3.483   2.015  18.560  0.00  0.00    +0.000 A 
ATOM      8  C   UNL     1       4.049   2.759  17.509  0.00  0.00    +0.000 A 
ATOM      9  C   UNL     1       3.925   4.161  17.479  0.00  0.00    +0.000 A 
ATOM     10  C   UNL     1       3.228   4.807  18.514  0.00  0.00    +0.000 A 
ENDROOT
BRANCH   3  11
ATOM     11  C   UNL     1       1.856   7.835  20.168  0.00  0.00    +0.000 C 
ATOM     12  C   UNL     1       0.919   8.009  21.127  0.00  0.00    +0.000 C 
BRANCH  12  13
ATOM     13  C   UNL     1       0.382   9.316  21.602  0.00  0.00    +0.000 A 
ATOM     14  C   UNL     1       0.670  10.552  20.983  0.00  0.00    +0.000 A 
ATOM     15  C   UNL     1       0.108  11.737  21.479  0.00  0.00    +0.000 A 
ATOM     16  C   UNL     1      -0.740  11.706  22.588  0.00  0.00    +0.000 A 
ATOM     17  F   UNL     1      -1.285  12.855  23.060  0.00  0.00    +0.000 F 
ATOM     18  C   UNL     1      -1.028  10.491  23.209  0.00  0.00    +0.000 A 
ATOM     19  C   UNL     1      -0.472   9.306  22.721  0.00  0.00    +0.000 A 
ENDBRANCH  12  13
ENDBRANCH   3  11
TORSDOF 2
ENDMDL
MODEL 2
REMARK VINA RESULT:      -6.9      3.695      8.046
REMARK  Name = 
REMARK  3 active torsions:
REMARK  status: ('A' for Active; 'I' for Inactive)
REMARK    1  A    between atoms: C_1  and  N_2
REMARK    2  A    between atoms: C_3  and  C_4
REMARK    3  A    between atoms: C_5  and  C_6
REMARK                            x       y       z     vdW  Elec       q    Type
REMARK                         _______ _______ _______ _____ _____    ______ ____
ROOT
ATOM      1  C   UNL     1       0.012  10.472  18.078  0.00  0.00    +0.000 C 
ATOM      2  N   UNL     1       0.337   9.843  19.365  0.00  0.00    +0.000 N 
ATOM      3  C   UNL     1       1.195   8.790  19.564  0.00  0.00    +0.000 A 
ATOM      4  S   UNL     1       1.280   8.388  21.214  0.00  0.00    +0.000 S 
ATOM      5  C   UNL     1       0.209   9.581  21.673  0.00  0.00    +0.000 A 
ATOM      6  C   UNL     1      -0.234   9.889  22.956  0.00  0.00    +0.000 A 
ATOM      7  C   UNL     1      -1.138  10.948  23.107  0.00  0.00    +0.000 A 
ATOM      8  C   UNL     1      -1.579  11.670  21.984  0.00  0.00    +0.000 A 
ATOM      9  C   UNL     1      -1.117  11.340  20.696  0.00  0.00    +0.000 A 
ATOM     10  C   UNL     1      -0.208  10.278  20.548  0.00  0.00    +0.000 A 
ENDROOT
BRANCH   3  11
ATOM     11  C   UNL     1       1.984   8.081  18.509  0.00  0.00    +0.000 C 
ATOM     12  C   UNL     1       2.644   6.933  18.778  0.00  0.00    +0.000 C 
BRANCH  12  13
ATOM     13  C   UNL     1       3.488   6.162  17.820  0.00  0.00    +0.000 A 
ATOM     14  C   UNL     1       4.414   6.758  16.937  0.00  0.00    +0.000 A 
ATOM     15  C   UNL     1       5.186   5.962  16.080  0.00  0.00    +0.000 A 
ATOM     16  C   UNL     1       5.046   4.572  16.092  0.00  0.00    +0.000 A 
ATOM     17  F   UNL     1       5.800   3.806  15.265  0.00  0.00    +0.000 F 
ATOM     18  C   UNL     1       4.132   3.973  16.958  0.00  0.00    +0.000 A 
ATOM     19  C   UNL     1       3.359   4.760  17.814  0.00  0.00    +0.000 A 
ENDBRANCH  12  13
ENDBRANCH   3  11
TORSDOF 2
ENDMDL
MODEL 3
REMARK VINA RESULT:      -6.9      1.523      2.424
REMARK  Name = 
REMARK  3 active torsions:
REMARK  status: ('A' for Active; 'I' for Inactive)
REMARK    1  A    between atoms: C_1  and  N_2
REMARK    2  A    between atoms: C_3  and  C_4
REMARK    3  A    between atoms: C_5  and  C_6
REMARK                            x       y       z     vdW  Elec       q    Type
REMARK                         _______ _______ _______ _____ _____    ______ ____
ROOT
ATOM      1  C   UNL     1       2.387   4.401  19.759  0.00  0.00    +0.000 C 
ATOM      2  N   UNL     1       2.941   5.451  18.893  0.00  0.00    +0.000 N 
ATOM      3  C   UNL     1       2.717   6.801  19.005  0.00  0.00    +0.000 A 
ATOM      4  S   UNL     1       3.561   7.650  17.798  0.00  0.00    +0.000 S 
ATOM      5  C   UNL     1       4.220   6.270  17.133  0.00  0.00    +0.000 A 
ATOM      6  C   UNL     1       5.083   6.170  16.045  0.00  0.00    +0.000 A 
ATOM      7  C   UNL     1       5.519   4.895  15.662  0.00  0.00    +0.000 A 
ATOM      8  C   UNL     1       5.088   3.757  16.366  0.00  0.00    +0.000 A 
ATOM      9  C   UNL     1       4.214   3.884  17.463  0.00  0.00    +0.000 A 
ATOM     10  C   UNL     1       3.780   5.165  17.846  0.00  0.00    +0.000 A 
ENDROOT
BRANCH   3  11
ATOM     11  C   UNL     1       1.877   7.475  20.043  0.00  0.00    +0.000 C 
ATOM     12  C   UNL     1       1.366   8.710  19.840  0.00  0.00    +0.000 C 
BRANCH  12  13
ATOM     13  C   UNL     1       0.549   9.491  20.812  0.00  0.00    +0.000 A 
ATOM     14  C   UNL     1      -0.148  10.672  20.477  0.00  0.00    +0.000 A 
ATOM     15  C   UNL     1      -0.912  11.339  21.445  0.00  0.00    +0.000 A 
ATOM     16  C   UNL     1      -0.990  10.842  22.748  0.00  0.00    +0.000 A 
ATOM     17  F   UNL     1      -1.735  11.488  23.679  0.00  0.00    +0.000 F 
ATOM     18  C   UNL     1      -0.302   9.679  23.090  0.00  0.00    +0.000 A 
ATOM     19  C   UNL     1       0.462   9.009  22.131  0.00  0.00    +0.000 A 
ENDBRANCH  12  13
ENDBRANCH   3  11
TORSDOF 2
ENDMDL
MODEL 4
REMARK VINA RESULT:      -6.8      1.213      1.977
REMARK  Name = 
REMARK  3 active torsions:
REMARK  status: ('A' for Active; 'I' for Inactive)
REMARK    1  A    between atoms: C_1  and  N_2
REMARK    2  A    between atoms: C_3  and  C_4
REMARK    3  A    between atoms: C_5  and  C_6
REMARK                            x       y       z     vdW  Elec       q    Type
REMARK                         _______ _______ _______ _____ _____    ______ ____
ROOT
ATOM      1  C   UNL     1       2.089   4.452  21.056  0.00  0.00    +0.000 C 
ATOM      2  N   UNL     1       2.544   5.270  19.924  0.00  0.00    +0.000 N 
ATOM      3  C   UNL     1       2.315   6.612  19.744  0.00  0.00    +0.000 A 
ATOM      4  S   UNL     1       3.029   7.154  18.299  0.00  0.00    +0.000 S 
ATOM      5  C   UNL     1       3.640   5.652  17.908  0.00  0.00    +0.000 A 
ATOM      6  C   UNL     1       4.396   5.297  16.795  0.00  0.00    +0.000 A 
ATOM      7  C   UNL     1       4.810   3.964  16.675  0.00  0.00    +0.000 A 
ATOM      8  C   UNL     1       4.462   3.022  17.659  0.00  0.00    +0.000 A 
ATOM      9  C   UNL     1       3.696   3.405  18.776  0.00  0.00    +0.000 A 
ATOM     10  C   UNL     1       3.284   4.744  18.895  0.00  0.00    +0.000 A 
ENDROOT
BRANCH   3  11
ATOM     11  C   UNL     1       1.569   7.514  20.675  0.00  0.00    +0.000 C 
ATOM     12  C   UNL     1       1.157   8.741  20.285  0.00  0.00    +0.000 C 
BRANCH  12  13
ATOM     13  C   UNL     1       0.441   9.736  21.134  0.00  0.00    +0.000 A 
ATOM     14  C   UNL     1       0.294  11.097  20.789  0.00  0.00    +0.000 A 
ATOM     15  C   UNL     1      -0.412  11.966  21.632  0.00  0.00    +0.000 A 
ATOM     16  C   UNL     1      -0.976  11.494  22.820  0.00  0.00    +0.000 A 
ATOM     17  F   UNL     1      -1.663  12.339  23.629  0.00  0.00    +0.000 F 
ATOM     18  C   UNL     1      -0.834  10.153  23.171  0.00  0.00    +0.000 A 
ATOM     19  C   UNL     1      -0.132   9.281  22.336  0.00  0.00    +0.000 A 
ENDBRANCH  12  13
ENDBRANCH   3  11
TORSDOF 2
ENDMDL
MODEL 5
REMARK VINA RESULT:      -6.7      1.373      2.472
REMARK  Name = 
REMARK  3 active torsions:
REMARK  status: ('A' for Active; 'I' for Inactive)
REMARK    1  A    between atoms: C_1  and  N_2
REMARK    2  A    between atoms: C_3  and  C_4
REMARK    3  A    between atoms: C_5  and  C_6
REMARK                            x       y       z     vdW  Elec       q    Type
REMARK                         _______ _______ _______ _____ _____    ______ ____
ROOT
ATOM      1  C   UNL     1       2.520   4.619  20.436  0.00  0.00    +0.000 C 
ATOM      2  N   UNL     1       2.903   5.591  19.402  0.00  0.00    +0.000 N 
ATOM      3  C   UNL     1       2.571   6.923  19.374  0.00  0.00    +0.000 A 
ATOM      4  S   UNL     1       3.230   7.675  17.999  0.00  0.00    +0.000 S 
ATOM      5  C   UNL     1       3.950   6.277  17.443  0.00  0.00    +0.000 A 
ATOM      6  C   UNL     1       4.722   6.107  16.297  0.00  0.00    +0.000 A 
ATOM      7  C   UNL     1       5.235   4.831  16.029  0.00  0.00    +0.000 A 
ATOM      8  C   UNL     1       4.967   3.761  16.901  0.00  0.00    +0.000 A 
ATOM      9  C   UNL     1       4.183   3.958  18.053  0.00  0.00    +0.000 A 
ATOM     10  C   UNL     1       3.672   5.240  18.321  0.00  0.00    +0.000 A 
ENDROOT
BRANCH   3  11
ATOM     11  C   UNL     1       1.766   7.656  20.399  0.00  0.00    +0.000 C 
ATOM     12  C   UNL     1       1.137   8.815  20.102  0.00  0.00    +0.000 C 
BRANCH  12  13
ATOM     13  C   UNL     1       0.341   9.648  21.048  0.00  0.00    +0.000 A 
ATOM     14  C   UNL     1      -0.074   9.205  22.322  0.00  0.00    +0.000 A 
ATOM     15  C   UNL     1      -0.804  10.058  23.163  0.00  0.00    +0.000 A 
ATOM     16  C   UNL     1      -1.127  11.351  22.747  0.00  0.00    +0.000 A 
ATOM     17  F   UNL     1      -1.828  12.174  23.566  0.00  0.00    +0.000 F 
ATOM     18  C   UNL     1      -0.725  11.798  21.489  0.00  0.00    +0.000 A 
ATOM     19  C   UNL     1       0.002  10.954  20.646  0.00  0.00    +0.000 A 
ENDBRANCH  12  13
ENDBRANCH   3  11
TORSDOF 2
ENDMDL
MODEL 6
REMARK VINA RESULT:      -6.7      8.005     10.777
REMARK  Name = 
REMARK  3 active torsions:
REMARK  status: ('A' for Active; 'I' for Inactive)
REMARK    1  A    between atoms: C_1  and  N_2
REMARK    2  A    between atoms: C_3  and  C_4
REMARK    3  A    between atoms: C_5  and  C_6
REMARK                            x       y       z     vdW  Elec       q    Type
REMARK                         _______ _______ _______ _____ _____    ______ ____
ROOT
ATOM      1  C   UNL     1       7.627  12.857  17.138  0.00  0.00    +0.000 C 
ATOM      2  N   UNL     1       8.760  12.423  17.966  0.00  0.00    +0.000 N 
ATOM      3  C   UNL     1       9.069  11.130  18.310  0.00  0.00    +0.000 A 
ATOM      4  S   UNL     1      10.468  11.084  19.275  0.00  0.00    +0.000 S 
ATOM      5  C   UNL     1      10.678  12.738  19.243  0.00  0.00    +0.000 A 
ATOM      6  C   UNL     1      11.686  13.486  19.844  0.00  0.00    +0.000 A 
ATOM      7  C   UNL     1      11.666  14.877  19.677  0.00  0.00    +0.000 A 
ATOM      8  C   UNL     1      10.649  15.486  18.921  0.00  0.00    +0.000 A 
ATOM      9  C   UNL     1       9.640  14.708  18.323  0.00  0.00    +0.000 A 
ATOM     10  C   UNL     1       9.664  13.312  18.491  0.00  0.00    +0.000 A 
ENDROOT
BRANCH   3  11
ATOM     11  C   UNL     1       8.321   9.902  17.896  0.00  0.00    +0.000 C 
ATOM     12  C   UNL     1       8.519   8.717  18.515  0.00  0.00    +0.000 C 
BRANCH  12  13
ATOM     13  C   UNL     1       7.861   7.425  18.166  0.00  0.00    +0.000 A 
ATOM     14  C   UNL     1       8.060   6.226  18.885  0.00  0.00    +0.000 A 
ATOM     15  C   UNL     1       7.387   5.056  18.505  0.00  0.00    +0.000 A 
ATOM     16  C   UNL     1       6.515   5.066  17.414  0.00  0.00    +0.000 A 
ATOM     17  F   UNL     1       5.863   3.932  17.055  0.00  0.00    +0.000 F 
ATOM     18  C   UNL     1       6.314   6.243  16.695  0.00  0.00    +0.000 A 
ATOM     19  C   UNL     1       6.981   7.413  17.068  0.00  0.00    +0.000 A 
ENDBRANCH  12  13
ENDBRANCH   3  11
TORSDOF 2
ENDMDL
MODEL 7
REMARK VINA RESULT:      -6.7      0.460      1.146
REMARK  Name = 
REMARK  3 active torsions:
REMARK  status: ('A' for Active; 'I' for Inactive)
REMARK    1  A    between atoms: C_1  and  N_2
REMARK    2  A    between atoms: C_3  and  C_4
REMARK    3  A    between atoms: C_5  and  C_6
REMARK                            x       y       z     vdW  Elec       q    Type
REMARK                         _______ _______ _______ _____ _____    ______ ____
ROOT
ATOM      1  C   UNL     1       3.228   7.281  17.875  0.00  0.00    +0.000 C 
ATOM      2  N   UNL     1       2.832   6.227  18.818  0.00  0.00    +0.000 N 
ATOM      3  C   UNL     1       2.186   6.406  20.016  0.00  0.00    +0.000 A 
ATOM      4  S   UNL     1       1.917   4.912  20.782  0.00  0.00    +0.000 S 
ATOM      5  C   UNL     1       2.633   4.032  19.560  0.00  0.00    +0.000 A 
ATOM      6  C   UNL     1       2.788   2.651  19.475  0.00  0.00    +0.000 A 
ATOM      7  C   UNL     1       3.422   2.125  18.342  0.00  0.00    +0.000 A 
ATOM      8  C   UNL     1       3.884   2.981  17.326  0.00  0.00    +0.000 A 
ATOM      9  C   UNL     1       3.715   4.374  17.435  0.00  0.00    +0.000 A 
ATOM     10  C   UNL     1       3.077   4.899  18.572  0.00  0.00    +0.000 A 
ENDROOT
BRANCH   3  11
ATOM     11  C   UNL     1       1.740   7.712  20.593  0.00  0.00    +0.000 C 
ATOM     12  C   UNL     1       0.450   7.926  20.934  0.00  0.00    +0.000 C 
BRANCH  12  13
ATOM     13  C   UNL     1      -0.114   9.193  21.481  0.00  0.00    +0.000 A 
ATOM     14  C   UNL     1      -0.475   9.370  22.835  0.00  0.00    +0.000 A 
ATOM     15  C   UNL     1      -0.979  10.601  23.276  0.00  0.00    +0.000 A 
ATOM     16  C   UNL     1      -1.130  11.663  22.381  0.00  0.00    +0.000 A 
ATOM     17  F   UNL     1      -1.614  12.854  22.815  0.00  0.00    +0.000 F 
ATOM     18  C   UNL     1      -0.781  11.499  21.042  0.00  0.00    +0.000 A 
ATOM     19  C   UNL     1      -0.277  10.275  20.595  0.00  0.00    +0.000 A 
ENDBRANCH  12  13
ENDBRANCH   3  11
TORSDOF 2
ENDMDL
MODEL 8
REMARK VINA RESULT:      -6.7      8.244     10.951
REMARK  Name = 
REMARK  3 active torsions:
REMARK  status: ('A' for Active; 'I' for Inactive)
REMARK    1  A    between atoms: C_1  and  N_2
REMARK    2  A    between atoms: C_3  and  C_4
REMARK    3  A    between atoms: C_5  and  C_6
REMARK                            x       y       z     vdW  Elec       q    Type
REMARK                         _______ _______ _______ _____ _____    ______ ____
ROOT
ATOM      1  C   UNL     1       8.979  11.530  21.587  0.00  0.00    +0.000 C 
ATOM      2  N   UNL     1       9.599  11.835  20.291  0.00  0.00    +0.000 N 
ATOM      3  C   UNL     1       9.707  10.984  19.219  0.00  0.00    +0.000 A 
ATOM      4  S   UNL     1      10.489  11.752  17.919  0.00  0.00    +0.000 S 
ATOM      5  C   UNL     1      10.684  13.189  18.742  0.00  0.00    +0.000 A 
ATOM      6  C   UNL     1      11.273  14.365  18.287  0.00  0.00    +0.000 A 
ATOM      7  C   UNL     1      11.321  15.461  19.158  0.00  0.00    +0.000 A 
ATOM      8  C   UNL     1      10.785  15.361  20.455  0.00  0.00    +0.000 A 
ATOM      9  C   UNL     1      10.195  14.160  20.892  0.00  0.00    +0.000 A 
ATOM     10  C   UNL     1      10.147  13.063  20.015  0.00  0.00    +0.000 A 
ENDROOT
BRANCH   3  11
ATOM     11  C   UNL     1       9.201   9.578  19.152  0.00  0.00    +0.000 C 
ATOM     12  C   UNL     1       8.391   9.170  18.150  0.00  0.00    +0.000 C 
BRANCH  12  13
ATOM     13  C   UNL     1       7.798   7.810  18.000  0.00  0.00    +0.000 A 
ATOM     14  C   UNL     1       8.156   6.707  18.805  0.00  0.00    +0.000 A 
ATOM     15  C   UNL     1       7.537   5.464  18.615  0.00  0.00    +0.000 A 
ATOM     16  C   UNL     1       6.560   5.306  17.628  0.00  0.00    +0.000 A 
ATOM     17  F   UNL     1       5.960   4.102  17.453  0.00  0.00    +0.000 F 
ATOM     18  C   UNL     1       6.201   6.387  16.826  0.00  0.00    +0.000 A 
ATOM     19  C   UNL     1       6.814   7.629  17.010  0.00  0.00    +0.000 A 
ENDBRANCH  12  13
ENDBRANCH   3  11
TORSDOF 2
ENDMDL
MODEL 9
REMARK VINA RESULT:      -6.7      3.858      8.155
REMARK  Name = 
REMARK  3 active torsions:
REMARK  status: ('A' for Active; 'I' for Inactive)
REMARK    1  A    between atoms: C_1  and  N_2
REMARK    2  A    between atoms: C_3  and  C_4
REMARK    3  A    between atoms: C_5  and  C_6
REMARK                            x       y       z     vdW  Elec       q    Type
REMARK                         _______ _______ _______ _____ _____    ______ ____
ROOT
ATOM      1  C   UNL     1       1.483   7.094  20.931  0.00  0.00    +0.000 C 
ATOM      2  N   UNL     1       1.229   8.433  20.385  0.00  0.00    +0.000 N 
ATOM      3  C   UNL     1       1.612   8.897  19.151  0.00  0.00    +0.000 A 
ATOM      4  S   UNL     1       1.104  10.504  18.930  0.00  0.00    +0.000 S 
ATOM      5  C   UNL     1       0.383  10.599  20.430  0.00  0.00    +0.000 A 
ATOM      6  C   UNL     1      -0.293  11.680  20.990  0.00  0.00    +0.000 A 
ATOM      7  C   UNL     1      -0.829  11.530  22.276  0.00  0.00    +0.000 A 
ATOM      8  C   UNL     1      -0.679  10.316  22.970  0.00  0.00    +0.000 A 
ATOM      9  C   UNL     1       0.009   9.238  22.383  0.00  0.00    +0.000 A 
ATOM     10  C   UNL     1       0.544   9.391  21.091  0.00  0.00    +0.000 A 
ENDROOT
BRANCH   3  11
ATOM     11  C   UNL     1       2.353   8.123  18.107  0.00  0.00    +0.000 C 
ATOM     12  C   UNL     1       3.021   6.989  18.415  0.00  0.00    +0.000 C 
BRANCH  12  13
ATOM     13  C   UNL     1       3.821   6.159  17.469  0.00  0.00    +0.000 A 
ATOM     14  C   UNL     1       4.759   6.693  16.559  0.00  0.00    +0.000 A 
ATOM     15  C   UNL     1       5.487   5.842  15.716  0.00  0.00    +0.000 A 
ATOM     16  C   UNL     1       5.291   4.460  15.768  0.00  0.00    +0.000 A 
ATOM     17  F   UNL     1       6.003   3.641  14.953  0.00  0.00    +0.000 F 
ATOM     18  C   UNL     1       4.365   3.923  16.660  0.00  0.00    +0.000 A 
ATOM     19  C   UNL     1       3.635   4.764  17.503  0.00  0.00    +0.000 A 
ENDBRANCH  12  13
ENDBRANCH   3  11
TORSDOF 2
ENDMDL
