MODEL 1
REMARK VINA RESULT:      -8.3      0.000      0.000
REMARK  Name = 
REMARK  2 active torsions:
REMARK  status: ('A' for Active; 'I' for Inactive)
REMARK    1  A    between atoms: C_2  and  C_4
REMARK    2  A    between atoms: C_9  and  C_10
REMARK                            x       y       z     vdW  Elec       q    Type
REMARK                         _______ _______ _______ _____ _____    ______ ____
ROOT
ATOM      1  C   UNL     1       3.472   5.939  18.520  0.00  0.00    +0.000 A 
ATOM      2  C   UNL     1       3.163   5.375  19.613  0.00  0.00    +0.000 A 
ATOM      3  N   UNL     1       2.219   6.090  20.587  0.00  0.00    +0.000 NA
ATOM      4  C   UNL     1       1.830   7.400  20.240  0.00  0.00    +0.000 A 
ATOM      5  C   UNL     1       2.172   7.578  18.972  0.00  0.00    +0.000 A 
ATOM      6  C   UNL     1       2.878   7.081  18.041  0.00  0.00    +0.000 A 
ATOM      7  C   UNL     1       1.719   8.951  18.767  0.00  0.00    +0.000 C 
ATOM      8  C   UNL     1       1.816   9.894  17.767  0.00  0.00    +0.000 C 
ATOM      9  C   UNL     1       1.026  10.288  19.056  0.00  0.00    +0.000 C 
ATOM     10  N   UNL     1       0.979   8.875  20.514  0.00  0.00    +0.000 N 
ATOM     11  C   UNL     1       0.232   8.901  21.650  0.00  0.00    +0.000 C 
ATOM     12  N   UNL     1      -0.290  10.099  21.174  0.00  0.00    +0.000 N 
ATOM     13  O   UNL     1      -0.444   8.942  22.660  0.00  0.00    +0.000 OA
ATOM     14  H   UNL     1       0.095   9.713  20.343  0.00  0.00    +0.000 HD
ATOM     15  H   UNL     1      -0.281  10.877  20.562  0.00  0.00    +0.000 HD
ENDROOT
BRANCH   1  21
ATOM     16  C   UNL     1       4.533   4.318  16.890  0.00  0.00    +0.000 A 
ATOM     17  C   UNL     1       5.528   4.084  15.971  0.00  0.00    +0.000 A 
ATOM     18  C   UNL     1       6.431   5.109  15.690  0.00  0.00    +0.000 A 
ATOM     19  N   UNL     1       6.453   6.286  16.335  0.00  0.00    +0.000 NA
ATOM     20  C   UNL     1       5.468   6.524  17.188  0.00  0.00    +0.000 A 
ATOM     21  C   UNL     1       4.454   5.605  17.457  0.00  0.00    +0.000 A 
BRANCH  16  23
ATOM     22  N   UNL     1       3.964   2.188  18.062  0.00  0.00    +0.000 N 
ATOM     23  C   UNL     1       3.550   3.225  17.256  0.00  0.00    +0.000 C 
ATOM     24  O   UNL     1       2.394   3.285  16.862  0.00  0.00    +0.000 OA
ATOM     25  H   UNL     1       3.290   1.462  18.289  0.00  0.00    +0.000 HD
ATOM     26  H   UNL     1       4.889   2.088  18.453  0.00  0.00    +0.000 HD
ENDBRANCH  16  23
ENDBRANCH   1  21
TORSDOF 2
ENDMDL
MODEL 2
REMARK VINA RESULT:      -7.7      2.585      3.911
REMARK  Name = 
REMARK  2 active torsions:
REMARK  status: ('A' for Active; 'I' for Inactive)
REMARK    1  A    between atoms: C_2  and  C_4
REMARK    2  A    between atoms: C_9  and  C_10
REMARK                            x       y       z     vdW  Elec       q    Type
REMARK                         _______ _______ _______ _____ _____    ______ ____
ROOT
ATOM      1  C   UNL     1       2.395   6.119  19.616  0.00  0.00    +0.000 A 
ATOM      2  C   UNL     1       2.940   6.650  18.603  0.00  0.00    +0.000 A 
ATOM      3  N   UNL     1       2.696   8.135  18.310  0.00  0.00    +0.000 NA
ATOM      4  C   UNL     1       1.780   8.800  19.151  0.00  0.00    +0.000 A 
ATOM      5  C   UNL     1       1.569   8.007  20.192  0.00  0.00    +0.000 A 
ATOM      6  C   UNL     1       1.737   6.817  20.600  0.00  0.00    +0.000 A 
ATOM      7  C   UNL     1       0.617   8.815  20.950  0.00  0.00    +0.000 C 
ATOM      8  C   UNL     1      -0.160   8.645  22.074  0.00  0.00    +0.000 C 
ATOM      9  C   UNL     1      -0.228  10.028  21.352  0.00  0.00    +0.000 C 
ATOM     10  N   UNL     1       0.892  10.186  19.666  0.00  0.00    +0.000 N 
ATOM     11  C   UNL     1       1.136  11.318  18.953  0.00  0.00    +0.000 C 
ATOM     12  N   UNL     1       0.393  11.983  19.923  0.00  0.00    +0.000 N 
ATOM     13  O   UNL     1       1.342  12.342  18.328  0.00  0.00    +0.000 OA
ATOM     14  H   UNL     1       0.613  11.137  20.395  0.00  0.00    +0.000 HD
ATOM     15  H   UNL     1      -0.233  12.000  20.689  0.00  0.00    +0.000 HD
ENDROOT
BRANCH   1  21
ATOM     16  C   UNL     1       2.048   3.645  19.203  0.00  0.00    +0.000 A 
ATOM     17  C   UNL     1       1.894   2.391  19.744  0.00  0.00    +0.000 A 
ATOM     18  C   UNL     1       1.941   2.252  21.131  0.00  0.00    +0.000 A 
ATOM     19  N   UNL     1       2.028   3.284  21.984  0.00  0.00    +0.000 NA
ATOM     20  C   UNL     1       2.220   4.485  21.460  0.00  0.00    +0.000 A 
ATOM     21  C   UNL     1       2.298   4.713  20.087  0.00  0.00    +0.000 A 
BRANCH  16  23
ATOM     22  N   UNL     1       3.081   3.606  16.930  0.00  0.00    +0.000 N 
ATOM     23  C   UNL     1       1.969   3.852  17.705  0.00  0.00    +0.000 C 
ATOM     24  O   UNL     1       0.917   4.206  17.191  0.00  0.00    +0.000 OA
ATOM     25  H   UNL     1       3.007   3.758  15.927  0.00  0.00    +0.000 HD
ATOM     26  H   UNL     1       3.971   3.280  17.276  0.00  0.00    +0.000 HD
ENDBRANCH  16  23
ENDBRANCH   1  21
TORSDOF 2
ENDMDL
MODEL 3
REMARK VINA RESULT:      -7.6      1.552      1.597
REMARK  Name = 
REMARK  2 active torsions:
REMARK  status: ('A' for Active; 'I' for Inactive)
REMARK    1  A    between atoms: C_2  and  C_4
REMARK    2  A    between atoms: C_9  and  C_10
REMARK                            x       y       z     vdW  Elec       q    Type
REMARK                         _______ _______ _______ _____ _____    ______ ____
ROOT
ATOM      1  C   UNL     1       3.571   6.146  18.433  0.00  0.00    +0.000 A 
ATOM      2  C   UNL     1       3.181   5.515  19.461  0.00  0.00    +0.000 A 
ATOM      3  N   UNL     1       2.166   6.170  20.405  0.00  0.00    +0.000 NA
ATOM      4  C   UNL     1       1.804   7.502  20.114  0.00  0.00    +0.000 A 
ATOM      5  C   UNL     1       2.240   7.759  18.889  0.00  0.00    +0.000 A 
ATOM      6  C   UNL     1       3.014   7.319  17.984  0.00  0.00    +0.000 A 
ATOM      7  C   UNL     1       1.803   9.144  18.739  0.00  0.00    +0.000 C 
ATOM      8  C   UNL     1       1.974  10.148  17.811  0.00  0.00    +0.000 C 
ATOM      9  C   UNL     1       1.089  10.462  19.060  0.00  0.00    +0.000 C 
ATOM     10  N   UNL     1       0.934   8.960  20.417  0.00  0.00    +0.000 N 
ATOM     11  C   UNL     1       0.103   8.917  21.493  0.00  0.00    +0.000 C 
ATOM     12  N   UNL     1      -0.382  10.145  21.056  0.00  0.00    +0.000 N 
ATOM     13  O   UNL     1      -0.647   8.897  22.450  0.00  0.00    +0.000 OA
ATOM     14  H   UNL     1       0.064   9.811  20.233  0.00  0.00    +0.000 HD
ATOM     15  H   UNL     1      -0.328  10.960  20.498  0.00  0.00    +0.000 HD
ENDROOT
BRANCH   1  21
ATOM     16  C   UNL     1       5.780   5.124  17.736  0.00  0.00    +0.000 A 
ATOM     17  C   UNL     1       6.742   4.997  16.763  0.00  0.00    +0.000 A 
ATOM     18  C   UNL     1       6.554   5.659  15.549  0.00  0.00    +0.000 A 
ATOM     19  N   UNL     1       5.536   6.497  15.303  0.00  0.00    +0.000 NA
ATOM     20  C   UNL     1       4.589   6.582  16.225  0.00  0.00    +0.000 A 
ATOM     21  C   UNL     1       4.630   5.876  17.427  0.00  0.00    +0.000 A 
BRANCH  16  23
ATOM     22  N   UNL     1       5.431   3.198  19.287  0.00  0.00    +0.000 N 
ATOM     23  C   UNL     1       5.956   4.455  19.084  0.00  0.00    +0.000 C 
ATOM     24  O   UNL     1       6.584   5.019  19.969  0.00  0.00    +0.000 OA
ATOM     25  H   UNL     1       5.556   2.771  20.201  0.00  0.00    +0.000 HD
ATOM     26  H   UNL     1       4.933   2.657  18.596  0.00  0.00    +0.000 HD
ENDBRANCH  16  23
ENDBRANCH   1  21
TORSDOF 2
ENDMDL
MODEL 4
REMARK VINA RESULT:      -7.5      0.962      1.012
REMARK  Name = 
REMARK  2 active torsions:
REMARK  status: ('A' for Active; 'I' for Inactive)
REMARK    1  A    between atoms: C_2  and  C_4
REMARK    2  A    between atoms: C_9  and  C_10
REMARK                            x       y       z     vdW  Elec       q    Type
REMARK                         _______ _______ _______ _____ _____    ______ ____
ROOT
ATOM      1  C   UNL     1       2.822   6.204  18.971  0.00  0.00    +0.000 A 
ATOM      2  C   UNL     1       2.412   5.789  20.097  0.00  0.00    +0.000 A 
ATOM      3  N   UNL     1       1.590   6.725  20.990  0.00  0.00    +0.000 NA
ATOM      4  C   UNL     1       1.427   8.049  20.533  0.00  0.00    +0.000 A 
ATOM      5  C   UNL     1       1.807   8.066  19.263  0.00  0.00    +0.000 A 
ATOM      6  C   UNL     1       2.430   7.386  18.391  0.00  0.00    +0.000 A 
ATOM      7  C   UNL     1       1.590   9.474  18.942  0.00  0.00    +0.000 C 
ATOM      8  C   UNL     1       1.851  10.304  17.874  0.00  0.00    +0.000 C 
ATOM      9  C   UNL     1       1.124  10.924  19.110  0.00  0.00    +0.000 C 
ATOM     10  N   UNL     1       0.829   9.661  20.672  0.00  0.00    +0.000 N 
ATOM     11  C   UNL     1       0.085   9.901  21.784  0.00  0.00    +0.000 C 
ATOM     12  N   UNL     1      -0.226  11.126  21.204  0.00  0.00    +0.000 N 
ATOM     13  O   UNL     1      -0.586  10.134  22.772  0.00  0.00    +0.000 OA
ATOM     14  H   UNL     1       0.097  10.616  20.415  0.00  0.00    +0.000 HD
ATOM     15  H   UNL     1      -0.082  11.840  20.535  0.00  0.00    +0.000 HD
ENDROOT
BRANCH   1  21
ATOM     16  C   UNL     1       3.514   4.374  17.365  0.00  0.00    +0.000 A 
ATOM     17  C   UNL     1       4.468   3.890  16.502  0.00  0.00    +0.000 A 
ATOM     18  C   UNL     1       5.629   4.637  16.304  0.00  0.00    +0.000 A 
ATOM     19  N   UNL     1       5.922   5.757  16.981  0.00  0.00    +0.000 NA
ATOM     20  C   UNL     1       4.984   6.244  17.778  0.00  0.00    +0.000 A 
ATOM     21  C   UNL     1       3.746   5.629  17.960  0.00  0.00    +0.000 A 
BRANCH  16  23
ATOM     22  N   UNL     1       2.323   2.452  18.426  0.00  0.00    +0.000 N 
ATOM     23  C   UNL     1       2.252   3.582  17.641  0.00  0.00    +0.000 C 
ATOM     24  O   UNL     1       1.180   3.965  17.194  0.00  0.00    +0.000 OA
ATOM     25  H   UNL     1       1.465   1.933  18.593  0.00  0.00    +0.000 HD
ATOM     26  H   UNL     1       3.162   2.095  18.857  0.00  0.00    +0.000 HD
ENDBRANCH  16  23
ENDBRANCH   1  21
TORSDOF 2
ENDMDL
MODEL 5
REMARK VINA RESULT:      -7.5      1.825      2.390
REMARK  Name = 
REMARK  2 active torsions:
REMARK  status: ('A' for Active; 'I' for Inactive)
REMARK    1  A    between atoms: C_2  and  C_4
REMARK    2  A    between atoms: C_9  and  C_10
REMARK                            x       y       z     vdW  Elec       q    Type
REMARK                         _______ _______ _______ _____ _____    ______ ____
ROOT
ATOM      1  C   UNL     1       4.066   5.142  18.396  0.00  0.00    +0.000 A 
ATOM      2  C   UNL     1       3.746   4.659  19.523  0.00  0.00    +0.000 A 
ATOM      3  N   UNL     1       2.790   5.440  20.432  0.00  0.00    +0.000 NA
ATOM      4  C   UNL     1       2.403   6.720  19.986  0.00  0.00    +0.000 A 
ATOM      5  C   UNL     1       2.758   6.806  18.712  0.00  0.00    +0.000 A 
ATOM      6  C   UNL     1       3.474   6.244  17.828  0.00  0.00    +0.000 A 
ATOM      7  C   UNL     1       2.305   8.160  18.403  0.00  0.00    +0.000 C 
ATOM      8  C   UNL     1       2.410   9.027  17.337  0.00  0.00    +0.000 C 
ATOM      9  C   UNL     1       1.606   9.511  18.586  0.00  0.00    +0.000 C 
ATOM     10  N   UNL     1       1.546   8.209  20.143  0.00  0.00    +0.000 N 
ATOM     11  C   UNL     1       0.787   8.316  21.266  0.00  0.00    +0.000 C 
ATOM     12  N   UNL     1       0.268   9.475  20.698  0.00  0.00    +0.000 N 
ATOM     13  O   UNL     1       0.100   8.430  22.263  0.00  0.00    +0.000 OA
ATOM     14  H   UNL     1       0.662   9.030  19.901  0.00  0.00    +0.000 HD
ATOM     15  H   UNL     1       0.282  10.206  20.031  0.00  0.00    +0.000 HD
ENDROOT
BRANCH   1  21
ATOM     16  C   UNL     1       6.432   5.021  17.503  0.00  0.00    +0.000 A 
ATOM     17  C   UNL     1       7.262   4.675  16.464  0.00  0.00    +0.000 A 
ATOM     18  C   UNL     1       6.698   4.110  15.320  0.00  0.00    +0.000 A 
ATOM     19  N   UNL     1       5.377   3.972  15.127  0.00  0.00    +0.000 NA
ATOM     20  C   UNL     1       4.584   4.265  16.146  0.00  0.00    +0.000 A 
ATOM     21  C   UNL     1       5.060   4.734  17.370  0.00  0.00    +0.000 A 
BRANCH  16  23
ATOM     22  N   UNL     1       7.707   6.843  18.640  0.00  0.00    +0.000 N 
ATOM     23  C   UNL     1       6.992   5.671  18.752  0.00  0.00    +0.000 C 
ATOM     24  O   UNL     1       6.782   5.170  19.849  0.00  0.00    +0.000 OA
ATOM     25  H   UNL     1       8.079   7.257  19.491  0.00  0.00    +0.000 HD
ATOM     26  H   UNL     1       7.891   7.332  17.777  0.00  0.00    +0.000 HD
ENDBRANCH  16  23
ENDBRANCH   1  21
TORSDOF 2
ENDMDL
MODEL 6
REMARK VINA RESULT:      -7.4      2.378      3.484
REMARK  Name = 
REMARK  2 active torsions:
REMARK  status: ('A' for Active; 'I' for Inactive)
REMARK    1  A    between atoms: C_2  and  C_4
REMARK    2  A    between atoms: C_9  and  C_10
REMARK                            x       y       z     vdW  Elec       q    Type
REMARK                         _______ _______ _______ _____ _____    ______ ____
ROOT
ATOM      1  C   UNL     1       2.724   6.570  18.136  0.00  0.00    +0.000 A 
ATOM      2  C   UNL     1       3.036   7.394  17.225  0.00  0.00    +0.000 A 
ATOM      3  N   UNL     1       2.673   8.874  17.393  0.00  0.00    +0.000 NA
ATOM      4  C   UNL     1       1.911   9.210  18.530  0.00  0.00    +0.000 A 
ATOM      5  C   UNL     1       1.944   8.160  19.338  0.00  0.00    +0.000 A 
ATOM      6  C   UNL     1       2.242   6.926  19.372  0.00  0.00    +0.000 A 
ATOM      7  C   UNL     1       1.124   8.650  20.442  0.00  0.00    +0.000 C 
ATOM      8  C   UNL     1       0.591   8.124  21.599  0.00  0.00    +0.000 C 
ATOM      9  C   UNL     1       0.321   9.634  21.301  0.00  0.00    +0.000 C 
ATOM     10  N   UNL     1       1.081  10.326  19.550  0.00  0.00    +0.000 N 
ATOM     11  C   UNL     1       1.129  11.621  19.139  0.00  0.00    +0.000 C 
ATOM     12  N   UNL     1       0.562  11.941  20.368  0.00  0.00    +0.000 N 
ATOM     13  O   UNL     1       1.163  12.786  18.788  0.00  0.00    +0.000 OA
ATOM     14  H   UNL     1       0.908  11.026  20.547  0.00  0.00    +0.000 HD
ATOM     15  H   UNL     1       0.099  11.699  21.209  0.00  0.00    +0.000 HD
ENDROOT
BRANCH   1  21
ATOM     16  C   UNL     1       4.003   4.395  18.354  0.00  0.00    +0.000 A 
ATOM     17  C   UNL     1       3.963   3.022  18.339  0.00  0.00    +0.000 A 
ATOM     18  C   UNL     1       2.734   2.393  18.139  0.00  0.00    +0.000 A 
ATOM     19  N   UNL     1       1.596   3.045  17.860  0.00  0.00    +0.000 NA
ATOM     20  C   UNL     1       1.628   4.367  17.919  0.00  0.00    +0.000 A 
ATOM     21  C   UNL     1       2.784   5.088  18.218  0.00  0.00    +0.000 A 
BRANCH  16  23
ATOM     22  N   UNL     1       6.067   5.446  17.420  0.00  0.00    +0.000 N 
ATOM     23  C   UNL     1       5.318   5.126  18.531  0.00  0.00    +0.000 C 
ATOM     24  O   UNL     1       5.691   5.452  19.650  0.00  0.00    +0.000 OA
ATOM     25  H   UNL     1       6.950   5.930  17.563  0.00  0.00    +0.000 HD
ATOM     26  H   UNL     1       5.809   5.242  16.466  0.00  0.00    +0.000 HD
ENDBRANCH  16  23
ENDBRANCH   1  21
TORSDOF 2
ENDMDL
MODEL 7
REMARK VINA RESULT:      -7.4      2.529      4.004
REMARK  Name = 
REMARK  2 active torsions:
REMARK  status: ('A' for Active; 'I' for Inactive)
REMARK    1  A    between atoms: C_2  and  C_4
REMARK    2  A    between atoms: C_9  and  C_10
REMARK                            x       y       z     vdW  Elec       q    Type
REMARK                         _______ _______ _______ _____ _____    ______ ____
ROOT
ATOM      1  C   UNL     1       2.281   6.532  19.490  0.00  0.00    +0.000 A 
ATOM      2  C   UNL     1       2.555   7.064  18.372  0.00  0.00    +0.000 A 
ATOM      3  N   UNL     1       2.197   8.534  18.131  0.00  0.00    +0.000 NA
ATOM      4  C   UNL     1       1.479   9.183  19.156  0.00  0.00    +0.000 A 
ATOM      5  C   UNL     1       1.544   8.402  20.225  0.00  0.00    +0.000 A 
ATOM      6  C   UNL     1       1.845   7.225  20.593  0.00  0.00    +0.000 A 
ATOM      7  C   UNL     1       0.767   9.191  21.176  0.00  0.00    +0.000 C 
ATOM      8  C   UNL     1       0.279   9.015  22.453  0.00  0.00    +0.000 C 
ATOM      9  C   UNL     1      -0.005  10.383  21.753  0.00  0.00    +0.000 C 
ATOM     10  N   UNL     1       0.686  10.549  19.851  0.00  0.00    +0.000 N 
ATOM     11  C   UNL     1       0.716  11.676  19.091  0.00  0.00    +0.000 C 
ATOM     12  N   UNL     1       0.196  12.333  20.202  0.00  0.00    +0.000 N 
ATOM     13  O   UNL     1       0.735  12.694  18.426  0.00  0.00    +0.000 OA
ATOM     14  H   UNL     1       0.551  11.502  20.617  0.00  0.00    +0.000 HD
ATOM     15  H   UNL     1      -0.234  12.341  21.093  0.00  0.00    +0.000 HD
ENDROOT
BRANCH   1  21
ATOM     16  C   UNL     1       3.455   4.301  19.729  0.00  0.00    +0.000 A 
ATOM     17  C   UNL     1       3.387   2.997  20.156  0.00  0.00    +0.000 A 
ATOM     18  C   UNL     1       2.213   2.555  20.766  0.00  0.00    +0.000 A 
ATOM     19  N   UNL     1       1.101   3.297  20.875  0.00  0.00    +0.000 NA
ATOM     20  C   UNL     1       1.183   4.565  20.504  0.00  0.00    +0.000 A 
ATOM     21  C   UNL     1       2.346   5.132  19.983  0.00  0.00    +0.000 A 
BRANCH  16  23
ATOM     22  N   UNL     1       4.863   4.570  17.684  0.00  0.00    +0.000 N 
ATOM     23  C   UNL     1       4.694   4.819  19.028  0.00  0.00    +0.000 C 
ATOM     24  O   UNL     1       5.518   5.477  19.650  0.00  0.00    +0.000 OA
ATOM     25  H   UNL     1       5.705   4.922  17.236  0.00  0.00    +0.000 HD
ATOM     26  H   UNL     1       4.213   4.067  17.100  0.00  0.00    +0.000 HD
ENDBRANCH  16  23
ENDBRANCH   1  21
TORSDOF 2
ENDMDL
MODEL 8
REMARK VINA RESULT:      -7.4      2.870      7.355
REMARK  Name = 
REMARK  2 active torsions:
REMARK  status: ('A' for Active; 'I' for Inactive)
REMARK    1  A    between atoms: C_2  and  C_4
REMARK    2  A    between atoms: C_9  and  C_10
REMARK                            x       y       z     vdW  Elec       q    Type
REMARK                         _______ _______ _______ _____ _____    ______ ____
ROOT
ATOM      1  C   UNL     1       4.727   4.360  17.320  0.00  0.00    +0.000 A 
ATOM      2  C   UNL     1       5.685   5.060  17.766  0.00  0.00    +0.000 A 
ATOM      3  N   UNL     1       6.780   5.536  16.804  0.00  0.00    +0.000 NA
ATOM      4  C   UNL     1       6.699   5.068  15.477  0.00  0.00    +0.000 A 
ATOM      5  C   UNL     1       5.492   4.541  15.329  0.00  0.00    +0.000 A 
ATOM      6  C   UNL     1       4.482   4.140  15.986  0.00  0.00    +0.000 A 
ATOM      7  C   UNL     1       5.563   4.106  13.937  0.00  0.00    +0.000 C 
ATOM      8  C   UNL     1       4.770   3.375  13.079  0.00  0.00    +0.000 C 
ATOM      9  C   UNL     1       6.110   3.945  12.514  0.00  0.00    +0.000 C 
ATOM     10  N   UNL     1       7.258   4.955  13.849  0.00  0.00    +0.000 N 
ATOM     11  C   UNL     1       8.375   5.682  13.577  0.00  0.00    +0.000 C 
ATOM     12  N   UNL     1       8.145   5.371  12.241  0.00  0.00    +0.000 N 
ATOM     13  O   UNL     1       9.373   6.327  13.314  0.00  0.00    +0.000 OA
ATOM     14  H   UNL     1       7.255   5.180  12.639  0.00  0.00    +0.000 HD
ATOM     15  H   UNL     1       7.700   4.850  11.527  0.00  0.00    +0.000 HD
ENDROOT
BRANCH   1  21
ATOM     16  C   UNL     1       2.646   4.285  18.760  0.00  0.00    +0.000 A 
ATOM     17  C   UNL     1       1.709   3.512  19.403  0.00  0.00    +0.000 A 
ATOM     18  C   UNL     1       1.804   2.124  19.297  0.00  0.00    +0.000 A 
ATOM     19  N   UNL     1       2.815   1.487  18.686  0.00  0.00    +0.000 NA
ATOM     20  C   UNL     1       3.690   2.234  18.032  0.00  0.00    +0.000 A 
ATOM     21  C   UNL     1       3.620   3.626  17.985  0.00  0.00    +0.000 A 
BRANCH  16  23
ATOM     22  N   UNL     1       3.002   6.394  20.050  0.00  0.00    +0.000 N 
ATOM     23  C   UNL     1       2.607   5.796  18.874  0.00  0.00    +0.000 C 
ATOM     24  O   UNL     1       2.255   6.472  17.917  0.00  0.00    +0.000 OA
ATOM     25  H   UNL     1       2.961   7.408  20.106  0.00  0.00    +0.000 HD
ATOM     26  H   UNL     1       3.336   5.906  20.867  0.00  0.00    +0.000 HD
ENDBRANCH  16  23
ENDBRANCH   1  21
TORSDOF 2
ENDMDL
MODEL 9
REMARK VINA RESULT:      -7.4      2.081      7.167
REMARK  Name = 
REMARK  2 active torsions:
REMARK  status: ('A' for Active; 'I' for Inactive)
REMARK    1  A    between atoms: C_2  and  C_4
REMARK    2  A    between atoms: C_9  and  C_10
REMARK                            x       y       z     vdW  Elec       q    Type
REMARK                         _______ _______ _______ _____ _____    ______ ____
ROOT
ATOM      1  C   UNL     1       1.567   8.372  19.764  0.00  0.00    +0.000 A 
ATOM      2  C   UNL     1       2.157   8.702  18.692  0.00  0.00    +0.000 A 
ATOM      3  N   UNL     1       3.018   7.667  17.959  0.00  0.00    +0.000 NA
ATOM      4  C   UNL     1       3.180   6.419  18.595  0.00  0.00    +0.000 A 
ATOM      5  C   UNL     1       2.281   6.365  19.568  0.00  0.00    +0.000 A 
ATOM      6  C   UNL     1       1.482   7.087  20.240  0.00  0.00    +0.000 A 
ATOM      7  C   UNL     1       2.573   5.046  20.123  0.00  0.00    +0.000 C 
ATOM      8  C   UNL     1       2.163   4.311  21.214  0.00  0.00    +0.000 C 
ATOM      9  C   UNL     1       3.197   3.651  20.247  0.00  0.00    +0.000 C 
ATOM     10  N   UNL     1       3.805   4.815  18.698  0.00  0.00    +0.000 N 
ATOM     11  C   UNL     1       4.561   4.427  17.636  0.00  0.00    +0.000 C 
ATOM     12  N   UNL     1       4.525   3.151  18.189  0.00  0.00    +0.000 N 
ATOM     13  O   UNL     1       5.238   4.061  16.693  0.00  0.00    +0.000 OA
ATOM     14  H   UNL     1       3.764   3.585  18.657  0.00  0.00    +0.000 HD
ATOM     15  H   UNL     1       4.348   2.523  18.932  0.00  0.00    +0.000 HD
ENDROOT
BRANCH   1  21
ATOM     16  C   UNL     1      -0.071  10.190  20.414  0.00  0.00    +0.000 A 
ATOM     17  C   UNL     1      -0.666  10.906  21.425  0.00  0.00    +0.000 A 
ATOM     18  C   UNL     1      -0.330  10.602  22.745  0.00  0.00    +0.000 A 
ATOM     19  N   UNL     1       0.617   9.716  23.091  0.00  0.00    +0.000 NA
ATOM     20  C   UNL     1       1.155   8.998  22.118  0.00  0.00    +0.000 A 
ATOM     21  C   UNL     1       0.807   9.151  20.776  0.00  0.00    +0.000 A 
BRANCH  16  23
ATOM     22  N   UNL     1       0.311  11.524  18.338  0.00  0.00    +0.000 N 
ATOM     23  C   UNL     1      -0.375  10.508  18.964  0.00  0.00    +0.000 C 
ATOM     24  O   UNL     1      -1.202   9.844  18.354  0.00  0.00    +0.000 OA
ATOM     25  H   UNL     1       0.086  11.724  17.367  0.00  0.00    +0.000 HD
ATOM     26  H   UNL     1       1.028  12.091  18.764  0.00  0.00    +0.000 HD
ENDBRANCH  16  23
ENDBRANCH   1  21
TORSDOF 2
ENDMDL
