MODEL 1
REMARK VINA RESULT:      -8.9      0.000      0.000
REMARK  Name = 
REMARK  10 active torsions:
REMARK  status: ('A' for Active; 'I' for Inactive)
REMARK    1  A    between atoms: C_1  and  C_2
REMARK    2  A    between atoms: C_2  and  C_3
REMARK    3  A    between atoms: C_2  and  C_4
REMARK    4  A    between atoms: C_4  and  C_5
REMARK    5  A    between atoms: C_5  and  N_6
REMARK    6  A    between atoms: C_7  and  C_9
REMARK    7  A    between atoms: C_9  and  C_10
REMARK    8  A    between atoms: C_10  and  C_11
REMARK    9  A    between atoms: N_13  and  N_14
REMARK   10  A    between atoms: C_25  and  C_26
REMARK                            x       y       z     vdW  Elec       q    Type
REMARK                         _______ _______ _______ _____ _____    ______ ____
ROOT
ATOM      1  N   UNL     1       7.204   6.778  17.673  0.00  0.00    +0.000 N 
ATOM      2  C   UNL     1       6.834   5.969  16.609  0.00  0.00    +0.000 A 
ATOM      3  N   UNL     1       7.386   6.038  15.419  0.00  0.00    +0.000 NA
ATOM      4  C   UNL     1       6.969   5.128  14.405  0.00  0.00    +0.000 A 
ATOM      5  C   UNL     1       7.608   5.169  13.164  0.00  0.00    +0.000 A 
ATOM      6  C   UNL     1       7.245   4.279  12.150  0.00  0.00    +0.000 A 
ATOM      7  C   UNL     1       6.233   3.339  12.365  0.00  0.00    +0.000 A 
ATOM      8  C   UNL     1       5.584   3.282  13.598  0.00  0.00    +0.000 A 
ATOM      9  C   UNL     1       5.953   4.169  14.613  0.00  0.00    +0.000 A 
ATOM     10  C   UNL     1       5.343   4.156  15.925  0.00  0.00    +0.000 A 
ATOM     11  N   UNL     1       4.363   3.452  16.450  0.00  0.00    +0.000 NA
ATOM     12  C   UNL     1       4.251   3.967  17.733  0.00  0.00    +0.000 A 
ATOM     13  N   UNL     1       5.154   4.924  18.025  0.00  0.00    +0.000 NA
ATOM     14  N   UNL     1       5.815   5.031  16.854  0.00  0.00    +0.000 N 
ATOM     15  H   UNL     1       6.571   6.764  18.483  0.00  0.00    +0.000 HD
ENDROOT
BRANCH  12  16
ATOM     16  C   UNL     1       3.206   3.533  18.659  0.00  0.00    +0.000 A 
ATOM     17  C   UNL     1       1.880   3.396  18.223  0.00  0.00    +0.000 A 
ATOM     18  C   UNL     1       0.869   3.037  19.120  0.00  0.00    +0.000 A 
ATOM     19  C   UNL     1       1.173   2.806  20.462  0.00  0.00    +0.000 A 
ATOM     20  C   UNL     1       2.487   2.924  20.905  0.00  0.00    +0.000 A 
ATOM     21  C   UNL     1       3.498   3.283  20.009  0.00  0.00    +0.000 A 
ENDBRANCH  12  16
BRANCH   1  24
ATOM     22  C   UNL     1       8.476   8.681  18.285  0.00  0.00    +0.000 C 
ATOM     23  O   UNL     1       8.830   8.136  19.330  0.00  0.00    +0.000 OA
ATOM     24  N   UNL     1       7.683   8.055  17.346  0.00  0.00    +0.000 N 
ATOM     25  H   UNL     1       7.221   8.518  16.565  0.00  0.00    +0.000 HD
BRANCH  22  26
ATOM     26  C   UNL     1       8.943  10.072  17.914  0.00  0.00    +0.000 C 
BRANCH  26  27
ATOM     27  C   UNL     1       8.836  11.065  19.057  0.00  0.00    +0.000 C 
BRANCH  27  29
ATOM     28  N   UNL     1      10.038  13.082  19.703  0.00  0.00    +0.000 N 
ATOM     29  C   UNL     1      10.144  11.759  19.350  0.00  0.00    +0.000 C 
ATOM     30  O   UNL     1      11.212  11.156  19.282  0.00  0.00    +0.000 OA
ATOM     31  H   UNL     1       9.133  13.533  19.700  0.00  0.00    +0.000 HD
BRANCH  28  32
ATOM     32  C   UNL     1      11.201  13.893  20.005  0.00  0.00    +0.000 C 
BRANCH  32  33
ATOM     33  C   UNL     1      12.005  14.281  18.761  0.00  0.00    +0.000 C 
BRANCH  33  35
ATOM     34  C   UNL     1      11.366  15.959  16.947  0.00  0.00    +0.000 C 
ATOM     35  C   UNL     1      11.160  14.547  17.498  0.00  0.00    +0.000 C 
ATOM     36  C   UNL     1      11.495  13.524  16.408  0.00  0.00    +0.000 C 
ENDBRANCH  33  35
ENDBRANCH  32  33
ENDBRANCH  28  32
ENDBRANCH  27  29
ENDBRANCH  26  27
ENDBRANCH  22  26
ENDBRANCH   1  24
TORSDOF 8
ENDMDL
MODEL 2
REMARK VINA RESULT:      -8.8      0.999      1.176
REMARK  Name = 
REMARK  10 active torsions:
REMARK  status: ('A' for Active; 'I' for Inactive)
REMARK    1  A    between atoms: C_1  and  C_2
REMARK    2  A    between atoms: C_2  and  C_3
REMARK    3  A    between atoms: C_2  and  C_4
REMARK    4  A    between atoms: C_4  and  C_5
REMARK    5  A    between atoms: C_5  and  N_6
REMARK    6  A    between atoms: C_7  and  C_9
REMARK    7  A    between atoms: C_9  and  C_10
REMARK    8  A    between atoms: C_10  and  C_11
REMARK    9  A    between atoms: N_13  and  N_14
REMARK   10  A    between atoms: C_25  and  C_26
REMARK                            x       y       z     vdW  Elec       q    Type
REMARK                         _______ _______ _______ _____ _____    ______ ____
ROOT
ATOM      1  N   UNL     1       7.288   6.978  17.644  0.00  0.00    +0.000 N 
ATOM      2  C   UNL     1       6.877   6.141  16.617  0.00  0.00    +0.000 A 
ATOM      3  N   UNL     1       7.434   6.127  15.427  0.00  0.00    +0.000 NA
ATOM      4  C   UNL     1       6.972   5.194  14.454  0.00  0.00    +0.000 A 
ATOM      5  C   UNL     1       7.614   5.146  13.215  0.00  0.00    +0.000 A 
ATOM      6  C   UNL     1       7.207   4.229  12.242  0.00  0.00    +0.000 A 
ATOM      7  C   UNL     1       6.148   3.353  12.495  0.00  0.00    +0.000 A 
ATOM      8  C   UNL     1       5.496   3.386  13.728  0.00  0.00    +0.000 A 
ATOM      9  C   UNL     1       5.908   4.299  14.702  0.00  0.00    +0.000 A 
ATOM     10  C   UNL     1       5.296   4.377  16.011  0.00  0.00    +0.000 A 
ATOM     11  N   UNL     1       4.281   3.749  16.564  0.00  0.00    +0.000 NA
ATOM     12  C   UNL     1       4.194   4.327  17.822  0.00  0.00    +0.000 A 
ATOM     13  N   UNL     1       5.144   5.249  18.073  0.00  0.00    +0.000 NA
ATOM     14  N   UNL     1       5.811   5.269  16.901  0.00  0.00    +0.000 N 
ATOM     15  H   UNL     1       6.654   7.033  18.452  0.00  0.00    +0.000 HD
ENDROOT
BRANCH  12  16
ATOM     16  C   UNL     1       3.127   3.990  18.763  0.00  0.00    +0.000 A 
ATOM     17  C   UNL     1       2.442   2.770  18.656  0.00  0.00    +0.000 A 
ATOM     18  C   UNL     1       1.383   2.470  19.518  0.00  0.00    +0.000 A 
ATOM     19  C   UNL     1       0.999   3.384  20.500  0.00  0.00    +0.000 A 
ATOM     20  C   UNL     1       1.679   4.592  20.627  0.00  0.00    +0.000 A 
ATOM     21  C   UNL     1       2.738   4.892  19.765  0.00  0.00    +0.000 A 
ENDBRANCH  12  16
BRANCH   1  24
ATOM     22  C   UNL     1       8.499   8.926  18.234  0.00  0.00    +0.000 C 
ATOM     23  O   UNL     1       8.694   8.489  19.368  0.00  0.00    +0.000 OA
ATOM     24  N   UNL     1       7.831   8.212  17.261  0.00  0.00    +0.000 N 
ATOM     25  H   UNL     1       7.491   8.596  16.381  0.00  0.00    +0.000 HD
BRANCH  22  26
ATOM     26  C   UNL     1       9.040  10.270  17.794  0.00  0.00    +0.000 C 
BRANCH  26  27
ATOM     27  C   UNL     1       9.864  10.964  18.864  0.00  0.00    +0.000 C 
BRANCH  27  29
ATOM     28  N   UNL     1      10.162  13.327  19.369  0.00  0.00    +0.000 N 
ATOM     29  C   UNL     1      10.336  12.332  18.439  0.00  0.00    +0.000 C 
ATOM     30  O   UNL     1      10.849  12.513  17.337  0.00  0.00    +0.000 OA
ATOM     31  H   UNL     1       9.695  13.123  20.243  0.00  0.00    +0.000 HD
BRANCH  28  32
ATOM     32  C   UNL     1      10.553  14.699  19.112  0.00  0.00    +0.000 C 
BRANCH  32  33
ATOM     33  C   UNL     1       9.469  15.511  18.397  0.00  0.00    +0.000 C 
BRANCH  33  35
ATOM     34  C   UNL     1      10.028  17.905  17.715  0.00  0.00    +0.000 C 
ATOM     35  C   UNL     1       9.983  16.440  17.280  0.00  0.00    +0.000 C 
ATOM     36  C   UNL     1      11.380  16.004  16.827  0.00  0.00    +0.000 C 
ENDBRANCH  33  35
ENDBRANCH  32  33
ENDBRANCH  28  32
ENDBRANCH  27  29
ENDBRANCH  26  27
ENDBRANCH  22  26
ENDBRANCH   1  24
TORSDOF 8
ENDMDL
MODEL 3
REMARK VINA RESULT:      -8.8      1.248      1.663
REMARK  Name = 
REMARK  10 active torsions:
REMARK  status: ('A' for Active; 'I' for Inactive)
REMARK    1  A    between atoms: C_1  and  C_2
REMARK    2  A    between atoms: C_2  and  C_3
REMARK    3  A    between atoms: C_2  and  C_4
REMARK    4  A    between atoms: C_4  and  C_5
REMARK    5  A    between atoms: C_5  and  N_6
REMARK    6  A    between atoms: C_7  and  C_9
REMARK    7  A    between atoms: C_9  and  C_10
REMARK    8  A    between atoms: C_10  and  C_11
REMARK    9  A    between atoms: N_13  and  N_14
REMARK   10  A    between atoms: C_25  and  C_26
REMARK                            x       y       z     vdW  Elec       q    Type
REMARK                         _______ _______ _______ _____ _____    ______ ____
ROOT
ATOM      1  N   UNL     1       7.046   6.913  17.581  0.00  0.00    +0.000 N 
ATOM      2  C   UNL     1       6.700   6.087  16.521  0.00  0.00    +0.000 A 
ATOM      3  N   UNL     1       7.323   6.095  15.364  0.00  0.00    +0.000 NA
ATOM      4  C   UNL     1       6.923   5.172  14.354  0.00  0.00    +0.000 A 
ATOM      5  C   UNL     1       7.633   5.146  13.152  0.00  0.00    +0.000 A 
ATOM      6  C   UNL     1       7.289   4.241  12.145  0.00  0.00    +0.000 A 
ATOM      7  C   UNL     1       6.224   3.354  12.327  0.00  0.00    +0.000 A 
ATOM      8  C   UNL     1       5.504   3.364  13.522  0.00  0.00    +0.000 A 
ATOM      9  C   UNL     1       5.854   4.266  14.530  0.00  0.00    +0.000 A 
ATOM     10  C   UNL     1       5.170   4.321  15.804  0.00  0.00    +0.000 A 
ATOM     11  N   UNL     1       4.130   3.678  16.291  0.00  0.00    +0.000 NA
ATOM     12  C   UNL     1       3.969   4.238  17.550  0.00  0.00    +0.000 A 
ATOM     13  N   UNL     1       4.897   5.163  17.866  0.00  0.00    +0.000 NA
ATOM     14  N   UNL     1       5.628   5.204  16.733  0.00  0.00    +0.000 N 
ATOM     15  H   UNL     1       6.368   6.953  18.353  0.00  0.00    +0.000 HD
ENDROOT
BRANCH  12  16
ATOM     16  C   UNL     1       2.854   3.880  18.425  0.00  0.00    +0.000 A 
ATOM     17  C   UNL     1       2.652   4.560  19.636  0.00  0.00    +0.000 A 
ATOM     18  C   UNL     1       1.622   4.181  20.502  0.00  0.00    +0.000 A 
ATOM     19  C   UNL     1       0.779   3.121  20.166  0.00  0.00    +0.000 A 
ATOM     20  C   UNL     1       0.959   2.447  18.961  0.00  0.00    +0.000 A 
ATOM     21  C   UNL     1       1.989   2.825  18.096  0.00  0.00    +0.000 A 
ENDBRANCH  12  16
BRANCH   1  24
ATOM     22  C   UNL     1       8.402   8.756  18.195  0.00  0.00    +0.000 C 
ATOM     23  O   UNL     1       8.700   8.213  19.258  0.00  0.00    +0.000 OA
ATOM     24  N   UNL     1       7.601   8.157  17.245  0.00  0.00    +0.000 N 
ATOM     25  H   UNL     1       7.184   8.630  16.445  0.00  0.00    +0.000 HD
BRANCH  22  26
ATOM     26  C   UNL     1       8.952  10.114  17.813  0.00  0.00    +0.000 C 
BRANCH  26  27
ATOM     27  C   UNL     1       9.747  10.773  18.925  0.00  0.00    +0.000 C 
BRANCH  27  29
ATOM     28  N   UNL     1       9.966  13.178  18.612  0.00  0.00    +0.000 N 
ATOM     29  C   UNL     1      10.558  11.951  18.443  0.00  0.00    +0.000 C 
ATOM     30  O   UNL     1      11.672  11.795  17.949  0.00  0.00    +0.000 OA
ATOM     31  H   UNL     1       9.028  13.237  18.987  0.00  0.00    +0.000 HD
BRANCH  28  32
ATOM     32  C   UNL     1      10.608  14.407  18.191  0.00  0.00    +0.000 C 
BRANCH  32  33
ATOM     33  C   UNL     1       9.972  15.659  18.802  0.00  0.00    +0.000 C 
BRANCH  33  35
ATOM     34  C   UNL     1       7.583  15.555  17.913  0.00  0.00    +0.000 C 
ATOM     35  C   UNL     1       8.898  16.335  17.927  0.00  0.00    +0.000 C 
ATOM     36  C   UNL     1       8.634  17.763  18.416  0.00  0.00    +0.000 C 
ENDBRANCH  33  35
ENDBRANCH  32  33
ENDBRANCH  28  32
ENDBRANCH  27  29
ENDBRANCH  26  27
ENDBRANCH  22  26
ENDBRANCH   1  24
TORSDOF 8
ENDMDL
MODEL 4
REMARK VINA RESULT:      -8.8      0.950      1.190
REMARK  Name = 
REMARK  10 active torsions:
REMARK  status: ('A' for Active; 'I' for Inactive)
REMARK    1  A    between atoms: C_1  and  C_2
REMARK    2  A    between atoms: C_2  and  C_3
REMARK    3  A    between atoms: C_2  and  C_4
REMARK    4  A    between atoms: C_4  and  C_5
REMARK    5  A    between atoms: C_5  and  N_6
REMARK    6  A    between atoms: C_7  and  C_9
REMARK    7  A    between atoms: C_9  and  C_10
REMARK    8  A    between atoms: C_10  and  C_11
REMARK    9  A    between atoms: N_13  and  N_14
REMARK   10  A    between atoms: C_25  and  C_26
REMARK                            x       y       z     vdW  Elec       q    Type
REMARK                         _______ _______ _______ _____ _____    ______ ____
ROOT
ATOM      1  N   UNL     1       7.588   5.886  18.238  0.00  0.00    +0.000 N 
ATOM      2  C   UNL     1       7.069   5.378  17.056  0.00  0.00    +0.000 A 
ATOM      3  N   UNL     1       7.630   5.563  15.881  0.00  0.00    +0.000 NA
ATOM      4  C   UNL     1       7.047   4.958  14.730  0.00  0.00    +0.000 A 
ATOM      5  C   UNL     1       7.686   5.108  13.499  0.00  0.00    +0.000 A 
ATOM      6  C   UNL     1       7.160   4.512  12.349  0.00  0.00    +0.000 A 
ATOM      7  C   UNL     1       5.982   3.763  12.419  0.00  0.00    +0.000 A 
ATOM      8  C   UNL     1       5.330   3.601  13.641  0.00  0.00    +0.000 A 
ATOM      9  C   UNL     1       5.861   4.193  14.790  0.00  0.00    +0.000 A 
ATOM     10  C   UNL     1       5.255   4.050  16.096  0.00  0.00    +0.000 A 
ATOM     11  N   UNL     1       4.154   3.464  16.514  0.00  0.00    +0.000 NA
ATOM     12  C   UNL     1       4.140   3.739  17.873  0.00  0.00    +0.000 A 
ATOM     13  N   UNL     1       5.211   4.431  18.307  0.00  0.00    +0.000 NA
ATOM     14  N   UNL     1       5.886   4.627  17.156  0.00  0.00    +0.000 N 
ATOM     15  H   UNL     1       6.961   5.842  19.052  0.00  0.00    +0.000 HD
ENDROOT
BRANCH  12  16
ATOM     16  C   UNL     1       3.026   3.349  18.736  0.00  0.00    +0.000 A 
ATOM     17  C   UNL     1       1.746   3.146  18.199  0.00  0.00    +0.000 A 
ATOM     18  C   UNL     1       0.667   2.829  19.030  0.00  0.00    +0.000 A 
ATOM     19  C   UNL     1       0.856   2.708  20.407  0.00  0.00    +0.000 A 
ATOM     20  C   UNL     1       2.124   2.893  20.952  0.00  0.00    +0.000 A 
ATOM     21  C   UNL     1       3.202   3.210  20.121  0.00  0.00    +0.000 A 
ENDBRANCH  12  16
BRANCH   1  24
ATOM     22  C   UNL     1       7.590   8.217  17.820  0.00  0.00    +0.000 C 
ATOM     23  O   UNL     1       6.364   8.221  17.706  0.00  0.00    +0.000 OA
ATOM     24  N   UNL     1       8.309   7.084  18.138  0.00  0.00    +0.000 N 
ATOM     25  H   UNL     1       9.320   6.991  18.066  0.00  0.00    +0.000 HD
BRANCH  22  26
ATOM     26  C   UNL     1       8.406   9.485  17.684  0.00  0.00    +0.000 C 
BRANCH  26  27
ATOM     27  C   UNL     1       9.146   9.861  18.955  0.00  0.00    +0.000 C 
BRANCH  27  29
ATOM     28  N   UNL     1       9.174  12.130  18.072  0.00  0.00    +0.000 N 
ATOM     29  C   UNL     1       9.817  11.209  18.861  0.00  0.00    +0.000 C 
ATOM     30  O   UNL     1      10.858  11.443  19.469  0.00  0.00    +0.000 OA
ATOM     31  H   UNL     1       8.341  11.862  17.563  0.00  0.00    +0.000 HD
BRANCH  28  32
ATOM     32  C   UNL     1       9.694  13.467  17.868  0.00  0.00    +0.000 C 
BRANCH  32  33
ATOM     33  C   UNL     1      11.062  13.484  17.181  0.00  0.00    +0.000 C 
BRANCH  33  35
ATOM     34  C   UNL     1      12.330  15.695  17.064  0.00  0.00    +0.000 C 
ATOM     35  C   UNL     1      12.112  14.399  17.845  0.00  0.00    +0.000 C 
ATOM     36  C   UNL     1      11.693  14.736  19.279  0.00  0.00    +0.000 C 
ENDBRANCH  33  35
ENDBRANCH  32  33
ENDBRANCH  28  32
ENDBRANCH  27  29
ENDBRANCH  26  27
ENDBRANCH  22  26
ENDBRANCH   1  24
TORSDOF 8
ENDMDL
MODEL 5
REMARK VINA RESULT:      -8.7      0.970      1.261
REMARK  Name = 
REMARK  10 active torsions:
REMARK  status: ('A' for Active; 'I' for Inactive)
REMARK    1  A    between atoms: C_1  and  C_2
REMARK    2  A    between atoms: C_2  and  C_3
REMARK    3  A    between atoms: C_2  and  C_4
REMARK    4  A    between atoms: C_4  and  C_5
REMARK    5  A    between atoms: C_5  and  N_6
REMARK    6  A    between atoms: C_7  and  C_9
REMARK    7  A    between atoms: C_9  and  C_10
REMARK    8  A    between atoms: C_10  and  C_11
REMARK    9  A    between atoms: N_13  and  N_14
REMARK   10  A    between atoms: C_25  and  C_26
REMARK                            x       y       z     vdW  Elec       q    Type
REMARK                         _______ _______ _______ _____ _____    ______ ____
ROOT
ATOM      1  N   UNL     1       7.115   6.990  17.668  0.00  0.00    +0.000 N 
ATOM      2  C   UNL     1       6.757   6.159  16.617  0.00  0.00    +0.000 A 
ATOM      3  N   UNL     1       7.371   6.153  15.455  0.00  0.00    +0.000 NA
ATOM      4  C   UNL     1       6.959   5.225  14.455  0.00  0.00    +0.000 A 
ATOM      5  C   UNL     1       7.661   5.185  13.249  0.00  0.00    +0.000 A 
ATOM      6  C   UNL     1       7.304   4.274  12.252  0.00  0.00    +0.000 A 
ATOM      7  C   UNL     1       6.235   3.395  12.448  0.00  0.00    +0.000 A 
ATOM      8  C   UNL     1       5.523   3.419  13.647  0.00  0.00    +0.000 A 
ATOM      9  C   UNL     1       5.885   4.327  14.645  0.00  0.00    +0.000 A 
ATOM     10  C   UNL     1       5.210   4.396  15.924  0.00  0.00    +0.000 A 
ATOM     11  N   UNL     1       4.170   3.764  16.423  0.00  0.00    +0.000 NA
ATOM     12  C   UNL     1       4.021   4.334  17.678  0.00  0.00    +0.000 A 
ATOM     13  N   UNL     1       4.956   5.256  17.981  0.00  0.00    +0.000 NA
ATOM     14  N   UNL     1       5.680   5.283  16.843  0.00  0.00    +0.000 N 
ATOM     15  H   UNL     1       6.442   7.040  18.444  0.00  0.00    +0.000 HD
ENDROOT
BRANCH  12  16
ATOM     16  C   UNL     1       2.909   3.990  18.563  0.00  0.00    +0.000 A 
ATOM     17  C   UNL     1       2.463   4.901  19.533  0.00  0.00    +0.000 A 
ATOM     18  C   UNL     1       1.439   4.552  20.419  0.00  0.00    +0.000 A 
ATOM     19  C   UNL     1       0.847   3.291  20.343  0.00  0.00    +0.000 A 
ATOM     20  C   UNL     1       1.271   2.383  19.377  0.00  0.00    +0.000 A 
ATOM     21  C   UNL     1       2.294   2.731  18.491  0.00  0.00    +0.000 A 
ENDBRANCH  12  16
BRANCH   1  24
ATOM     22  C   UNL     1       8.477   8.835  18.262  0.00  0.00    +0.000 C 
ATOM     23  O   UNL     1       8.772   8.302  19.331  0.00  0.00    +0.000 OA
ATOM     24  N   UNL     1       7.675   8.228  17.319  0.00  0.00    +0.000 N 
ATOM     25  H   UNL     1       7.260   8.694  16.513  0.00  0.00    +0.000 HD
BRANCH  22  26
ATOM     26  C   UNL     1       9.034  10.185  17.866  0.00  0.00    +0.000 C 
BRANCH  26  27
ATOM     27  C   UNL     1       9.923  10.803  18.929  0.00  0.00    +0.000 C 
BRANCH  27  29
ATOM     28  N   UNL     1      10.586  12.921  19.933  0.00  0.00    +0.000 N 
ATOM     29  C   UNL     1       9.774  12.303  19.014  0.00  0.00    +0.000 C 
ATOM     30  O   UNL     1       8.985  12.904  18.291  0.00  0.00    +0.000 OA
ATOM     31  H   UNL     1      11.185  12.365  20.529  0.00  0.00    +0.000 HD
BRANCH  28  32
ATOM     32  C   UNL     1      10.557  14.354  20.145  0.00  0.00    +0.000 C 
BRANCH  32  33
ATOM     33  C   UNL     1      11.603  15.107  19.319  0.00  0.00    +0.000 C 
BRANCH  33  35
ATOM     34  C   UNL     1      11.285  15.988  16.946  0.00  0.00    +0.000 C 
ATOM     35  C   UNL     1      11.042  16.238  18.434  0.00  0.00    +0.000 C 
ATOM     36  C   UNL     1       9.539  16.410  18.680  0.00  0.00    +0.000 C 
ENDBRANCH  33  35
ENDBRANCH  32  33
ENDBRANCH  28  32
ENDBRANCH  27  29
ENDBRANCH  26  27
ENDBRANCH  22  26
ENDBRANCH   1  24
TORSDOF 8
ENDMDL
MODEL 6
REMARK VINA RESULT:      -8.7      1.333      1.612
REMARK  Name = 
REMARK  10 active torsions:
REMARK  status: ('A' for Active; 'I' for Inactive)
REMARK    1  A    between atoms: C_1  and  C_2
REMARK    2  A    between atoms: C_2  and  C_3
REMARK    3  A    between atoms: C_2  and  C_4
REMARK    4  A    between atoms: C_4  and  C_5
REMARK    5  A    between atoms: C_5  and  N_6
REMARK    6  A    between atoms: C_7  and  C_9
REMARK    7  A    between atoms: C_9  and  C_10
REMARK    8  A    between atoms: C_10  and  C_11
REMARK    9  A    between atoms: N_13  and  N_14
REMARK   10  A    between atoms: C_25  and  C_26
REMARK                            x       y       z     vdW  Elec       q    Type
REMARK                         _______ _______ _______ _____ _____    ______ ____
ROOT
ATOM      1  N   UNL     1       7.116   7.021  17.644  0.00  0.00    +0.000 N 
ATOM      2  C   UNL     1       6.751   6.183  16.601  0.00  0.00    +0.000 A 
ATOM      3  N   UNL     1       7.360   6.167  15.437  0.00  0.00    +0.000 NA
ATOM      4  C   UNL     1       6.941   5.234  14.445  0.00  0.00    +0.000 A 
ATOM      5  C   UNL     1       7.636   5.183  13.236  0.00  0.00    +0.000 A 
ATOM      6  C   UNL     1       7.272   4.266  12.247  0.00  0.00    +0.000 A 
ATOM      7  C   UNL     1       6.202   3.392  12.454  0.00  0.00    +0.000 A 
ATOM      8  C   UNL     1       5.496   3.426  13.656  0.00  0.00    +0.000 A 
ATOM      9  C   UNL     1       5.865   4.340  14.646  0.00  0.00    +0.000 A 
ATOM     10  C   UNL     1       5.196   4.420  15.927  0.00  0.00    +0.000 A 
ATOM     11  N   UNL     1       4.157   3.794  16.436  0.00  0.00    +0.000 NA
ATOM     12  C   UNL     1       4.015   4.374  17.687  0.00  0.00    +0.000 A 
ATOM     13  N   UNL     1       4.954   5.295  17.979  0.00  0.00    +0.000 NA
ATOM     14  N   UNL     1       5.673   5.312  16.838  0.00  0.00    +0.000 N 
ATOM     15  H   UNL     1       6.447   7.078  18.423  0.00  0.00    +0.000 HD
ENDROOT
BRANCH  12  16
ATOM     16  C   UNL     1       2.906   4.039  18.581  0.00  0.00    +0.000 A 
ATOM     17  C   UNL     1       2.754   4.703  19.807  0.00  0.00    +0.000 A 
ATOM     18  C   UNL     1       1.730   4.345  20.688  0.00  0.00    +0.000 A 
ATOM     19  C   UNL     1       0.843   3.322  20.353  0.00  0.00    +0.000 A 
ATOM     20  C   UNL     1       0.974   2.664  19.133  0.00  0.00    +0.000 A 
ATOM     21  C   UNL     1       1.998   3.022  18.252  0.00  0.00    +0.000 A 
ENDBRANCH  12  16
BRANCH   1  24
ATOM     22  C   UNL     1       8.472   8.874  18.226  0.00  0.00    +0.000 C 
ATOM     23  O   UNL     1       8.759   8.355  19.305  0.00  0.00    +0.000 OA
ATOM     24  N   UNL     1       7.678   8.254  17.284  0.00  0.00    +0.000 N 
ATOM     25  H   UNL     1       7.270   8.709  16.469  0.00  0.00    +0.000 HD
BRANCH  22  26
ATOM     26  C   UNL     1       9.031  10.220  17.817  0.00  0.00    +0.000 C 
BRANCH  26  27
ATOM     27  C   UNL     1      10.003  10.799  18.829  0.00  0.00    +0.000 C 
BRANCH  27  29
ATOM     28  N   UNL     1       9.037  13.003  19.199  0.00  0.00    +0.000 N 
ATOM     29  C   UNL     1       9.352  11.791  19.761  0.00  0.00    +0.000 C 
ATOM     30  O   UNL     1       9.119  11.503  20.932  0.00  0.00    +0.000 OA
ATOM     31  H   UNL     1       9.293  13.195  18.239  0.00  0.00    +0.000 HD
BRANCH  28  32
ATOM     32  C   UNL     1       8.418  14.069  19.962  0.00  0.00    +0.000 C 
BRANCH  32  33
ATOM     33  C   UNL     1       9.057  15.438  19.715  0.00  0.00    +0.000 C 
BRANCH  33  35
ATOM     34  C   UNL     1       8.206  17.502  18.479  0.00  0.00    +0.000 C 
ATOM     35  C   UNL     1       8.729  16.071  18.347  0.00  0.00    +0.000 C 
ATOM     36  C   UNL     1       9.968  16.065  17.447  0.00  0.00    +0.000 C 
ENDBRANCH  33  35
ENDBRANCH  32  33
ENDBRANCH  28  32
ENDBRANCH  27  29
ENDBRANCH  26  27
ENDBRANCH  22  26
ENDBRANCH   1  24
TORSDOF 8
ENDMDL
MODEL 7
REMARK VINA RESULT:      -8.6      1.113      1.694
REMARK  Name = 
REMARK  10 active torsions:
REMARK  status: ('A' for Active; 'I' for Inactive)
REMARK    1  A    between atoms: C_1  and  C_2
REMARK    2  A    between atoms: C_2  and  C_3
REMARK    3  A    between atoms: C_2  and  C_4
REMARK    4  A    between atoms: C_4  and  C_5
REMARK    5  A    between atoms: C_5  and  N_6
REMARK    6  A    between atoms: C_7  and  C_9
REMARK    7  A    between atoms: C_9  and  C_10
REMARK    8  A    between atoms: C_10  and  C_11
REMARK    9  A    between atoms: N_13  and  N_14
REMARK   10  A    between atoms: C_25  and  C_26
REMARK                            x       y       z     vdW  Elec       q    Type
REMARK                         _______ _______ _______ _____ _____    ______ ____
ROOT
ATOM      1  N   UNL     1       7.136   6.806  17.605  0.00  0.00    +0.000 N 
ATOM      2  C   UNL     1       6.765   5.969  16.563  0.00  0.00    +0.000 A 
ATOM      3  N   UNL     1       7.297   6.028  15.362  0.00  0.00    +0.000 NA
ATOM      4  C   UNL     1       6.883   5.090  14.373  0.00  0.00    +0.000 A 
ATOM      5  C   UNL     1       7.501   5.121  13.121  0.00  0.00    +0.000 A 
ATOM      6  C   UNL     1       7.141   4.204  12.130  0.00  0.00    +0.000 A 
ATOM      7  C   UNL     1       6.152   3.247  12.379  0.00  0.00    +0.000 A 
ATOM      8  C   UNL     1       5.525   3.200  13.624  0.00  0.00    +0.000 A 
ATOM      9  C   UNL     1       5.891   4.114  14.615  0.00  0.00    +0.000 A 
ATOM     10  C   UNL     1       5.302   4.113  15.938  0.00  0.00    +0.000 A 
ATOM     11  N   UNL     1       4.346   3.399  16.492  0.00  0.00    +0.000 NA
ATOM     12  C   UNL     1       4.244   3.936  17.766  0.00  0.00    +0.000 A 
ATOM     13  N   UNL     1       5.131   4.917  18.025  0.00  0.00    +0.000 NA
ATOM     14  N   UNL     1       5.771   5.016  16.842  0.00  0.00    +0.000 N 
ATOM     15  H   UNL     1       6.517   6.795  18.426  0.00  0.00    +0.000 HD
ENDROOT
BRANCH  12  16
ATOM     16  C   UNL     1       3.223   3.498  18.717  0.00  0.00    +0.000 A 
ATOM     17  C   UNL     1       1.870   3.470  18.347  0.00  0.00    +0.000 A 
ATOM     18  C   UNL     1       0.887   3.107  19.272  0.00  0.00    +0.000 A 
ATOM     19  C   UNL     1       1.244   2.764  20.576  0.00  0.00    +0.000 A 
ATOM     20  C   UNL     1       2.585   2.774  20.953  0.00  0.00    +0.000 A 
ATOM     21  C   UNL     1       3.568   3.137  20.028  0.00  0.00    +0.000 A 
ENDBRANCH  12  16
BRANCH   1  24
ATOM     22  C   UNL     1       8.393   8.738  18.152  0.00  0.00    +0.000 C 
ATOM     23  O   UNL     1       8.789   8.214  19.193  0.00  0.00    +0.000 OA
ATOM     24  N   UNL     1       7.582   8.087  17.246  0.00  0.00    +0.000 N 
ATOM     25  H   UNL     1       7.088   8.531  16.475  0.00  0.00    +0.000 HD
BRANCH  22  26
ATOM     26  C   UNL     1       8.825  10.132  17.748  0.00  0.00    +0.000 C 
BRANCH  26  27
ATOM     27  C   UNL     1       9.570  10.870  18.845  0.00  0.00    +0.000 C 
BRANCH  27  29
ATOM     28  N   UNL     1      10.557  13.020  19.425  0.00  0.00    +0.000 N 
ATOM     29  C   UNL     1       9.787  12.328  18.522  0.00  0.00    +0.000 C 
ATOM     30  O   UNL     1       9.309  12.832  17.509  0.00  0.00    +0.000 OA
ATOM     31  H   UNL     1      10.887  12.558  20.262  0.00  0.00    +0.000 HD
BRANCH  28  32
ATOM     32  C   UNL     1      10.850  14.430  19.266  0.00  0.00    +0.000 C 
BRANCH  32  33
ATOM     33  C   UNL     1      11.165  15.134  20.589  0.00  0.00    +0.000 C 
BRANCH  33  35
ATOM     34  C   UNL     1       8.785  16.046  20.461  0.00  0.00    +0.000 C 
ATOM     35  C   UNL     1       9.930  15.615  21.378  0.00  0.00    +0.000 C 
ATOM     36  C   UNL     1       9.437  14.512  22.319  0.00  0.00    +0.000 C 
ENDBRANCH  33  35
ENDBRANCH  32  33
ENDBRANCH  28  32
ENDBRANCH  27  29
ENDBRANCH  26  27
ENDBRANCH  22  26
ENDBRANCH   1  24
TORSDOF 8
ENDMDL
MODEL 8
REMARK VINA RESULT:      -8.6      1.508      1.721
REMARK  Name = 
REMARK  10 active torsions:
REMARK  status: ('A' for Active; 'I' for Inactive)
REMARK    1  A    between atoms: C_1  and  C_2
REMARK    2  A    between atoms: C_2  and  C_3
REMARK    3  A    between atoms: C_2  and  C_4
REMARK    4  A    between atoms: C_4  and  C_5
REMARK    5  A    between atoms: C_5  and  N_6
REMARK    6  A    between atoms: C_7  and  C_9
REMARK    7  A    between atoms: C_9  and  C_10
REMARK    8  A    between atoms: C_10  and  C_11
REMARK    9  A    between atoms: N_13  and  N_14
REMARK   10  A    between atoms: C_25  and  C_26
REMARK                            x       y       z     vdW  Elec       q    Type
REMARK                         _______ _______ _______ _____ _____    ______ ____
ROOT
ATOM      1  N   UNL     1       7.518   5.977  18.316  0.00  0.00    +0.000 N 
ATOM      2  C   UNL     1       7.003   5.423  17.153  0.00  0.00    +0.000 A 
ATOM      3  N   UNL     1       7.553   5.582  15.970  0.00  0.00    +0.000 NA
ATOM      4  C   UNL     1       6.976   4.931  14.841  0.00  0.00    +0.000 A 
ATOM      5  C   UNL     1       7.605   5.056  13.602  0.00  0.00    +0.000 A 
ATOM      6  C   UNL     1       7.084   4.414  12.475  0.00  0.00    +0.000 A 
ATOM      7  C   UNL     1       5.922   3.643  12.575  0.00  0.00    +0.000 A 
ATOM      8  C   UNL     1       5.280   3.506  13.806  0.00  0.00    +0.000 A 
ATOM      9  C   UNL     1       5.806   4.144  14.932  0.00  0.00    +0.000 A 
ATOM     10  C   UNL     1       5.210   4.030  16.247  0.00  0.00    +0.000 A 
ATOM     11  N   UNL     1       4.124   3.434  16.689  0.00  0.00    +0.000 NA
ATOM     12  C   UNL     1       4.112   3.752  18.039  0.00  0.00    +0.000 A 
ATOM     13  N   UNL     1       5.172   4.478  18.445  0.00  0.00    +0.000 NA
ATOM     14  N   UNL     1       5.835   4.651  17.284  0.00  0.00    +0.000 N 
ATOM     15  H   UNL     1       6.896   5.946  19.135  0.00  0.00    +0.000 HD
ENDROOT
BRANCH  12  16
ATOM     16  C   UNL     1       3.011   3.366  18.921  0.00  0.00    +0.000 A 
ATOM     17  C   UNL     1       1.707   3.240  18.419  0.00  0.00    +0.000 A 
ATOM     18  C   UNL     1       0.644   2.927  19.271  0.00  0.00    +0.000 A 
ATOM     19  C   UNL     1       0.872   2.733  20.634  0.00  0.00    +0.000 A 
ATOM     20  C   UNL     1       2.163   2.842  21.143  0.00  0.00    +0.000 A 
ATOM     21  C   UNL     1       3.227   3.154  20.291  0.00  0.00    +0.000 A 
ENDBRANCH  12  16
BRANCH   1  24
ATOM     22  C   UNL     1       7.470   8.294  17.824  0.00  0.00    +0.000 C 
ATOM     23  O   UNL     1       6.244   8.269  17.717  0.00  0.00    +0.000 OA
ATOM     24  N   UNL     1       8.214   7.186  18.174  0.00  0.00    +0.000 N 
ATOM     25  H   UNL     1       9.227   7.112  18.100  0.00  0.00    +0.000 HD
BRANCH  22  26
ATOM     26  C   UNL     1       8.260   9.573  17.644  0.00  0.00    +0.000 C 
BRANCH  26  27
ATOM     27  C   UNL     1       9.061   9.961  18.873  0.00  0.00    +0.000 C 
BRANCH  27  29
ATOM     28  N   UNL     1       9.238  12.266  18.107  0.00  0.00    +0.000 N 
ATOM     29  C   UNL     1       9.901  11.196  18.655  0.00  0.00    +0.000 C 
ATOM     30  O   UNL     1      11.088  11.219  18.968  0.00  0.00    +0.000 OA
ATOM     31  H   UNL     1       8.268  12.170  17.832  0.00  0.00    +0.000 HD
BRANCH  28  32
ATOM     32  C   UNL     1       9.904  13.522  17.824  0.00  0.00    +0.000 C 
BRANCH  32  33
ATOM     33  C   UNL     1       9.491  14.650  18.773  0.00  0.00    +0.000 C 
BRANCH  33  35
ATOM     34  C   UNL     1       7.663  15.704  20.207  0.00  0.00    +0.000 C 
ATOM     35  C   UNL     1       7.982  14.720  19.081  0.00  0.00    +0.000 C 
ATOM     36  C   UNL     1       7.200  15.117  17.826  0.00  0.00    +0.000 C 
ENDBRANCH  33  35
ENDBRANCH  32  33
ENDBRANCH  28  32
ENDBRANCH  27  29
ENDBRANCH  26  27
ENDBRANCH  22  26
ENDBRANCH   1  24
TORSDOF 8
ENDMDL
MODEL 9
REMARK VINA RESULT:      -8.6      1.574      2.025
REMARK  Name = 
REMARK  10 active torsions:
REMARK  status: ('A' for Active; 'I' for Inactive)
REMARK    1  A    between atoms: C_1  and  C_2
REMARK    2  A    between atoms: C_2  and  C_3
REMARK    3  A    between atoms: C_2  and  C_4
REMARK    4  A    between atoms: C_4  and  C_5
REMARK    5  A    between atoms: C_5  and  N_6
REMARK    6  A    between atoms: C_7  and  C_9
REMARK    7  A    between atoms: C_9  and  C_10
REMARK    8  A    between atoms: C_10  and  C_11
REMARK    9  A    between atoms: N_13  and  N_14
REMARK   10  A    between atoms: C_25  and  C_26
REMARK                            x       y       z     vdW  Elec       q    Type
REMARK                         _______ _______ _______ _____ _____    ______ ____
ROOT
ATOM      1  N   UNL     1       7.102   7.199  17.722  0.00  0.00    +0.000 N 
ATOM      2  C   UNL     1       6.749   6.333  16.697  0.00  0.00    +0.000 A 
ATOM      3  N   UNL     1       7.347   6.314  15.526  0.00  0.00    +0.000 NA
ATOM      4  C   UNL     1       6.944   5.353  14.555  0.00  0.00    +0.000 A 
ATOM      5  C   UNL     1       7.629   5.301  13.340  0.00  0.00    +0.000 A 
ATOM      6  C   UNL     1       7.281   4.357  12.370  0.00  0.00    +0.000 A 
ATOM      7  C   UNL     1       6.236   3.458  12.603  0.00  0.00    +0.000 A 
ATOM      8  C   UNL     1       5.541   3.494  13.811  0.00  0.00    +0.000 A 
ATOM      9  C   UNL     1       5.895   4.435  14.782  0.00  0.00    +0.000 A 
ATOM     10  C   UNL     1       5.236   4.518  16.069  0.00  0.00    +0.000 A 
ATOM     11  N   UNL     1       4.219   3.874  16.598  0.00  0.00    +0.000 NA
ATOM     12  C   UNL     1       4.073   4.471  17.841  0.00  0.00    +0.000 A 
ATOM     13  N   UNL     1       4.990   5.422  18.108  0.00  0.00    +0.000 NA
ATOM     14  N   UNL     1       5.697   5.439  16.959  0.00  0.00    +0.000 N 
ATOM     15  H   UNL     1       6.439   7.251  18.506  0.00  0.00    +0.000 HD
ENDROOT
BRANCH  12  16
ATOM     16  C   UNL     1       2.983   4.121  18.751  0.00  0.00    +0.000 A 
ATOM     17  C   UNL     1       2.959   4.626  20.060  0.00  0.00    +0.000 A 
ATOM     18  C   UNL     1       1.949   4.248  20.949  0.00  0.00    +0.000 A 
ATOM     19  C   UNL     1       0.950   3.365  20.540  0.00  0.00    +0.000 A 
ATOM     20  C   UNL     1       0.954   2.867  19.240  0.00  0.00    +0.000 A 
ATOM     21  C   UNL     1       1.964   3.245  18.350  0.00  0.00    +0.000 A 
ENDBRANCH  12  16
BRANCH   1  24
ATOM     22  C   UNL     1       8.452   9.075  18.240  0.00  0.00    +0.000 C 
ATOM     23  O   UNL     1       8.796   8.562  19.305  0.00  0.00    +0.000 OA
ATOM     24  N   UNL     1       7.626   8.441  17.335  0.00  0.00    +0.000 N 
ATOM     25  H   UNL     1       7.175   8.887  16.539  0.00  0.00    +0.000 HD
BRANCH  22  26
ATOM     26  C   UNL     1       8.970  10.429  17.804  0.00  0.00    +0.000 C 
BRANCH  26  27
ATOM     27  C   UNL     1      10.316  10.780  18.411  0.00  0.00    +0.000 C 
BRANCH  27  29
ATOM     28  N   UNL     1       9.728  13.076  17.855  0.00  0.00    +0.000 N 
ATOM     29  C   UNL     1      10.471  12.258  18.669  0.00  0.00    +0.000 C 
ATOM     30  O   UNL     1      11.208  12.673  19.561  0.00  0.00    +0.000 OA
ATOM     31  H   UNL     1       9.172  12.675  17.111  0.00  0.00    +0.000 HD
BRANCH  28  32
ATOM     32  C   UNL     1       9.773  14.521  17.967  0.00  0.00    +0.000 C 
BRANCH  32  33
ATOM     33  C   UNL     1       8.398  15.180  17.823  0.00  0.00    +0.000 C 
BRANCH  33  35
ATOM     34  C   UNL     1       7.037  15.031  19.976  0.00  0.00    +0.000 C 
ATOM     35  C   UNL     1       7.254  14.467  18.572  0.00  0.00    +0.000 C 
ATOM     36  C   UNL     1       5.949  14.573  17.776  0.00  0.00    +0.000 C 
ENDBRANCH  33  35
ENDBRANCH  32  33
ENDBRANCH  28  32
ENDBRANCH  27  29
ENDBRANCH  26  27
ENDBRANCH  22  26
ENDBRANCH   1  24
TORSDOF 8
ENDMDL
