MODEL 1
REMARK VINA RESULT:      -8.1      0.000      0.000
REMARK  Name = 
REMARK  9 active torsions:
REMARK  status: ('A' for Active; 'I' for Inactive)
REMARK    1  A    between atoms: C_1  and  C_2
REMARK    2  A    between atoms: C_2  and  C_3
REMARK    3  A    between atoms: C_3  and  O_5
REMARK    4  A    between atoms: O_5  and  C_6
REMARK    5  A    between atoms: C_6  and  C_7
REMARK    6  A    between atoms: C_7  and  C_8
REMARK    7  A    between atoms: C_8  and  N_9
REMARK    8  A    between atoms: N_9  and  C_10
REMARK    9  A    between atoms: C_12  and  C_13
REMARK                            x       y       z     vdW  Elec       q    Type
REMARK                         _______ _______ _______ _____ _____    ______ ____
ROOT
ATOM      1  C   UNL     1       4.957   4.473  18.509  0.00  0.00    +0.000 A 
ATOM      2  N   UNL     1       4.136   5.363  19.096  0.00  0.00    +0.000 NA
ATOM      3  C   UNL     1       3.707   6.397  18.366  0.00  0.00    +0.000 A 
ATOM      4  N   UNL     1       4.075   6.633  17.099  0.00  0.00    +0.000 NA
ATOM      5  C   UNL     1       4.905   5.763  16.526  0.00  0.00    +0.000 A 
ATOM      6  C   UNL     1       5.281   6.001  15.210  0.00  0.00    +0.000 A 
ATOM      7  C   UNL     1       6.114   5.129  14.511  0.00  0.00    +0.000 A 
ATOM      8  C   UNL     1       6.577   3.978  15.131  0.00  0.00    +0.000 A 
ATOM      9  C   UNL     1       6.224   3.724  16.455  0.00  0.00    +0.000 A 
ATOM     10  C   UNL     1       5.393   4.626  17.179  0.00  0.00    +0.000 A 
ENDROOT
BRANCH   3  11
ATOM     11  C   UNL     1       2.707   7.304  18.967  0.00  0.00    +0.000 A 
ATOM     12  C   UNL     1       2.226   8.437  18.280  0.00  0.00    +0.000 A 
ATOM     13  C   UNL     1       1.294   9.302  18.866  0.00  0.00    +0.000 A 
ATOM     14  C   UNL     1       0.827   9.050  20.153  0.00  0.00    +0.000 A 
ATOM     15 CL   UNL     1      -0.316  10.113  20.874  0.00  0.00    +0.000 Cl
ATOM     16  C   UNL     1       1.283   7.943  20.857  0.00  0.00    +0.000 A 
ATOM     17  C   UNL     1       2.214   7.081  20.267  0.00  0.00    +0.000 A 
ENDBRANCH   3  11
BRANCH   1  18
ATOM     18  N   UNL     1       5.400   3.386  19.293  0.00  0.00    +0.000 N 
ATOM     19  H   UNL     1       6.135   2.868  18.834  0.00  0.00    +0.000 HD
BRANCH  18  20
ATOM     20  C   UNL     1       4.328   2.492  19.745  0.00  0.00    +0.000 C 
BRANCH  20  21
ATOM     21  C   UNL     1       3.948   1.465  18.674  0.00  0.00    +0.000 C 
BRANCH  21  22
ATOM     22  C   UNL     1       2.752   1.920  17.842  0.00  0.00    +0.000 C 
BRANCH  22  23
ATOM     23  O   UNL     1       1.618   2.156  18.684  0.00  0.00    +0.000 OA
BRANCH  23  24
ATOM     24  C   UNL     1       1.141   3.427  18.647  0.00  0.00    +0.000 C 
ATOM     25  O   UNL     1       1.082   4.121  17.636  0.00  0.00    +0.000 OA
BRANCH  24  27
ATOM     26  C   UNL     1       1.234   2.899  21.072  0.00  0.00    +0.000 C 
ATOM     27  C   UNL     1       0.703   3.851  20.019  0.00  0.00    +0.000 C 
ENDBRANCH  24  27
ENDBRANCH  23  24
ENDBRANCH  22  23
ENDBRANCH  21  22
ENDBRANCH  20  21
ENDBRANCH  18  20
ENDBRANCH   1  18
TORSDOF 8
ENDMDL
MODEL 2
REMARK VINA RESULT:      -7.7      0.503      1.067
REMARK  Name = 
REMARK  9 active torsions:
REMARK  status: ('A' for Active; 'I' for Inactive)
REMARK    1  A    between atoms: C_1  and  C_2
REMARK    2  A    between atoms: C_2  and  C_3
REMARK    3  A    between atoms: C_3  and  O_5
REMARK    4  A    between atoms: O_5  and  C_6
REMARK    5  A    between atoms: C_6  and  C_7
REMARK    6  A    between atoms: C_7  and  C_8
REMARK    7  A    between atoms: C_8  and  N_9
REMARK    8  A    between atoms: N_9  and  C_10
REMARK    9  A    between atoms: C_12  and  C_13
REMARK                            x       y       z     vdW  Elec       q    Type
REMARK                         _______ _______ _______ _____ _____    ______ ____
ROOT
ATOM      1  C   UNL     1       4.967   4.719  18.447  0.00  0.00    +0.000 A 
ATOM      2  N   UNL     1       4.138   5.645  18.963  0.00  0.00    +0.000 NA
ATOM      3  C   UNL     1       3.719   6.629  18.162  0.00  0.00    +0.000 A 
ATOM      4  N   UNL     1       4.104   6.782  16.887  0.00  0.00    +0.000 NA
ATOM      5  C   UNL     1       4.941   5.878  16.383  0.00  0.00    +0.000 A 
ATOM      6  C   UNL     1       5.335   6.030  15.059  0.00  0.00    +0.000 A 
ATOM      7  C   UNL     1       6.178   5.115  14.430  0.00  0.00    +0.000 A 
ATOM      8  C   UNL     1       6.632   4.007  15.130  0.00  0.00    +0.000 A 
ATOM      9  C   UNL     1       6.262   3.840  16.463  0.00  0.00    +0.000 A 
ATOM     10  C   UNL     1       5.421   4.786  17.115  0.00  0.00    +0.000 A 
ENDROOT
BRANCH   3  11
ATOM     11  C   UNL     1       2.711   7.571  18.689  0.00  0.00    +0.000 A 
ATOM     12  C   UNL     1       2.219   7.472  20.006  0.00  0.00    +0.000 A 
ATOM     13  C   UNL     1       1.248   8.356  20.490  0.00  0.00    +0.000 A 
ATOM     14  C   UNL     1       0.748   9.358  19.663  0.00  0.00    +0.000 A 
ATOM     15 CL   UNL     1      -0.446  10.444  20.255  0.00  0.00    +0.000 Cl
ATOM     16  C   UNL     1       1.210   9.482  18.358  0.00  0.00    +0.000 A 
ATOM     17  C   UNL     1       2.181   8.596  17.880  0.00  0.00    +0.000 A 
ENDBRANCH   3  11
BRANCH   1  18
ATOM     18  N   UNL     1       5.399   3.687  19.306  0.00  0.00    +0.000 N 
ATOM     19  H   UNL     1       6.078   3.086  18.859  0.00  0.00    +0.000 HD
BRANCH  18  20
ATOM     20  C   UNL     1       4.312   2.902  19.900  0.00  0.00    +0.000 C 
BRANCH  20  21
ATOM     21  C   UNL     1       4.001   1.643  19.085  0.00  0.00    +0.000 C 
BRANCH  21  22
ATOM     22  C   UNL     1       3.193   1.959  17.829  0.00  0.00    +0.000 C 
BRANCH  22  23
ATOM     23  O   UNL     1       1.790   1.916  18.112  0.00  0.00    +0.000 OA
BRANCH  23  24
ATOM     24  C   UNL     1       1.229   3.125  18.370  0.00  0.00    +0.000 C 
ATOM     25  O   UNL     1       1.235   4.078  17.595  0.00  0.00    +0.000 OA
BRANCH  24  27
ATOM     26  C   UNL     1       1.111   4.287  20.561  0.00  0.00    +0.000 C 
ATOM     27  C   UNL     1       0.606   3.121  19.736  0.00  0.00    +0.000 C 
ENDBRANCH  24  27
ENDBRANCH  23  24
ENDBRANCH  22  23
ENDBRANCH  21  22
ENDBRANCH  20  21
ENDBRANCH  18  20
ENDBRANCH   1  18
TORSDOF 8
ENDMDL
MODEL 3
REMARK VINA RESULT:      -7.6      2.558      5.166
REMARK  Name = 
REMARK  9 active torsions:
REMARK  status: ('A' for Active; 'I' for Inactive)
REMARK    1  A    between atoms: C_1  and  C_2
REMARK    2  A    between atoms: C_2  and  C_3
REMARK    3  A    between atoms: C_3  and  O_5
REMARK    4  A    between atoms: O_5  and  C_6
REMARK    5  A    between atoms: C_6  and  C_7
REMARK    6  A    between atoms: C_7  and  C_8
REMARK    7  A    between atoms: C_8  and  N_9
REMARK    8  A    between atoms: N_9  and  C_10
REMARK    9  A    between atoms: C_12  and  C_13
REMARK                            x       y       z     vdW  Elec       q    Type
REMARK                         _______ _______ _______ _____ _____    ______ ____
ROOT
ATOM      1  C   UNL     1       3.253   5.895  18.612  0.00  0.00    +0.000 A 
ATOM      2  N   UNL     1       2.635   7.052  18.915  0.00  0.00    +0.000 NA
ATOM      3  C   UNL     1       1.914   7.103  20.039  0.00  0.00    +0.000 A 
ATOM      4  N   UNL     1       1.729   6.066  20.867  0.00  0.00    +0.000 NA
ATOM      5  C   UNL     1       2.323   4.915  20.556  0.00  0.00    +0.000 A 
ATOM      6  C   UNL     1       2.139   3.840  21.416  0.00  0.00    +0.000 A 
ATOM      7  C   UNL     1       2.751   2.606  21.198  0.00  0.00    +0.000 A 
ATOM      8  C   UNL     1       3.581   2.437  20.100  0.00  0.00    +0.000 A 
ATOM      9  C   UNL     1       3.771   3.497  19.215  0.00  0.00    +0.000 A 
ATOM     10  C   UNL     1       3.128   4.750  19.423  0.00  0.00    +0.000 A 
ENDROOT
BRANCH   3  11
ATOM     11  C   UNL     1       1.342   8.405  20.438  0.00  0.00    +0.000 A 
ATOM     12  C   UNL     1       0.932   8.661  21.762  0.00  0.00    +0.000 A 
ATOM     13  C   UNL     1       0.371   9.891  22.127  0.00  0.00    +0.000 A 
ATOM     14  C   UNL     1       0.207  10.889  21.170  0.00  0.00    +0.000 A 
ATOM     15 CL   UNL     1      -0.484  12.399  21.615  0.00  0.00    +0.000 Cl
ATOM     16  C   UNL     1       0.598  10.668  19.856  0.00  0.00    +0.000 A 
ATOM     17  C   UNL     1       1.159   9.437  19.497  0.00  0.00    +0.000 A 
ENDBRANCH   3  11
BRANCH   1  18
ATOM     18  N   UNL     1       4.010   5.858  17.422  0.00  0.00    +0.000 N 
ATOM     19  H   UNL     1       4.358   4.930  17.228  0.00  0.00    +0.000 HD
BRANCH  18  20
ATOM     20  C   UNL     1       5.089   6.850  17.363  0.00  0.00    +0.000 C 
BRANCH  20  21
ATOM     21  C   UNL     1       6.469   6.207  17.533  0.00  0.00    +0.000 C 
BRANCH  21  22
ATOM     22  C   UNL     1       6.502   4.775  17.006  0.00  0.00    +0.000 C 
BRANCH  22  23
ATOM     23  O   UNL     1       7.565   4.614  16.060  0.00  0.00    +0.000 OA
BRANCH  23  24
ATOM     24  C   UNL     1       7.210   4.835  14.768  0.00  0.00    +0.000 C 
ATOM     25  O   UNL     1       7.806   5.584  13.998  0.00  0.00    +0.000 OA
BRANCH  24  27
ATOM     26  C   UNL     1       6.014   3.604  12.974  0.00  0.00    +0.000 C 
ATOM     27  C   UNL     1       5.988   4.033  14.427  0.00  0.00    +0.000 C 
ENDBRANCH  24  27
ENDBRANCH  23  24
ENDBRANCH  22  23
ENDBRANCH  21  22
ENDBRANCH  20  21
ENDBRANCH  18  20
ENDBRANCH   1  18
TORSDOF 8
ENDMDL
MODEL 4
REMARK VINA RESULT:      -7.6      2.190      4.460
REMARK  Name = 
REMARK  9 active torsions:
REMARK  status: ('A' for Active; 'I' for Inactive)
REMARK    1  A    between atoms: C_1  and  C_2
REMARK    2  A    between atoms: C_2  and  C_3
REMARK    3  A    between atoms: C_3  and  O_5
REMARK    4  A    between atoms: O_5  and  C_6
REMARK    5  A    between atoms: C_6  and  C_7
REMARK    6  A    between atoms: C_7  and  C_8
REMARK    7  A    between atoms: C_8  and  N_9
REMARK    8  A    between atoms: N_9  and  C_10
REMARK    9  A    between atoms: C_12  and  C_13
REMARK                            x       y       z     vdW  Elec       q    Type
REMARK                         _______ _______ _______ _____ _____    ______ ____
ROOT
ATOM      1  C   UNL     1       4.501   4.757  18.855  0.00  0.00    +0.000 A 
ATOM      2  N   UNL     1       4.059   6.028  18.820  0.00  0.00    +0.000 NA
ATOM      3  C   UNL     1       2.740   6.231  18.739  0.00  0.00    +0.000 A 
ATOM      4  N   UNL     1       1.828   5.254  18.646  0.00  0.00    +0.000 NA
ATOM      5  C   UNL     1       2.268   3.996  18.659  0.00  0.00    +0.000 A 
ATOM      6  C   UNL     1       1.324   2.981  18.570  0.00  0.00    +0.000 A 
ATOM      7  C   UNL     1       1.682   1.635  18.615  0.00  0.00    +0.000 A 
ATOM      8  C   UNL     1       3.015   1.284  18.766  0.00  0.00    +0.000 A 
ATOM      9  C   UNL     1       3.982   2.284  18.843  0.00  0.00    +0.000 A 
ATOM     10  C   UNL     1       3.622   3.660  18.774  0.00  0.00    +0.000 A 
ENDROOT
BRANCH   3  11
ATOM     11  C   UNL     1       2.245   7.620  18.829  0.00  0.00    +0.000 A 
ATOM     12  C   UNL     1       2.394   8.532  17.765  0.00  0.00    +0.000 A 
ATOM     13  C   UNL     1       1.942   9.852  17.867  0.00  0.00    +0.000 A 
ATOM     14  C   UNL     1       1.331  10.287  19.040  0.00  0.00    +0.000 A 
ATOM     15 CL   UNL     1       0.775  11.909  19.168  0.00  0.00    +0.000 Cl
ATOM     16  C   UNL     1       1.170   9.415  20.109  0.00  0.00    +0.000 A 
ATOM     17  C   UNL     1       1.624   8.095  20.001  0.00  0.00    +0.000 A 
ENDBRANCH   3  11
BRANCH   1  18
ATOM     18  N   UNL     1       5.895   4.560  18.942  0.00  0.00    +0.000 N 
ATOM     19  H   UNL     1       6.125   3.744  19.491  0.00  0.00    +0.000 HD
BRANCH  18  20
ATOM     20  C   UNL     1       6.643   5.734  19.404  0.00  0.00    +0.000 C 
BRANCH  20  21
ATOM     21  C   UNL     1       7.792   6.093  18.456  0.00  0.00    +0.000 C 
BRANCH  21  22
ATOM     22  C   UNL     1       7.299   6.814  17.205  0.00  0.00    +0.000 C 
BRANCH  22  23
ATOM     23  O   UNL     1       7.126   5.885  16.128  0.00  0.00    +0.000 OA
BRANCH  23  24
ATOM     24  C   UNL     1       5.869   5.842  15.615  0.00  0.00    +0.000 C 
ATOM     25  O   UNL     1       5.149   6.822  15.449  0.00  0.00    +0.000 OA
BRANCH  24  27
ATOM     26  C   UNL     1       6.245   3.944  14.059  0.00  0.00    +0.000 C 
ATOM     27  C   UNL     1       5.498   4.425  15.286  0.00  0.00    +0.000 C 
ENDBRANCH  24  27
ENDBRANCH  23  24
ENDBRANCH  22  23
ENDBRANCH  21  22
ENDBRANCH  20  21
ENDBRANCH  18  20
ENDBRANCH   1  18
TORSDOF 8
ENDMDL
MODEL 5
REMARK VINA RESULT:      -7.5      2.535      5.120
REMARK  Name = 
REMARK  9 active torsions:
REMARK  status: ('A' for Active; 'I' for Inactive)
REMARK    1  A    between atoms: C_1  and  C_2
REMARK    2  A    between atoms: C_2  and  C_3
REMARK    3  A    between atoms: C_3  and  O_5
REMARK    4  A    between atoms: O_5  and  C_6
REMARK    5  A    between atoms: C_6  and  C_7
REMARK    6  A    between atoms: C_7  and  C_8
REMARK    7  A    between atoms: C_8  and  N_9
REMARK    8  A    between atoms: N_9  and  C_10
REMARK    9  A    between atoms: C_12  and  C_13
REMARK                            x       y       z     vdW  Elec       q    Type
REMARK                         _______ _______ _______ _____ _____    ______ ____
ROOT
ATOM      1  C   UNL     1       4.260   5.097  18.913  0.00  0.00    +0.000 A 
ATOM      2  N   UNL     1       3.706   6.300  18.671  0.00  0.00    +0.000 NA
ATOM      3  C   UNL     1       2.593   6.623  19.337  0.00  0.00    +0.000 A 
ATOM      4  N   UNL     1       1.964   5.813  20.200  0.00  0.00    +0.000 NA
ATOM      5  C   UNL     1       2.501   4.614  20.422  0.00  0.00    +0.000 A 
ATOM      6  C   UNL     1       1.856   3.775  21.322  0.00  0.00    +0.000 A 
ATOM      7  C   UNL     1       2.360   2.517  21.651  0.00  0.00    +0.000 A 
ATOM      8  C   UNL     1       3.548   2.085  21.081  0.00  0.00    +0.000 A 
ATOM      9  C   UNL     1       4.207   2.903  20.166  0.00  0.00    +0.000 A 
ATOM     10  C   UNL     1       3.681   4.177  19.810  0.00  0.00    +0.000 A 
ENDROOT
BRANCH   3  11
ATOM     11  C   UNL     1       2.056   7.989  19.169  0.00  0.00    +0.000 A 
ATOM     12  C   UNL     1       2.276   8.734  17.993  0.00  0.00    +0.000 A 
ATOM     13  C   UNL     1       1.782  10.036  17.851  0.00  0.00    +0.000 A 
ATOM     14  C   UNL     1       1.058  10.619  18.887  0.00  0.00    +0.000 A 
ATOM     15 CL   UNL     1       0.450  12.218  18.714  0.00  0.00    +0.000 Cl
ATOM     16  C   UNL     1       0.824   9.913  20.060  0.00  0.00    +0.000 A 
ATOM     17  C   UNL     1       1.320   8.612  20.196  0.00  0.00    +0.000 A 
ENDBRANCH   3  11
BRANCH   1  18
ATOM     18  N   UNL     1       5.434   4.771  18.203  0.00  0.00    +0.000 N 
ATOM     19  H   UNL     1       5.460   3.794  17.948  0.00  0.00    +0.000 HD
BRANCH  18  20
ATOM     20  C   UNL     1       6.675   5.174  18.873  0.00  0.00    +0.000 C 
BRANCH  20  21
ATOM     21  C   UNL     1       7.512   6.123  18.010  0.00  0.00    +0.000 C 
BRANCH  21  22
ATOM     22  C   UNL     1       7.027   6.159  16.563  0.00  0.00    +0.000 C 
BRANCH  22  23
ATOM     23  O   UNL     1       7.139   4.863  15.965  0.00  0.00    +0.000 OA
BRANCH  23  24
ATOM     24  C   UNL     1       7.140   4.865  14.607  0.00  0.00    +0.000 C 
ATOM     25  O   UNL     1       7.906   5.525  13.910  0.00  0.00    +0.000 OA
BRANCH  24  27
ATOM     26  C   UNL     1       6.333   3.571  12.647  0.00  0.00    +0.000 C 
ATOM     27  C   UNL     1       6.071   3.946  14.092  0.00  0.00    +0.000 C 
ENDBRANCH  24  27
ENDBRANCH  23  24
ENDBRANCH  22  23
ENDBRANCH  21  22
ENDBRANCH  20  21
ENDBRANCH  18  20
ENDBRANCH   1  18
TORSDOF 8
ENDMDL
MODEL 6
REMARK VINA RESULT:      -7.5      2.425      4.611
REMARK  Name = 
REMARK  9 active torsions:
REMARK  status: ('A' for Active; 'I' for Inactive)
REMARK    1  A    between atoms: C_1  and  C_2
REMARK    2  A    between atoms: C_2  and  C_3
REMARK    3  A    between atoms: C_3  and  O_5
REMARK    4  A    between atoms: O_5  and  C_6
REMARK    5  A    between atoms: C_6  and  C_7
REMARK    6  A    between atoms: C_7  and  C_8
REMARK    7  A    between atoms: C_8  and  N_9
REMARK    8  A    between atoms: N_9  and  C_10
REMARK    9  A    between atoms: C_12  and  C_13
REMARK                            x       y       z     vdW  Elec       q    Type
REMARK                         _______ _______ _______ _____ _____    ______ ____
ROOT
ATOM      1  C   UNL     1       4.631   5.085  19.249  0.00  0.00    +0.000 A 
ATOM      2  N   UNL     1       4.105   6.324  19.217  0.00  0.00    +0.000 NA
ATOM      3  C   UNL     1       2.836   6.456  18.816  0.00  0.00    +0.000 A 
ATOM      4  N   UNL     1       2.064   5.442  18.403  0.00  0.00    +0.000 NA
ATOM      5  C   UNL     1       2.592   4.219  18.414  0.00  0.00    +0.000 A 
ATOM      6  C   UNL     1       1.791   3.166  17.993  0.00  0.00    +0.000 A 
ATOM      7  C   UNL     1       2.240   1.846  18.006  0.00  0.00    +0.000 A 
ATOM      8  C   UNL     1       3.518   1.561  18.463  0.00  0.00    +0.000 A 
ATOM      9  C   UNL     1       4.345   2.602  18.878  0.00  0.00    +0.000 A 
ATOM     10  C   UNL     1       3.898   3.953  18.844  0.00  0.00    +0.000 A 
ENDROOT
BRANCH   3  11
ATOM     11  C   UNL     1       2.218   7.795  18.902  0.00  0.00    +0.000 A 
ATOM     12  C   UNL     1       2.319   8.727  17.850  0.00  0.00    +0.000 A 
ATOM     13  C   UNL     1       1.748  10.002  17.948  0.00  0.00    +0.000 A 
ATOM     14  C   UNL     1       1.065  10.368  19.104  0.00  0.00    +0.000 A 
ATOM     15 CL   UNL     1       0.363  11.933  19.227  0.00  0.00    +0.000 Cl
ATOM     16  C   UNL     1       0.948   9.473  20.160  0.00  0.00    +0.000 A 
ATOM     17  C   UNL     1       1.521   8.200  20.056  0.00  0.00    +0.000 A 
ENDBRANCH   3  11
BRANCH   1  18
ATOM     18  N   UNL     1       5.971   4.963  19.674  0.00  0.00    +0.000 N 
ATOM     19  H   UNL     1       6.086   5.245  20.637  0.00  0.00    +0.000 HD
BRANCH  18  20
ATOM     20  C   UNL     1       6.943   5.638  18.808  0.00  0.00    +0.000 C 
BRANCH  20  21
ATOM     21  C   UNL     1       7.465   4.715  17.702  0.00  0.00    +0.000 C 
BRANCH  21  22
ATOM     22  C   UNL     1       7.197   5.281  16.310  0.00  0.00    +0.000 C 
BRANCH  22  23
ATOM     23  O   UNL     1       6.923   4.224  15.384  0.00  0.00    +0.000 OA
BRANCH  23  24
ATOM     24  C   UNL     1       6.801   4.621  14.092  0.00  0.00    +0.000 C 
ATOM     25  O   UNL     1       7.523   5.450  13.545  0.00  0.00    +0.000 OA
BRANCH  24  27
ATOM     26  C   UNL     1       6.107   3.230  12.156  0.00  0.00    +0.000 C 
ATOM     27  C   UNL     1       5.658   3.900  13.439  0.00  0.00    +0.000 C 
ENDBRANCH  24  27
ENDBRANCH  23  24
ENDBRANCH  22  23
ENDBRANCH  21  22
ENDBRANCH  20  21
ENDBRANCH  18  20
ENDBRANCH   1  18
TORSDOF 8
ENDMDL
MODEL 7
REMARK VINA RESULT:      -7.5      2.392      4.771
REMARK  Name = 
REMARK  9 active torsions:
REMARK  status: ('A' for Active; 'I' for Inactive)
REMARK    1  A    between atoms: C_1  and  C_2
REMARK    2  A    between atoms: C_2  and  C_3
REMARK    3  A    between atoms: C_3  and  O_5
REMARK    4  A    between atoms: O_5  and  C_6
REMARK    5  A    between atoms: C_6  and  C_7
REMARK    6  A    between atoms: C_7  and  C_8
REMARK    7  A    between atoms: C_8  and  N_9
REMARK    8  A    between atoms: N_9  and  C_10
REMARK    9  A    between atoms: C_12  and  C_13
REMARK                            x       y       z     vdW  Elec       q    Type
REMARK                         _______ _______ _______ _____ _____    ______ ____
ROOT
ATOM      1  C   UNL     1       4.588   4.949  19.184  0.00  0.00    +0.000 A 
ATOM      2  N   UNL     1       4.085   6.197  19.177  0.00  0.00    +0.000 NA
ATOM      3  C   UNL     1       2.781   6.347  18.923  0.00  0.00    +0.000 A 
ATOM      4  N   UNL     1       1.947   5.340  18.632  0.00  0.00    +0.000 NA
ATOM      5  C   UNL     1       2.450   4.106  18.618  0.00  0.00    +0.000 A 
ATOM      6  C   UNL     1       1.585   3.060  18.323  0.00  0.00    +0.000 A 
ATOM      7  C   UNL     1       2.007   1.731  18.323  0.00  0.00    +0.000 A 
ATOM      8  C   UNL     1       3.324   1.430  18.637  0.00  0.00    +0.000 A 
ATOM      9  C   UNL     1       4.214   2.464  18.922  0.00  0.00    +0.000 A 
ATOM     10  C   UNL     1       3.791   3.823  18.900  0.00  0.00    +0.000 A 
ENDROOT
BRANCH   3  11
ATOM     11  C   UNL     1       2.202   7.701  19.040  0.00  0.00    +0.000 A 
ATOM     12  C   UNL     1       1.549   8.129  20.213  0.00  0.00    +0.000 A 
ATOM     13  C   UNL     1       0.984   9.407  20.308  0.00  0.00    +0.000 A 
ATOM     14  C   UNL     1       1.062  10.281  19.227  0.00  0.00    +0.000 A 
ATOM     15 CL   UNL     1       0.368  11.850  19.341  0.00  0.00    +0.000 Cl
ATOM     16  C   UNL     1       1.697   9.889  18.056  0.00  0.00    +0.000 A 
ATOM     17  C   UNL     1       2.260   8.611  17.967  0.00  0.00    +0.000 A 
ENDBRANCH   3  11
BRANCH   1  18
ATOM     18  N   UNL     1       5.965   4.808  19.455  0.00  0.00    +0.000 N 
ATOM     19  H   UNL     1       6.165   4.901  20.441  0.00  0.00    +0.000 HD
BRANCH  18  20
ATOM     20  C   UNL     1       6.830   5.685  18.657  0.00  0.00    +0.000 C 
BRANCH  20  21
ATOM     21  C   UNL     1       7.233   5.039  17.328  0.00  0.00    +0.000 C 
BRANCH  21  22
ATOM     22  C   UNL     1       6.075   5.003  16.334  0.00  0.00    +0.000 C 
BRANCH  22  23
ATOM     23  O   UNL     1       6.395   5.766  15.165  0.00  0.00    +0.000 OA
BRANCH  23  24
ATOM     24  C   UNL     1       7.042   5.070  14.196  0.00  0.00    +0.000 C 
ATOM     25  O   UNL     1       8.089   5.424  13.662  0.00  0.00    +0.000 OA
BRANCH  24  27
ATOM     26  C   UNL     1       6.268   3.559  12.383  0.00  0.00    +0.000 C 
ATOM     27  C   UNL     1       6.287   3.812  13.877  0.00  0.00    +0.000 C 
ENDBRANCH  24  27
ENDBRANCH  23  24
ENDBRANCH  22  23
ENDBRANCH  21  22
ENDBRANCH  20  21
ENDBRANCH  18  20
ENDBRANCH   1  18
TORSDOF 8
ENDMDL
MODEL 8
REMARK VINA RESULT:      -7.4      2.257      4.895
REMARK  Name = 
REMARK  9 active torsions:
REMARK  status: ('A' for Active; 'I' for Inactive)
REMARK    1  A    between atoms: C_1  and  C_2
REMARK    2  A    between atoms: C_2  and  C_3
REMARK    3  A    between atoms: C_3  and  O_5
REMARK    4  A    between atoms: O_5  and  C_6
REMARK    5  A    between atoms: C_6  and  C_7
REMARK    6  A    between atoms: C_7  and  C_8
REMARK    7  A    between atoms: C_8  and  N_9
REMARK    8  A    between atoms: N_9  and  C_10
REMARK    9  A    between atoms: C_12  and  C_13
REMARK                            x       y       z     vdW  Elec       q    Type
REMARK                         _______ _______ _______ _____ _____    ______ ____
ROOT
ATOM      1  C   UNL     1       3.774   5.823  18.419  0.00  0.00    +0.000 A 
ATOM      2  N   UNL     1       3.104   6.985  18.539  0.00  0.00    +0.000 NA
ATOM      3  C   UNL     1       2.209   7.095  19.526  0.00  0.00    +0.000 A 
ATOM      4  N   UNL     1       1.901   6.110  20.380  0.00  0.00    +0.000 NA
ATOM      5  C   UNL     1       2.548   4.953  20.248  0.00  0.00    +0.000 A 
ATOM      6  C   UNL     1       2.235   3.933  21.137  0.00  0.00    +0.000 A 
ATOM      7  C   UNL     1       2.885   2.700  21.105  0.00  0.00    +0.000 A 
ATOM      8  C   UNL     1       3.885   2.476  20.171  0.00  0.00    +0.000 A 
ATOM      9  C   UNL     1       4.207   3.480  19.259  0.00  0.00    +0.000 A 
ATOM     10  C   UNL     1       3.529   4.731  19.275  0.00  0.00    +0.000 A 
ENDROOT
BRANCH   3  11
ATOM     11  C   UNL     1       1.568   8.409  19.738  0.00  0.00    +0.000 A 
ATOM     12  C   UNL     1       1.429   9.344  18.693  0.00  0.00    +0.000 A 
ATOM     13  C   UNL     1       0.839  10.595  18.907  0.00  0.00    +0.000 A 
ATOM     14  C   UNL     1       0.377  10.935  20.176  0.00  0.00    +0.000 A 
ATOM     15 CL   UNL     1      -0.347  12.472  20.442  0.00  0.00    +0.000 Cl
ATOM     16  C   UNL     1       0.501  10.037  21.229  0.00  0.00    +0.000 A 
ATOM     17  C   UNL     1       1.091   8.787  21.008  0.00  0.00    +0.000 A 
ENDBRANCH   3  11
BRANCH   1  18
ATOM     18  N   UNL     1       4.715   5.724  17.374  0.00  0.00    +0.000 N 
ATOM     19  H   UNL     1       5.038   4.775  17.249  0.00  0.00    +0.000 HD
BRANCH  18  20
ATOM     20  C   UNL     1       5.843   6.655  17.487  0.00  0.00    +0.000 C 
BRANCH  20  21
ATOM     21  C   UNL     1       7.105   5.966  18.016  0.00  0.00    +0.000 C 
BRANCH  21  22
ATOM     22  C   UNL     1       7.402   4.666  17.273  0.00  0.00    +0.000 C 
BRANCH  22  23
ATOM     23  O   UNL     1       7.500   4.906  15.865  0.00  0.00    +0.000 OA
BRANCH  23  24
ATOM     24  C   UNL     1       6.651   4.168  15.106  0.00  0.00    +0.000 C 
ATOM     25  O   UNL     1       5.819   3.382  15.551  0.00  0.00    +0.000 OA
BRANCH  24  27
ATOM     26  C   UNL     1       6.024   3.558  12.781  0.00  0.00    +0.000 C 
ATOM     27  C   UNL     1       6.882   4.455  13.650  0.00  0.00    +0.000 C 
ENDBRANCH  24  27
ENDBRANCH  23  24
ENDBRANCH  22  23
ENDBRANCH  21  22
ENDBRANCH  20  21
ENDBRANCH  18  20
ENDBRANCH   1  18
TORSDOF 8
ENDMDL
MODEL 9
REMARK VINA RESULT:      -7.4      2.532      5.004
REMARK  Name = 
REMARK  9 active torsions:
REMARK  status: ('A' for Active; 'I' for Inactive)
REMARK    1  A    between atoms: C_1  and  C_2
REMARK    2  A    between atoms: C_2  and  C_3
REMARK    3  A    between atoms: C_3  and  O_5
REMARK    4  A    between atoms: O_5  and  C_6
REMARK    5  A    between atoms: C_6  and  C_7
REMARK    6  A    between atoms: C_7  and  C_8
REMARK    7  A    between atoms: C_8  and  N_9
REMARK    8  A    between atoms: N_9  and  C_10
REMARK    9  A    between atoms: C_12  and  C_13
REMARK                            x       y       z     vdW  Elec       q    Type
REMARK                         _______ _______ _______ _____ _____    ______ ____
ROOT
ATOM      1  C   UNL     1       3.486   5.199  18.123  0.00  0.00    +0.000 A 
ATOM      2  N   UNL     1       3.013   6.458  18.072  0.00  0.00    +0.000 NA
ATOM      3  C   UNL     1       2.301   6.904  19.112  0.00  0.00    +0.000 A 
ATOM      4  N   UNL     1       1.989   6.166  20.186  0.00  0.00    +0.000 NA
ATOM      5  C   UNL     1       2.439   4.913  20.227  0.00  0.00    +0.000 A 
ATOM      6  C   UNL     1       2.123   4.150  21.343  0.00  0.00    +0.000 A 
ATOM      7  C   UNL     1       2.581   2.842  21.496  0.00  0.00    +0.000 A 
ATOM      8  C   UNL     1       3.388   2.279  20.519  0.00  0.00    +0.000 A 
ATOM      9  C   UNL     1       3.707   3.020  19.384  0.00  0.00    +0.000 A 
ATOM     10  C   UNL     1       3.221   4.348  19.214  0.00  0.00    +0.000 A 
ENDROOT
BRANCH   3  11
ATOM     11  C   UNL     1       1.890   8.323  19.114  0.00  0.00    +0.000 A 
ATOM     12  C   UNL     1       1.177   8.887  20.191  0.00  0.00    +0.000 A 
ATOM     13  C   UNL     1       0.773  10.227  20.176  0.00  0.00    +0.000 A 
ATOM     14  C   UNL     1       1.074  11.029  19.079  0.00  0.00    +0.000 A 
ATOM     15 CL   UNL     1       0.578  12.675  19.057  0.00  0.00    +0.000 Cl
ATOM     16  C   UNL     1       1.775  10.504  18.000  0.00  0.00    +0.000 A 
ATOM     17  C   UNL     1       2.177   9.163  18.021  0.00  0.00    +0.000 A 
ENDBRANCH   3  11
BRANCH   1  18
ATOM     18  N   UNL     1       4.236   4.744  17.018  0.00  0.00    +0.000 N 
ATOM     19  H   UNL     1       4.956   4.093  17.296  0.00  0.00    +0.000 HD
BRANCH  18  20
ATOM     20  C   UNL     1       4.789   5.815  16.182  0.00  0.00    +0.000 C 
BRANCH  20  21
ATOM     21  C   UNL     1       5.709   5.271  15.085  0.00  0.00    +0.000 C 
BRANCH  21  22
ATOM     22  C   UNL     1       6.971   4.634  15.661  0.00  0.00    +0.000 C 
BRANCH  22  23
ATOM     23  O   UNL     1       7.696   5.585  16.449  0.00  0.00    +0.000 OA
BRANCH  23  24
ATOM     24  C   UNL     1       7.630   5.376  17.789  0.00  0.00    +0.000 C 
ATOM     25  O   UNL     1       7.538   4.272  18.320  0.00  0.00    +0.000 OA
BRANCH  24  27
ATOM     26  C   UNL     1       7.743   7.844  17.539  0.00  0.00    +0.000 C 
ATOM     27  C   UNL     1       7.686   6.687  18.517  0.00  0.00    +0.000 C 
ENDBRANCH  24  27
ENDBRANCH  23  24
ENDBRANCH  22  23
ENDBRANCH  21  22
ENDBRANCH  20  21
ENDBRANCH  18  20
ENDBRANCH   1  18
TORSDOF 8
ENDMDL
