MODEL 1
REMARK VINA RESULT:      -7.6      0.000      0.000
REMARK  Name = 
REMARK  11 active torsions:
REMARK  status: ('A' for Active; 'I' for Inactive)
REMARK    1  A    between atoms: C_1  and  C_2
REMARK    2  A    between atoms: C_2  and  C_3
REMARK    3  A    between atoms: C_3  and  N_4
REMARK    4  A    between atoms: C_5  and  C_7
REMARK    5  A    between atoms: C_10  and  C_11
REMARK    6  A    between atoms: C_11  and  S_12
REMARK    7  A    between atoms: S_12  and  C_15
REMARK    8  A    between atoms: C_21  and  C_22
REMARK    9  A    between atoms: N_24  and  C_25
REMARK   10  A    between atoms: C_25  and  C_26
REMARK   11  A    between atoms: C_26  and  C_27
REMARK                            x       y       z     vdW  Elec       q    Type
REMARK                         _______ _______ _______ _____ _____    ______ ____
ROOT
ATOM      1  C   UNL     1       6.406   4.934  18.814  0.00  0.00    +0.000 A 
ATOM      2  O   UNL     1       5.915   4.274  19.901  0.00  0.00    +0.000 OA
ATOM      3  N   UNL     1       4.858   3.478  19.542  0.00  0.00    +0.000 NA
ATOM      4  C   UNL     1       4.667   3.683  18.231  0.00  0.00    +0.000 A 
ATOM      5  C   UNL     1       5.661   4.578  17.699  0.00  0.00    +0.000 A 
ENDROOT
BRANCH   1   7
ATOM      6  N   UNL     1       7.485   7.018  18.402  0.00  0.00    +0.000 N 
ATOM      7  C   UNL     1       7.550   5.789  19.030  0.00  0.00    +0.000 C 
ATOM      8  O   UNL     1       8.522   5.457  19.704  0.00  0.00    +0.000 OA
ATOM      9  H   UNL     1       6.706   7.194  17.776  0.00  0.00    +0.000 HD
BRANCH   6  10
ATOM     10  C   UNL     1       8.567   7.980  18.451  0.00  0.00    +0.000 C 
BRANCH  10  12
ATOM     11  C   UNL     1       9.036  10.451  18.353  0.00  0.00    +0.000 C 
ATOM     12  C   UNL     1       8.136   9.324  17.876  0.00  0.00    +0.000 C 
ENDBRANCH  10  12
ENDBRANCH   6  10
ENDBRANCH   1   7
BRANCH   5  13
ATOM     13  C   UNL     1       5.826   4.959  16.305  0.00  0.00    +0.000 C 
ATOM     14  O   UNL     1       5.639   6.122  15.963  0.00  0.00    +0.000 OA
ATOM     15  N   UNL     1       6.194   3.981  15.400  0.00  0.00    +0.000 N 
ATOM     16  H   UNL     1       6.101   3.000  15.658  0.00  0.00    +0.000 HD
BRANCH  15  17
ATOM     17  C   UNL     1       6.337   4.300  13.993  0.00  0.00    +0.000 C 
BRANCH  17  18
ATOM     18  C   UNL     1       5.265   3.680  13.098  0.00  0.00    +0.000 C 
ATOM     19  C   UNL     1       5.838   2.927  11.907  0.00  0.00    +0.000 C 
ENDBRANCH  17  18
ENDBRANCH  15  17
ENDBRANCH   5  13
BRANCH   4  20
ATOM     20  C   UNL     1       3.513   2.991  17.570  0.00  0.00    +0.000 C 
BRANCH  20  21
ATOM     21  S   UNL     1       1.972   3.439  18.370  0.00  0.00    +0.000 S 
ATOM     22  O   UNL     1       0.913   3.516  17.383  0.00  0.00    +0.000 OA
ATOM     23  O   UNL     1       1.813   2.593  19.542  0.00  0.00    +0.000 OA
BRANCH  21  24
ATOM     24  C   UNL     1       2.162   5.122  18.966  0.00  0.00    +0.000 A 
ATOM     25  C   UNL     1       2.418   6.153  18.056  0.00  0.00    +0.000 A 
ATOM     26  C   UNL     1       2.395   7.483  18.494  0.00  0.00    +0.000 A 
ATOM     27  C   UNL     1       2.096   7.782  19.823  0.00  0.00    +0.000 A 
ATOM     28  C   UNL     1       1.835   6.751  20.727  0.00  0.00    +0.000 A 
ATOM     29  C   UNL     1       1.866   5.419  20.300  0.00  0.00    +0.000 A 
ENDBRANCH  21  24
ENDBRANCH  20  21
ENDBRANCH   4  20
TORSDOF 9
ENDMDL
MODEL 2
REMARK VINA RESULT:      -7.6      2.299      5.318
REMARK  Name = 
REMARK  11 active torsions:
REMARK  status: ('A' for Active; 'I' for Inactive)
REMARK    1  A    between atoms: C_1  and  C_2
REMARK    2  A    between atoms: C_2  and  C_3
REMARK    3  A    between atoms: C_3  and  N_4
REMARK    4  A    between atoms: C_5  and  C_7
REMARK    5  A    between atoms: C_10  and  C_11
REMARK    6  A    between atoms: C_11  and  S_12
REMARK    7  A    between atoms: S_12  and  C_15
REMARK    8  A    between atoms: C_21  and  C_22
REMARK    9  A    between atoms: N_24  and  C_25
REMARK   10  A    between atoms: C_25  and  C_26
REMARK   11  A    between atoms: C_26  and  C_27
REMARK                            x       y       z     vdW  Elec       q    Type
REMARK                         _______ _______ _______ _____ _____    ______ ____
ROOT
ATOM      1  C   UNL     1       6.048   4.791  16.159  0.00  0.00    +0.000 A 
ATOM      2  O   UNL     1       5.403   3.651  16.540  0.00  0.00    +0.000 OA
ATOM      3  N   UNL     1       4.774   3.837  17.744  0.00  0.00    +0.000 NA
ATOM      4  C   UNL     1       5.070   5.085  18.130  0.00  0.00    +0.000 A 
ATOM      5  C   UNL     1       5.852   5.763  17.129  0.00  0.00    +0.000 A 
ENDROOT
BRANCH   1   7
ATOM      6  N   UNL     1       6.133   3.971  13.923  0.00  0.00    +0.000 N 
ATOM      7  C   UNL     1       6.732   4.760  14.887  0.00  0.00    +0.000 C 
ATOM      8  O   UNL     1       7.776   5.369  14.668  0.00  0.00    +0.000 OA
ATOM      9  H   UNL     1       5.331   3.411  14.194  0.00  0.00    +0.000 HD
BRANCH   6  10
ATOM     10  C   UNL     1       6.710   3.767  12.611  0.00  0.00    +0.000 C 
BRANCH  10  12
ATOM     11  C   UNL     1       4.470   3.262  11.580  0.00  0.00    +0.000 C 
ATOM     12  C   UNL     1       5.891   2.771  11.797  0.00  0.00    +0.000 C 
ENDBRANCH  10  12
ENDBRANCH   6  10
ENDBRANCH   1   7
BRANCH   5  13
ATOM     13  C   UNL     1       6.279   7.153  17.158  0.00  0.00    +0.000 C 
ATOM     14  O   UNL     1       5.455   8.049  17.005  0.00  0.00    +0.000 OA
ATOM     15  N   UNL     1       7.620   7.420  17.360  0.00  0.00    +0.000 N 
ATOM     16  H   UNL     1       8.303   6.675  17.237  0.00  0.00    +0.000 HD
BRANCH  15  17
ATOM     17  C   UNL     1       8.103   8.787  17.362  0.00  0.00    +0.000 C 
BRANCH  17  18
ATOM     18  C   UNL     1       8.693   9.239  18.698  0.00  0.00    +0.000 C 
ATOM     19  C   UNL     1       9.300  10.633  18.645  0.00  0.00    +0.000 C 
ENDBRANCH  17  18
ENDBRANCH  15  17
ENDBRANCH   5  13
BRANCH   4  20
ATOM     20  C   UNL     1       4.571   5.548  19.466  0.00  0.00    +0.000 C 
BRANCH  20  21
ATOM     21  S   UNL     1       2.850   6.038  19.356  0.00  0.00    +0.000 S 
ATOM     22  O   UNL     1       2.508   6.882  20.485  0.00  0.00    +0.000 OA
ATOM     23  O   UNL     1       2.602   6.504  18.001  0.00  0.00    +0.000 OA
BRANCH  21  24
ATOM     24  C   UNL     1       1.866   4.554  19.584  0.00  0.00    +0.000 A 
ATOM     25  C   UNL     1       1.383   3.865  18.467  0.00  0.00    +0.000 A 
ATOM     26  C   UNL     1       0.765   2.620  18.636  0.00  0.00    +0.000 A 
ATOM     27  C   UNL     1       0.651   2.058  19.907  0.00  0.00    +0.000 A 
ATOM     28  C   UNL     1       1.139   2.745  21.019  0.00  0.00    +0.000 A 
ATOM     29  C   UNL     1       1.749   3.995  20.860  0.00  0.00    +0.000 A 
ENDBRANCH  21  24
ENDBRANCH  20  21
ENDBRANCH   4  20
TORSDOF 9
ENDMDL
MODEL 3
REMARK VINA RESULT:      -7.5      1.322      4.917
REMARK  Name = 
REMARK  11 active torsions:
REMARK  status: ('A' for Active; 'I' for Inactive)
REMARK    1  A    between atoms: C_1  and  C_2
REMARK    2  A    between atoms: C_2  and  C_3
REMARK    3  A    between atoms: C_3  and  N_4
REMARK    4  A    between atoms: C_5  and  C_7
REMARK    5  A    between atoms: C_10  and  C_11
REMARK    6  A    between atoms: C_11  and  S_12
REMARK    7  A    between atoms: S_12  and  C_15
REMARK    8  A    between atoms: C_21  and  C_22
REMARK    9  A    between atoms: N_24  and  C_25
REMARK   10  A    between atoms: C_25  and  C_26
REMARK   11  A    between atoms: C_26  and  C_27
REMARK                            x       y       z     vdW  Elec       q    Type
REMARK                         _______ _______ _______ _____ _____    ______ ____
ROOT
ATOM      1  C   UNL     1       5.348   4.272  16.159  0.00  0.00    +0.000 A 
ATOM      2  O   UNL     1       4.148   3.626  16.113  0.00  0.00    +0.000 OA
ATOM      3  N   UNL     1       3.632   3.483  17.375  0.00  0.00    +0.000 NA
ATOM      4  C   UNL     1       4.542   4.002  18.210  0.00  0.00    +0.000 A 
ATOM      5  C   UNL     1       5.649   4.564  17.482  0.00  0.00    +0.000 A 
ENDROOT
BRANCH   1   7
ATOM      6  N   UNL     1       5.838   3.541  13.945  0.00  0.00    +0.000 N 
ATOM      7  C   UNL     1       6.001   4.530  14.897  0.00  0.00    +0.000 C 
ATOM      8  O   UNL     1       6.669   5.537  14.676  0.00  0.00    +0.000 OA
ATOM      9  H   UNL     1       5.364   2.687  14.220  0.00  0.00    +0.000 HD
BRANCH   6  10
ATOM     10  C   UNL     1       6.473   3.595  12.645  0.00  0.00    +0.000 C 
BRANCH  10  12
ATOM     11  C   UNL     1       4.329   3.177  11.395  0.00  0.00    +0.000 C 
ATOM     12  C   UNL     1       5.751   2.703  11.641  0.00  0.00    +0.000 C 
ENDBRANCH  10  12
ENDBRANCH   6  10
ENDBRANCH   1   7
BRANCH   5  13
ATOM     13  C   UNL     1       6.776   5.292  18.044  0.00  0.00    +0.000 C 
ATOM     14  O   UNL     1       7.554   4.723  18.803  0.00  0.00    +0.000 OA
ATOM     15  N   UNL     1       6.933   6.621  17.698  0.00  0.00    +0.000 N 
ATOM     16  H   UNL     1       6.154   7.125  17.278  0.00  0.00    +0.000 HD
BRANCH  15  17
ATOM     17  C   UNL     1       8.019   7.401  18.258  0.00  0.00    +0.000 C 
BRANCH  17  18
ATOM     18  C   UNL     1       8.026   8.866  17.822  0.00  0.00    +0.000 C 
ATOM     19  C   UNL     1       8.897   9.751  18.703  0.00  0.00    +0.000 C 
ENDBRANCH  17  18
ENDBRANCH  15  17
ENDBRANCH   5  13
BRANCH   4  20
ATOM     20  C   UNL     1       4.278   3.915  19.684  0.00  0.00    +0.000 C 
BRANCH  20  21
ATOM     21  S   UNL     1       2.532   4.148  20.020  0.00  0.00    +0.000 S 
ATOM     22  O   UNL     1       1.745   3.382  19.073  0.00  0.00    +0.000 OA
ATOM     23  O   UNL     1       2.323   3.972  21.448  0.00  0.00    +0.000 OA
BRANCH  21  24
ATOM     24  C   UNL     1       2.150   5.862  19.646  0.00  0.00    +0.000 A 
ATOM     25  C   UNL     1       1.738   6.719  20.672  0.00  0.00    +0.000 A 
ATOM     26  C   UNL     1       1.606   8.089  20.417  0.00  0.00    +0.000 A 
ATOM     27  C   UNL     1       1.906   8.603  19.155  0.00  0.00    +0.000 A 
ATOM     28  C   UNL     1       2.323   7.746  18.136  0.00  0.00    +0.000 A 
ATOM     29  C   UNL     1       2.447   6.374  18.379  0.00  0.00    +0.000 A 
ENDBRANCH  21  24
ENDBRANCH  20  21
ENDBRANCH   4  20
TORSDOF 9
ENDMDL
MODEL 4
REMARK VINA RESULT:      -7.5      1.590      5.044
REMARK  Name = 
REMARK  11 active torsions:
REMARK  status: ('A' for Active; 'I' for Inactive)
REMARK    1  A    between atoms: C_1  and  C_2
REMARK    2  A    between atoms: C_2  and  C_3
REMARK    3  A    between atoms: C_3  and  N_4
REMARK    4  A    between atoms: C_5  and  C_7
REMARK    5  A    between atoms: C_10  and  C_11
REMARK    6  A    between atoms: C_11  and  S_12
REMARK    7  A    between atoms: S_12  and  C_15
REMARK    8  A    between atoms: C_21  and  C_22
REMARK    9  A    between atoms: N_24  and  C_25
REMARK   10  A    between atoms: C_25  and  C_26
REMARK   11  A    between atoms: C_26  and  C_27
REMARK                            x       y       z     vdW  Elec       q    Type
REMARK                         _______ _______ _______ _____ _____    ______ ____
ROOT
ATOM      1  C   UNL     1       5.744   4.776  16.096  0.00  0.00    +0.000 A 
ATOM      2  O   UNL     1       4.523   4.170  16.075  0.00  0.00    +0.000 OA
ATOM      3  N   UNL     1       3.901   4.304  17.289  0.00  0.00    +0.000 NA
ATOM      4  C   UNL     1       4.764   4.956  18.080  0.00  0.00    +0.000 A 
ATOM      5  C   UNL     1       5.951   5.324  17.354  0.00  0.00    +0.000 A 
ENDROOT
BRANCH   1   7
ATOM      6  N   UNL     1       5.995   3.931  13.882  0.00  0.00    +0.000 N 
ATOM      7  C   UNL     1       6.508   4.749  14.870  0.00  0.00    +0.000 C 
ATOM      8  O   UNL     1       7.547   5.386  14.708  0.00  0.00    +0.000 OA
ATOM      9  H   UNL     1       5.193   3.351  14.110  0.00  0.00    +0.000 HD
BRANCH   6  10
ATOM     10  C   UNL     1       6.659   3.727  12.612  0.00  0.00    +0.000 C 
BRANCH  10  12
ATOM     11  C   UNL     1       7.069   1.745  11.115  0.00  0.00    +0.000 C 
ATOM     12  C   UNL     1       6.023   2.579  11.835  0.00  0.00    +0.000 C 
ENDBRANCH  10  12
ENDBRANCH   6  10
ENDBRANCH   1   7
BRANCH   5  13
ATOM     13  C   UNL     1       7.063   6.118  17.855  0.00  0.00    +0.000 C 
ATOM     14  O   UNL     1       7.834   5.638  18.679  0.00  0.00    +0.000 OA
ATOM     15  N   UNL     1       7.212   7.406  17.377  0.00  0.00    +0.000 N 
ATOM     16  H   UNL     1       6.435   7.855  16.895  0.00  0.00    +0.000 HD
BRANCH  15  17
ATOM     17  C   UNL     1       8.282   8.251  17.870  0.00  0.00    +0.000 C 
BRANCH  17  18
ATOM     18  C   UNL     1       7.949   9.743  17.874  0.00  0.00    +0.000 C 
ATOM     19  C   UNL     1       9.113  10.617  18.319  0.00  0.00    +0.000 C 
ENDBRANCH  17  18
ENDBRANCH  15  17
ENDBRANCH   5  13
BRANCH   4  20
ATOM     20  C   UNL     1       4.379   5.181  19.511  0.00  0.00    +0.000 C 
BRANCH  20  21
ATOM     21  S   UNL     1       2.603   5.381  19.656  0.00  0.00    +0.000 S 
ATOM     22  O   UNL     1       1.942   4.677  18.575  0.00  0.00    +0.000 OA
ATOM     23  O   UNL     1       2.232   5.108  21.035  0.00  0.00    +0.000 OA
BRANCH  21  24
ATOM     24  C   UNL     1       2.244   7.114  19.355  0.00  0.00    +0.000 A 
ATOM     25  C   UNL     1       2.420   7.645  18.072  0.00  0.00    +0.000 A 
ATOM     26  C   UNL     1       1.980   8.945  17.796  0.00  0.00    +0.000 A 
ATOM     27  C   UNL     1       1.350   9.701  18.784  0.00  0.00    +0.000 A 
ATOM     28  C   UNL     1       1.170   9.166  20.061  0.00  0.00    +0.000 A 
ATOM     29  C   UNL     1       1.616   7.872  20.349  0.00  0.00    +0.000 A 
ENDBRANCH  21  24
ENDBRANCH  20  21
ENDBRANCH   4  20
TORSDOF 9
ENDMDL
MODEL 5
REMARK VINA RESULT:      -7.4      1.342      4.656
REMARK  Name = 
REMARK  11 active torsions:
REMARK  status: ('A' for Active; 'I' for Inactive)
REMARK    1  A    between atoms: C_1  and  C_2
REMARK    2  A    between atoms: C_2  and  C_3
REMARK    3  A    between atoms: C_3  and  N_4
REMARK    4  A    between atoms: C_5  and  C_7
REMARK    5  A    between atoms: C_10  and  C_11
REMARK    6  A    between atoms: C_11  and  S_12
REMARK    7  A    between atoms: S_12  and  C_15
REMARK    8  A    between atoms: C_21  and  C_22
REMARK    9  A    between atoms: N_24  and  C_25
REMARK   10  A    between atoms: C_25  and  C_26
REMARK   11  A    between atoms: C_26  and  C_27
REMARK                            x       y       z     vdW  Elec       q    Type
REMARK                         _______ _______ _______ _____ _____    ______ ____
ROOT
ATOM      1  C   UNL     1       5.094   4.210  16.439  0.00  0.00    +0.000 A 
ATOM      2  O   UNL     1       4.012   3.392  16.291  0.00  0.00    +0.000 OA
ATOM      3  N   UNL     1       3.454   3.111  17.511  0.00  0.00    +0.000 NA
ATOM      4  C   UNL     1       4.223   3.722  18.422  0.00  0.00    +0.000 A 
ATOM      5  C   UNL     1       5.269   4.481  17.788  0.00  0.00    +0.000 A 
ENDROOT
BRANCH   1   7
ATOM      6  N   UNL     1       6.015   3.610  14.325  0.00  0.00    +0.000 N 
ATOM      7  C   UNL     1       5.770   4.624  15.232  0.00  0.00    +0.000 C 
ATOM      8  O   UNL     1       6.122   5.782  15.019  0.00  0.00    +0.000 OA
ATOM      9  H   UNL     1       5.794   2.659  14.601  0.00  0.00    +0.000 HD
BRANCH   6  10
ATOM     10  C   UNL     1       6.740   3.824  13.090  0.00  0.00    +0.000 C 
BRANCH  10  12
ATOM     11  C   UNL     1       4.656   3.377  11.750  0.00  0.00    +0.000 C 
ATOM     12  C   UNL     1       6.123   3.030  11.944  0.00  0.00    +0.000 C 
ENDBRANCH  10  12
ENDBRANCH   6  10
ENDBRANCH   1   7
BRANCH   5  13
ATOM     13  C   UNL     1       6.236   5.344  18.449  0.00  0.00    +0.000 C 
ATOM     14  O   UNL     1       6.373   5.289  19.667  0.00  0.00    +0.000 OA
ATOM     15  N   UNL     1       6.978   6.210  17.669  0.00  0.00    +0.000 N 
ATOM     16  H   UNL     1       6.678   6.410  16.716  0.00  0.00    +0.000 HD
BRANCH  15  17
ATOM     17  C   UNL     1       7.930   7.116  18.281  0.00  0.00    +0.000 C 
BRANCH  17  18
ATOM     18  C   UNL     1       7.834   8.557  17.779  0.00  0.00    +0.000 C 
ATOM     19  C   UNL     1       8.720   9.523  18.553  0.00  0.00    +0.000 C 
ENDBRANCH  17  18
ENDBRANCH  15  17
ENDBRANCH   5  13
BRANCH   4  20
ATOM     20  C   UNL     1       3.892   3.526  19.872  0.00  0.00    +0.000 C 
BRANCH  20  21
ATOM     21  S   UNL     1       2.248   4.146  20.227  0.00  0.00    +0.000 S 
ATOM     22  O   UNL     1       1.293   3.552  19.311  0.00  0.00    +0.000 OA
ATOM     23  O   UNL     1       2.032   4.052  21.661  0.00  0.00    +0.000 OA
BRANCH  21  24
ATOM     24  C   UNL     1       2.246   5.893  19.814  0.00  0.00    +0.000 A 
ATOM     25  C   UNL     1       2.476   6.292  18.493  0.00  0.00    +0.000 A 
ATOM     26  C   UNL     1       2.306   7.636  18.137  0.00  0.00    +0.000 A 
ATOM     27  C   UNL     1       1.888   8.569  19.087  0.00  0.00    +0.000 A 
ATOM     28  C   UNL     1       1.654   8.166  20.402  0.00  0.00    +0.000 A 
ATOM     29  C   UNL     1       1.832   6.827  20.769  0.00  0.00    +0.000 A 
ENDBRANCH  21  24
ENDBRANCH  20  21
ENDBRANCH   4  20
TORSDOF 9
ENDMDL
MODEL 6
REMARK VINA RESULT:      -7.4      1.817      5.175
REMARK  Name = 
REMARK  11 active torsions:
REMARK  status: ('A' for Active; 'I' for Inactive)
REMARK    1  A    between atoms: C_1  and  C_2
REMARK    2  A    between atoms: C_2  and  C_3
REMARK    3  A    between atoms: C_3  and  N_4
REMARK    4  A    between atoms: C_5  and  C_7
REMARK    5  A    between atoms: C_10  and  C_11
REMARK    6  A    between atoms: C_11  and  S_12
REMARK    7  A    between atoms: S_12  and  C_15
REMARK    8  A    between atoms: C_21  and  C_22
REMARK    9  A    between atoms: N_24  and  C_25
REMARK   10  A    between atoms: C_25  and  C_26
REMARK   11  A    between atoms: C_26  and  C_27
REMARK                            x       y       z     vdW  Elec       q    Type
REMARK                         _______ _______ _______ _____ _____    ______ ____
ROOT
ATOM      1  C   UNL     1       6.074   4.500  15.929  0.00  0.00    +0.000 A 
ATOM      2  O   UNL     1       5.553   3.314  16.356  0.00  0.00    +0.000 OA
ATOM      3  N   UNL     1       5.017   3.451  17.611  0.00  0.00    +0.000 NA
ATOM      4  C   UNL     1       5.250   4.718  17.979  0.00  0.00    +0.000 A 
ATOM      5  C   UNL     1       5.890   5.454  16.919  0.00  0.00    +0.000 A 
ENDROOT
BRANCH   1   7
ATOM      6  N   UNL     1       6.055   3.659  13.699  0.00  0.00    +0.000 N 
ATOM      7  C   UNL     1       6.647   4.521  14.603  0.00  0.00    +0.000 C 
ATOM      8  O   UNL     1       7.599   5.233  14.291  0.00  0.00    +0.000 OA
ATOM      9  H   UNL     1       5.343   3.023  14.042  0.00  0.00    +0.000 HD
BRANCH   6  10
ATOM     10  C   UNL     1       6.537   3.496  12.344  0.00  0.00    +0.000 C 
BRANCH  10  12
ATOM     11  C   UNL     1       6.632   1.323  11.077  0.00  0.00    +0.000 C 
ATOM     12  C   UNL     1       5.736   2.434  11.598  0.00  0.00    +0.000 C 
ENDBRANCH  10  12
ENDBRANCH   6  10
ENDBRANCH   1   7
BRANCH   5  13
ATOM     13  C   UNL     1       6.212   6.872  16.921  0.00  0.00    +0.000 C 
ATOM     14  O   UNL     1       5.569   7.646  16.220  0.00  0.00    +0.000 OA
ATOM     15  N   UNL     1       7.248   7.305  17.728  0.00  0.00    +0.000 N 
ATOM     16  H   UNL     1       7.910   6.627  18.100  0.00  0.00    +0.000 HD
BRANCH  15  17
ATOM     17  C   UNL     1       7.632   8.703  17.740  0.00  0.00    +0.000 C 
BRANCH  17  18
ATOM     18  C   UNL     1       8.784   9.027  18.691  0.00  0.00    +0.000 C 
ATOM     19  C   UNL     1       9.153  10.503  18.707  0.00  0.00    +0.000 C 
ENDBRANCH  17  18
ENDBRANCH  15  17
ENDBRANCH   5  13
BRANCH   4  20
ATOM     20  C   UNL     1       4.835   5.141  19.357  0.00  0.00    +0.000 C 
BRANCH  20  21
ATOM     21  S   UNL     1       3.059   4.988  19.548  0.00  0.00    +0.000 S 
ATOM     22  O   UNL     1       2.520   4.170  18.479  0.00  0.00    +0.000 OA
ATOM     23  O   UNL     1       2.785   4.644  20.934  0.00  0.00    +0.000 OA
BRANCH  21  24
ATOM     24  C   UNL     1       2.359   6.617  19.269  0.00  0.00    +0.000 A 
ATOM     25  C   UNL     1       1.779   7.314  20.334  0.00  0.00    +0.000 A 
ATOM     26  C   UNL     1       1.389   8.647  20.159  0.00  0.00    +0.000 A 
ATOM     27  C   UNL     1       1.598   9.287  18.937  0.00  0.00    +0.000 A 
ATOM     28  C   UNL     1       2.183   8.591  17.878  0.00  0.00    +0.000 A 
ATOM     29  C   UNL     1       2.565   7.255  18.041  0.00  0.00    +0.000 A 
ENDBRANCH  21  24
ENDBRANCH  20  21
ENDBRANCH   4  20
TORSDOF 9
ENDMDL
MODEL 7
REMARK VINA RESULT:      -7.3      1.153      1.333
REMARK  Name = 
REMARK  11 active torsions:
REMARK  status: ('A' for Active; 'I' for Inactive)
REMARK    1  A    between atoms: C_1  and  C_2
REMARK    2  A    between atoms: C_2  and  C_3
REMARK    3  A    between atoms: C_3  and  N_4
REMARK    4  A    between atoms: C_5  and  C_7
REMARK    5  A    between atoms: C_10  and  C_11
REMARK    6  A    between atoms: C_11  and  S_12
REMARK    7  A    between atoms: S_12  and  C_15
REMARK    8  A    between atoms: C_21  and  C_22
REMARK    9  A    between atoms: N_24  and  C_25
REMARK   10  A    between atoms: C_25  and  C_26
REMARK   11  A    between atoms: C_26  and  C_27
REMARK                            x       y       z     vdW  Elec       q    Type
REMARK                         _______ _______ _______ _____ _____    ______ ____
ROOT
ATOM      1  C   UNL     1       6.400   5.559  18.101  0.00  0.00    +0.000 A 
ATOM      2  O   UNL     1       6.325   5.625  19.461  0.00  0.00    +0.000 OA
ATOM      3  N   UNL     1       5.528   4.620  19.946  0.00  0.00    +0.000 NA
ATOM      4  C   UNL     1       5.071   3.958  18.874  0.00  0.00    +0.000 A 
ATOM      5  C   UNL     1       5.633   4.491  17.661  0.00  0.00    +0.000 A 
ENDROOT
BRANCH   1   7
ATOM      6  N   UNL     1       7.444   7.700  18.161  0.00  0.00    +0.000 N 
ATOM      7  C   UNL     1       7.237   6.537  17.445  0.00  0.00    +0.000 C 
ATOM      8  O   UNL     1       7.720   6.370  16.327  0.00  0.00    +0.000 OA
ATOM      9  H   UNL     1       6.935   7.823  19.031  0.00  0.00    +0.000 HD
BRANCH   6  10
ATOM     10  C   UNL     1       8.200   8.818  17.636  0.00  0.00    +0.000 C 
BRANCH  10  12
ATOM     11  C   UNL     1       9.319  10.973  18.299  0.00  0.00    +0.000 C 
ATOM     12  C   UNL     1       8.896   9.587  18.754  0.00  0.00    +0.000 C 
ENDBRANCH  10  12
ENDBRANCH   6  10
ENDBRANCH   1   7
BRANCH   5  13
ATOM     13  C   UNL     1       5.440   3.971  16.316  0.00  0.00    +0.000 C 
ATOM     14  O   UNL     1       5.352   2.761  16.135  0.00  0.00    +0.000 OA
ATOM     15  N   UNL     1       5.360   4.873  15.272  0.00  0.00    +0.000 N 
ATOM     16  H   UNL     1       5.677   5.831  15.413  0.00  0.00    +0.000 HD
BRANCH  15  17
ATOM     17  C   UNL     1       5.203   4.406  13.909  0.00  0.00    +0.000 C 
BRANCH  17  18
ATOM     18  C   UNL     1       6.517   4.044  13.217  0.00  0.00    +0.000 C 
ATOM     19  C   UNL     1       6.335   3.101  12.036  0.00  0.00    +0.000 C 
ENDBRANCH  17  18
ENDBRANCH  15  17
ENDBRANCH   5  13
BRANCH   4  20
ATOM     20  C   UNL     1       4.101   2.836  19.099  0.00  0.00    +0.000 C 
BRANCH  20  21
ATOM     21  S   UNL     1       2.427   3.379  18.756  0.00  0.00    +0.000 S 
ATOM     22  O   UNL     1       2.166   3.289  17.332  0.00  0.00    +0.000 OA
ATOM     23  O   UNL     1       1.540   2.720  19.700  0.00  0.00    +0.000 OA
BRANCH  21  24
ATOM     24  C   UNL     1       2.361   5.136  19.119  0.00  0.00    +0.000 A 
ATOM     25  C   UNL     1       2.516   6.063  18.083  0.00  0.00    +0.000 A 
ATOM     26  C   UNL     1       2.294   7.423  18.333  0.00  0.00    +0.000 A 
ATOM     27  C   UNL     1       1.899   7.850  19.600  0.00  0.00    +0.000 A 
ATOM     28  C   UNL     1       1.739   6.922  20.630  0.00  0.00    +0.000 A 
ATOM     29  C   UNL     1       1.969   5.562  20.392  0.00  0.00    +0.000 A 
ENDBRANCH  21  24
ENDBRANCH  20  21
ENDBRANCH   4  20
TORSDOF 9
ENDMDL
MODEL 8
REMARK VINA RESULT:      -7.3      0.595      1.197
REMARK  Name = 
REMARK  11 active torsions:
REMARK  status: ('A' for Active; 'I' for Inactive)
REMARK    1  A    between atoms: C_1  and  C_2
REMARK    2  A    between atoms: C_2  and  C_3
REMARK    3  A    between atoms: C_3  and  N_4
REMARK    4  A    between atoms: C_5  and  C_7
REMARK    5  A    between atoms: C_10  and  C_11
REMARK    6  A    between atoms: C_11  and  S_12
REMARK    7  A    between atoms: S_12  and  C_15
REMARK    8  A    between atoms: C_21  and  C_22
REMARK    9  A    between atoms: N_24  and  C_25
REMARK   10  A    between atoms: C_25  and  C_26
REMARK   11  A    between atoms: C_26  and  C_27
REMARK                            x       y       z     vdW  Elec       q    Type
REMARK                         _______ _______ _______ _____ _____    ______ ____
ROOT
ATOM      1  C   UNL     1       6.231   4.726  18.751  0.00  0.00    +0.000 A 
ATOM      2  O   UNL     1       5.849   3.990  19.833  0.00  0.00    +0.000 OA
ATOM      3  N   UNL     1       4.771   3.203  19.521  0.00  0.00    +0.000 NA
ATOM      4  C   UNL     1       4.456   3.490  18.251  0.00  0.00    +0.000 A 
ATOM      5  C   UNL     1       5.388   4.432  17.689  0.00  0.00    +0.000 A 
ENDROOT
BRANCH   1   7
ATOM      6  N   UNL     1       7.279   6.820  18.311  0.00  0.00    +0.000 N 
ATOM      7  C   UNL     1       7.382   5.583  18.917  0.00  0.00    +0.000 C 
ATOM      8  O   UNL     1       8.391   5.245  19.532  0.00  0.00    +0.000 OA
ATOM      9  H   UNL     1       6.467   7.002  17.730  0.00  0.00    +0.000 HD
BRANCH   6  10
ATOM     10  C   UNL     1       8.359   7.785  18.314  0.00  0.00    +0.000 C 
BRANCH  10  12
ATOM     11  C   UNL     1       8.804  10.262  18.248  0.00  0.00    +0.000 C 
ATOM     12  C   UNL     1       7.891   9.138  17.788  0.00  0.00    +0.000 C 
ENDBRANCH  10  12
ENDBRANCH   6  10
ENDBRANCH   1   7
BRANCH   5  13
ATOM     13  C   UNL     1       5.419   4.905  16.313  0.00  0.00    +0.000 C 
ATOM     14  O   UNL     1       5.272   6.099  16.074  0.00  0.00    +0.000 OA
ATOM     15  N   UNL     1       5.616   3.977  15.309  0.00  0.00    +0.000 N 
ATOM     16  H   UNL     1       5.489   2.987  15.509  0.00  0.00    +0.000 HD
BRANCH  15  17
ATOM     17  C   UNL     1       5.621   4.391  13.919  0.00  0.00    +0.000 C 
BRANCH  17  18
ATOM     18  C   UNL     1       6.860   3.952  13.140  0.00  0.00    +0.000 C 
ATOM     19  C   UNL     1       7.677   5.119  12.603  0.00  0.00    +0.000 C 
ENDBRANCH  17  18
ENDBRANCH  15  17
ENDBRANCH   5  13
BRANCH   4  20
ATOM     20  C   UNL     1       3.252   2.824  17.654  0.00  0.00    +0.000 C 
BRANCH  20  21
ATOM     21  S   UNL     1       1.804   3.129  18.667  0.00  0.00    +0.000 S 
ATOM     22  O   UNL     1       0.604   2.928  17.878  0.00  0.00    +0.000 OA
ATOM     23  O   UNL     1       1.975   2.415  19.921  0.00  0.00    +0.000 OA
BRANCH  21  24
ATOM     24  C   UNL     1       1.799   4.880  19.062  0.00  0.00    +0.000 A 
ATOM     25  C   UNL     1       1.622   5.291  20.387  0.00  0.00    +0.000 A 
ATOM     26  C   UNL     1       1.788   6.640  20.721  0.00  0.00    +0.000 A 
ATOM     27  C   UNL     1       2.152   7.568  19.745  0.00  0.00    +0.000 A 
ATOM     28  C   UNL     1       2.335   7.154  18.425  0.00  0.00    +0.000 A 
ATOM     29  C   UNL     1       2.159   5.809  18.080  0.00  0.00    +0.000 A 
ENDBRANCH  21  24
ENDBRANCH  20  21
ENDBRANCH   4  20
TORSDOF 9
ENDMDL
MODEL 9
REMARK VINA RESULT:      -7.2      1.694      4.839
REMARK  Name = 
REMARK  11 active torsions:
REMARK  status: ('A' for Active; 'I' for Inactive)
REMARK    1  A    between atoms: C_1  and  C_2
REMARK    2  A    between atoms: C_2  and  C_3
REMARK    3  A    between atoms: C_3  and  N_4
REMARK    4  A    between atoms: C_5  and  C_7
REMARK    5  A    between atoms: C_10  and  C_11
REMARK    6  A    between atoms: C_11  and  S_12
REMARK    7  A    between atoms: S_12  and  C_15
REMARK    8  A    between atoms: C_21  and  C_22
REMARK    9  A    between atoms: N_24  and  C_25
REMARK   10  A    between atoms: C_25  and  C_26
REMARK   11  A    between atoms: C_26  and  C_27
REMARK                            x       y       z     vdW  Elec       q    Type
REMARK                         _______ _______ _______ _____ _____    ______ ____
ROOT
ATOM      1  C   UNL     1       5.793   4.389  16.184  0.00  0.00    +0.000 A 
ATOM      2  O   UNL     1       4.931   3.344  16.346  0.00  0.00    +0.000 OA
ATOM      3  N   UNL     1       4.334   3.403  17.579  0.00  0.00    +0.000 NA
ATOM      4  C   UNL     1       4.866   4.464  18.200  0.00  0.00    +0.000 A 
ATOM      5  C   UNL     1       5.780   5.163  17.335  0.00  0.00    +0.000 A 
ENDROOT
BRANCH   1   7
ATOM      6  N   UNL     1       5.932   3.713  13.903  0.00  0.00    +0.000 N 
ATOM      7  C   UNL     1       6.475   4.482  14.914  0.00  0.00    +0.000 C 
ATOM      8  O   UNL     1       7.474   5.176  14.734  0.00  0.00    +0.000 OA
ATOM      9  H   UNL     1       5.172   3.083  14.139  0.00  0.00    +0.000 HD
BRANCH   6  10
ATOM     10  C   UNL     1       6.519   3.629  12.583  0.00  0.00    +0.000 C 
BRANCH  10  12
ATOM     11  C   UNL     1       4.341   3.198  11.395  0.00  0.00    +0.000 C 
ATOM     12  C   UNL     1       5.735   2.671  11.691  0.00  0.00    +0.000 C 
ENDBRANCH  10  12
ENDBRANCH   6  10
ENDBRANCH   1   7
BRANCH   5  13
ATOM     13  C   UNL     1       6.473   6.407  17.632  0.00  0.00    +0.000 C 
ATOM     14  O   UNL     1       6.029   7.470  17.210  0.00  0.00    +0.000 OA
ATOM     15  N   UNL     1       7.626   6.347  18.391  0.00  0.00    +0.000 N 
ATOM     16  H   UNL     1       8.099   5.453  18.515  0.00  0.00    +0.000 HD
BRANCH  15  17
ATOM     17  C   UNL     1       8.374   7.554  18.686  0.00  0.00    +0.000 C 
BRANCH  17  18
ATOM     18  C   UNL     1       8.058   8.728  17.760  0.00  0.00    +0.000 C 
ATOM     19  C   UNL     1       8.731  10.025  18.183  0.00  0.00    +0.000 C 
ENDBRANCH  17  18
ENDBRANCH  15  17
ENDBRANCH   5  13
BRANCH   4  20
ATOM     20  C   UNL     1       4.450   4.735  19.615  0.00  0.00    +0.000 C 
BRANCH  20  21
ATOM     21  S   UNL     1       2.679   4.995  19.707  0.00  0.00    +0.000 S 
ATOM     22  O   UNL     1       2.024   4.291  18.622  0.00  0.00    +0.000 OA
ATOM     23  O   UNL     1       2.262   4.761  21.080  0.00  0.00    +0.000 OA
BRANCH  21  24
ATOM     24  C   UNL     1       2.386   6.733  19.364  0.00  0.00    +0.000 A 
ATOM     25  C   UNL     1       2.599   7.228  18.073  0.00  0.00    +0.000 A 
ATOM     26  C   UNL     1       2.210   8.537  17.762  0.00  0.00    +0.000 A 
ATOM     27  C   UNL     1       1.592   9.336  18.724  0.00  0.00    +0.000 A 
ATOM     28  C   UNL     1       1.375   8.836  20.009  0.00  0.00    +0.000 A 
ATOM     29  C   UNL     1       1.771   7.533  20.332  0.00  0.00    +0.000 A 
ENDBRANCH  21  24
ENDBRANCH  20  21
ENDBRANCH   4  20
TORSDOF 9
ENDMDL
