MODEL 1
REMARK VINA RESULT:      -7.8      0.000      0.000
REMARK  Name = 
REMARK  11 active torsions:
REMARK  status: ('A' for Active; 'I' for Inactive)
REMARK    1  A    between atoms: C_1  and  N_2
REMARK    2  A    between atoms: N_2  and  C_3
REMARK    3  A    between atoms: N_2  and  S_4
REMARK    4  A    between atoms: S_4  and  C_7
REMARK    5  A    between atoms: C_11  and  N_12
REMARK    6  A    between atoms: C_13  and  C_15
REMARK    7  A    between atoms: C_15  and  S_16
REMARK    8  A    between atoms: S_16  and  C_17
REMARK    9  A    between atoms: C_22  and  C_23
REMARK   10  A    between atoms: C_28  and  C_29
REMARK   11  A    between atoms: C_28  and  C_30
REMARK                            x       y       z     vdW  Elec       q    Type
REMARK                         _______ _______ _______ _____ _____    ______ ____
ROOT
ATOM      1  C   UNL     1      -0.552  10.855  22.646  0.00  0.00    +0.000 C 
ENDROOT
BRANCH   1   3
ATOM      2  N   UNL     1       0.300   9.292  20.979  0.00  0.00    +0.000 N 
ATOM      3  C   UNL     1       0.478  10.533  21.576  0.00  0.00    +0.000 C 
ATOM      4  O   UNL     1       1.368  11.333  21.302  0.00  0.00    +0.000 OA
ATOM      5  H   UNL     1      -0.568   8.810  21.185  0.00  0.00    +0.000 HD
BRANCH   2  10
ATOM      6  C   UNL     1       2.543   6.861  19.323  0.00  0.00    +0.000 A 
ATOM      7  C   UNL     1       2.784   7.453  18.085  0.00  0.00    +0.000 A 
ATOM      8  C   UNL     1       2.230   8.699  17.819  0.00  0.00    +0.000 A 
ATOM      9  C   UNL     1       1.426   9.327  18.773  0.00  0.00    +0.000 A 
ATOM     10  C   UNL     1       1.132   8.713  19.995  0.00  0.00    +0.000 A 
ATOM     11  C   UNL     1       1.699   7.466  20.266  0.00  0.00    +0.000 A 
BRANCH   6  12
ATOM     12  S   UNL     1       3.319   5.304  19.710  0.00  0.00    +0.000 S 
ATOM     13  O   UNL     1       2.637   4.742  20.852  0.00  0.00    +0.000 OA
ATOM     14  O   UNL     1       4.749   5.539  19.726  0.00  0.00    +0.000 OA
BRANCH  12  16
ATOM     15  C   UNL     1       1.543   4.357  17.897  0.00  0.00    +0.000 C 
ATOM     16  N   UNL     1       2.950   4.360  18.336  0.00  0.00    +0.000 NA
ATOM     17  C   UNL     1       3.906   4.429  17.216  0.00  0.00    +0.000 C 
ENDBRANCH  12  16
ENDBRANCH   6  12
ENDBRANCH   2  10
ENDBRANCH   1   3
BRANCH   1  18
ATOM     18  S   UNL     1      -1.044  12.603  22.556  0.00  0.00    +0.000 S 
BRANCH  18  19
ATOM     19  C   UNL     1      -2.327  12.543  21.310  0.00  0.00    +0.000 A 
ATOM     20  N   UNL     1      -1.911  12.248  20.044  0.00  0.00    +0.000 NA
ATOM     21  C   UNL     1      -2.859  12.029  19.091  0.00  0.00    +0.000 A 
ATOM     22  C   UNL     1      -4.219  12.141  19.354  0.00  0.00    +0.000 A 
ATOM     23  C   UNL     1      -4.631  12.468  20.646  0.00  0.00    +0.000 A 
ATOM     24  C   UNL     1      -3.676  12.670  21.645  0.00  0.00    +0.000 A 
ATOM     25  C   UNL     1      -5.223  11.877  18.301  0.00  0.00    +0.000 C 
ATOM     26  O   UNL     1      -6.417  11.849  18.582  0.00  0.00    +0.000 OA
ATOM     27  C   UNL     1      -4.721  11.693  16.889  0.00  0.00    +0.000 C 
ATOM     28  C   UNL     1      -3.401  10.906  16.857  0.00  0.00    +0.000 C 
ATOM     29  C   UNL     1      -3.616   9.463  17.358  0.00  0.00    +0.000 C 
ATOM     30  C   UNL     1      -2.901  10.830  15.402  0.00  0.00    +0.000 C 
ATOM     31  C   UNL     1      -2.354  11.646  17.721  0.00  0.00    +0.000 C 
BRANCH  24  32
ATOM     32  C   UNL     1      -4.123  12.979  22.970  0.00  0.00    +0.000 C 
ATOM     33  N   UNL     1      -4.467  13.184  24.060  0.00  0.00    +0.000 NA
ENDBRANCH  24  32
ENDBRANCH  18  19
ENDBRANCH   1  18
TORSDOF 7
ENDMDL
MODEL 2
REMARK VINA RESULT:      -7.8      0.914      1.128
REMARK  Name = 
REMARK  11 active torsions:
REMARK  status: ('A' for Active; 'I' for Inactive)
REMARK    1  A    between atoms: C_1  and  N_2
REMARK    2  A    between atoms: N_2  and  C_3
REMARK    3  A    between atoms: N_2  and  S_4
REMARK    4  A    between atoms: S_4  and  C_7
REMARK    5  A    between atoms: C_11  and  N_12
REMARK    6  A    between atoms: C_13  and  C_15
REMARK    7  A    between atoms: C_15  and  S_16
REMARK    8  A    between atoms: S_16  and  C_17
REMARK    9  A    between atoms: C_22  and  C_23
REMARK   10  A    between atoms: C_28  and  C_29
REMARK   11  A    between atoms: C_28  and  C_30
REMARK                            x       y       z     vdW  Elec       q    Type
REMARK                         _______ _______ _______ _____ _____    ______ ____
ROOT
ATOM      1  C   UNL     1      -0.643  10.757  22.779  0.00  0.00    +0.000 C 
ENDROOT
BRANCH   1   3
ATOM      2  N   UNL     1       0.161   9.491  20.855  0.00  0.00    +0.000 N 
ATOM      3  C   UNL     1       0.398  10.577  21.687  0.00  0.00    +0.000 C 
ATOM      4  O   UNL     1       1.348  11.351  21.593  0.00  0.00    +0.000 OA
ATOM      5  H   UNL     1      -0.743   9.040  20.945  0.00  0.00    +0.000 HD
BRANCH   2  10
ATOM      6  C   UNL     1       2.349   7.298  18.834  0.00  0.00    +0.000 A 
ATOM      7  C   UNL     1       2.621   8.080  17.712  0.00  0.00    +0.000 A 
ATOM      8  C   UNL     1       2.106   9.369  17.652  0.00  0.00    +0.000 A 
ATOM      9  C   UNL     1       1.311   9.855  18.692  0.00  0.00    +0.000 A 
ATOM     10  C   UNL     1       0.986   9.057  19.794  0.00  0.00    +0.000 A 
ATOM     11  C   UNL     1       1.513   7.766  19.859  0.00  0.00    +0.000 A 
BRANCH   6  12
ATOM     12  S   UNL     1       3.076   5.676  18.962  0.00  0.00    +0.000 S 
ATOM     13  O   UNL     1       4.275   5.791  19.758  0.00  0.00    +0.000 OA
ATOM     14  O   UNL     1       3.111   5.123  17.623  0.00  0.00    +0.000 OA
BRANCH  12  16
ATOM     15  C   UNL     1       1.179   3.752  19.151  0.00  0.00    +0.000 C 
ATOM     16  N   UNL     1       1.904   4.821  19.862  0.00  0.00    +0.000 NA
ATOM     17  C   UNL     1       2.276   4.451  21.239  0.00  0.00    +0.000 C 
ENDBRANCH  12  16
ENDBRANCH   6  12
ENDBRANCH   2  10
ENDBRANCH   1   3
BRANCH   1  18
ATOM     18  S   UNL     1      -1.222  12.480  22.835  0.00  0.00    +0.000 S 
BRANCH  18  19
ATOM     19  C   UNL     1      -2.425  12.489  21.511  0.00  0.00    +0.000 A 
ATOM     20  N   UNL     1      -1.949  12.167  20.274  0.00  0.00    +0.000 NA
ATOM     21  C   UNL     1      -2.846  12.000  19.262  0.00  0.00    +0.000 A 
ATOM     22  C   UNL     1      -4.212  12.191  19.440  0.00  0.00    +0.000 A 
ATOM     23  C   UNL     1      -4.684  12.545  20.704  0.00  0.00    +0.000 A 
ATOM     24  C   UNL     1      -3.784  12.695  21.761  0.00  0.00    +0.000 A 
ATOM     25  C   UNL     1      -5.161  11.981  18.326  0.00  0.00    +0.000 C 
ATOM     26  O   UNL     1      -6.370  12.023  18.531  0.00  0.00    +0.000 OA
ATOM     27  C   UNL     1      -4.583  11.764  16.948  0.00  0.00    +0.000 C 
ATOM     28  C   UNL     1      -3.311  10.903  16.998  0.00  0.00    +0.000 C 
ATOM     29  C   UNL     1      -3.640   9.475  17.484  0.00  0.00    +0.000 C 
ATOM     30  C   UNL     1      -2.726  10.793  15.578  0.00  0.00    +0.000 C 
ATOM     31  C   UNL     1      -2.279  11.584  17.927  0.00  0.00    +0.000 C 
BRANCH  24  32
ATOM     32  C   UNL     1      -4.294  13.033  23.055  0.00  0.00    +0.000 C 
ATOM     33  N   UNL     1      -4.702  13.259  24.119  0.00  0.00    +0.000 NA
ENDBRANCH  24  32
ENDBRANCH  18  19
ENDBRANCH   1  18
TORSDOF 7
ENDMDL
MODEL 3
REMARK VINA RESULT:      -7.7      2.989      9.436
REMARK  Name = 
REMARK  11 active torsions:
REMARK  status: ('A' for Active; 'I' for Inactive)
REMARK    1  A    between atoms: C_1  and  N_2
REMARK    2  A    between atoms: N_2  and  C_3
REMARK    3  A    between atoms: N_2  and  S_4
REMARK    4  A    between atoms: S_4  and  C_7
REMARK    5  A    between atoms: C_11  and  N_12
REMARK    6  A    between atoms: C_13  and  C_15
REMARK    7  A    between atoms: C_15  and  S_16
REMARK    8  A    between atoms: S_16  and  C_17
REMARK    9  A    between atoms: C_22  and  C_23
REMARK   10  A    between atoms: C_28  and  C_29
REMARK   11  A    between atoms: C_28  and  C_30
REMARK                            x       y       z     vdW  Elec       q    Type
REMARK                         _______ _______ _______ _____ _____    ______ ____
ROOT
ATOM      1  C   UNL     1       2.028   3.937  21.911  0.00  0.00    +0.000 C 
ENDROOT
BRANCH   1   3
ATOM      2  N   UNL     1       2.313   6.095  20.813  0.00  0.00    +0.000 N 
ATOM      3  C   UNL     1       1.515   4.964  20.916  0.00  0.00    +0.000 C 
ATOM      4  O   UNL     1       0.479   4.763  20.286  0.00  0.00    +0.000 OA
ATOM      5  H   UNL     1       3.220   6.054  21.266  0.00  0.00    +0.000 HD
BRANCH   2  10
ATOM      6  C   UNL     1       1.154   9.472  19.843  0.00  0.00    +0.000 A 
ATOM      7  C   UNL     1       1.522   9.553  18.501  0.00  0.00    +0.000 A 
ATOM      8  C   UNL     1       2.121   8.452  17.902  0.00  0.00    +0.000 A 
ATOM      9  C   UNL     1       2.369   7.297  18.647  0.00  0.00    +0.000 A 
ATOM     10  C   UNL     1       2.055   7.228  20.009  0.00  0.00    +0.000 A 
ATOM     11  C   UNL     1       1.442   8.331  20.607  0.00  0.00    +0.000 A 
BRANCH   6  12
ATOM     12  S   UNL     1       0.305  10.845  20.598  0.00  0.00    +0.000 S 
ATOM     13  O   UNL     1       1.303  11.721  21.165  0.00  0.00    +0.000 OA
ATOM     14  O   UNL     1      -0.758  10.288  21.410  0.00  0.00    +0.000 OA
BRANCH  12  16
ATOM     15  C   UNL     1      -1.857  11.450  19.082  0.00  0.00    +0.000 C 
ATOM     16  N   UNL     1      -0.402  11.623  19.253  0.00  0.00    +0.000 NA
ATOM     17  C   UNL     1       0.054  12.996  18.974  0.00  0.00    +0.000 C 
ENDBRANCH  12  16
ENDBRANCH   6  12
ENDBRANCH   2  10
ENDBRANCH   1   3
BRANCH   1  18
ATOM     18  S   UNL     1       2.914   2.600  21.053  0.00  0.00    +0.000 S 
BRANCH  18  19
ATOM     19  C   UNL     1       3.446   3.433  19.561  0.00  0.00    +0.000 A 
ATOM     20  N   UNL     1       4.471   4.321  19.711  0.00  0.00    +0.000 NA
ATOM     21  C   UNL     1       5.023   4.860  18.588  0.00  0.00    +0.000 A 
ATOM     22  C   UNL     1       4.548   4.573  17.313  0.00  0.00    +0.000 A 
ATOM     23  C   UNL     1       3.483   3.684  17.175  0.00  0.00    +0.000 A 
ATOM     24  C   UNL     1       2.920   3.099  18.312  0.00  0.00    +0.000 A 
ATOM     25  C   UNL     1       5.183   5.160  16.114  0.00  0.00    +0.000 C 
ATOM     26  O   UNL     1       4.840   4.795  14.994  0.00  0.00    +0.000 OA
ATOM     27  C   UNL     1       6.217   6.239  16.329  0.00  0.00    +0.000 C 
ATOM     28  C   UNL     1       7.098   5.941  17.553  0.00  0.00    +0.000 C 
ATOM     29  C   UNL     1       7.942   4.670  17.319  0.00  0.00    +0.000 C 
ATOM     30  C   UNL     1       8.070   7.117  17.768  0.00  0.00    +0.000 C 
ATOM     31  C   UNL     1       6.194   5.789  18.798  0.00  0.00    +0.000 C 
BRANCH  24  32
ATOM     32  C   UNL     1       1.844   2.168  18.144  0.00  0.00    +0.000 C 
ATOM     33  N   UNL     1       0.960   1.421  18.057  0.00  0.00    +0.000 NA
ENDBRANCH  24  32
ENDBRANCH  18  19
ENDBRANCH   1  18
TORSDOF 7
ENDMDL
MODEL 4
REMARK VINA RESULT:      -7.7      2.885      9.374
REMARK  Name = 
REMARK  11 active torsions:
REMARK  status: ('A' for Active; 'I' for Inactive)
REMARK    1  A    between atoms: C_1  and  N_2
REMARK    2  A    between atoms: N_2  and  C_3
REMARK    3  A    between atoms: N_2  and  S_4
REMARK    4  A    between atoms: S_4  and  C_7
REMARK    5  A    between atoms: C_11  and  N_12
REMARK    6  A    between atoms: C_13  and  C_15
REMARK    7  A    between atoms: C_15  and  S_16
REMARK    8  A    between atoms: S_16  and  C_17
REMARK    9  A    between atoms: C_22  and  C_23
REMARK   10  A    between atoms: C_28  and  C_29
REMARK   11  A    between atoms: C_28  and  C_30
REMARK                            x       y       z     vdW  Elec       q    Type
REMARK                         _______ _______ _______ _____ _____    ______ ____
ROOT
ATOM      1  C   UNL     1       1.835   7.253  21.010  0.00  0.00    +0.000 C 
ENDROOT
BRANCH   1   3
ATOM      2  N   UNL     1       1.141   9.120  19.604  0.00  0.00    +0.000 N 
ATOM      3  C   UNL     1       0.831   8.355  20.720  0.00  0.00    +0.000 C 
ATOM      4  O   UNL     1      -0.152   8.513  21.440  0.00  0.00    +0.000 OA
ATOM      5  H   UNL     1       1.888   8.775  19.010  0.00  0.00    +0.000 HD
BRANCH   2  10
ATOM      6  C   UNL     1      -1.536  11.085  17.973  0.00  0.00    +0.000 A 
ATOM      7  C   UNL     1      -1.122  12.401  18.174  0.00  0.00    +0.000 A 
ATOM      8  C   UNL     1       0.087  12.633  18.818  0.00  0.00    +0.000 A 
ATOM      9  C   UNL     1       0.854  11.559  19.276  0.00  0.00    +0.000 A 
ATOM     10  C   UNL     1       0.417  10.238  19.131  0.00  0.00    +0.000 A 
ATOM     11  C   UNL     1      -0.792  10.005  18.473  0.00  0.00    +0.000 A 
BRANCH   6  12
ATOM     12  S   UNL     1      -3.040  10.773  17.071  0.00  0.00    +0.000 S 
ATOM     13  O   UNL     1      -3.500   9.450  17.422  0.00  0.00    +0.000 OA
ATOM     14  O   UNL     1      -2.789  11.142  15.692  0.00  0.00    +0.000 OA
BRANCH  12  16
ATOM     15  C   UNL     1      -5.389  12.122  17.029  0.00  0.00    +0.000 C 
ATOM     16  N   UNL     1      -4.114  11.919  17.742  0.00  0.00    +0.000 NA
ATOM     17  C   UNL     1      -4.267  11.895  19.207  0.00  0.00    +0.000 C 
ENDBRANCH  12  16
ENDBRANCH   6  12
ENDBRANCH   2  10
ENDBRANCH   1   3
BRANCH   1  18
ATOM     18  S   UNL     1       1.235   5.656  20.378  0.00  0.00    +0.000 S 
BRANCH  18  19
ATOM     19  C   UNL     1       2.407   5.336  19.065  0.00  0.00    +0.000 A 
ATOM     20  N   UNL     1       3.409   6.252  18.927  0.00  0.00    +0.000 NA
ATOM     21  C   UNL     1       4.418   5.975  18.054  0.00  0.00    +0.000 A 
ATOM     22  C   UNL     1       4.433   4.824  17.274  0.00  0.00    +0.000 A 
ATOM     23  C   UNL     1       3.390   3.907  17.406  0.00  0.00    +0.000 A 
ATOM     24  C   UNL     1       2.360   4.159  18.315  0.00  0.00    +0.000 A 
ATOM     25  C   UNL     1       5.553   4.544  16.351  0.00  0.00    +0.000 C 
ATOM     26  O   UNL     1       5.618   3.465  15.772  0.00  0.00    +0.000 OA
ATOM     27  C   UNL     1       6.564   5.643  16.127  0.00  0.00    +0.000 C 
ATOM     28  C   UNL     1       6.859   6.413  17.425  0.00  0.00    +0.000 C 
ATOM     29  C   UNL     1       7.543   5.494  18.458  0.00  0.00    +0.000 C 
ATOM     30  C   UNL     1       7.826   7.570  17.110  0.00  0.00    +0.000 C 
ATOM     31  C   UNL     1       5.535   6.987  17.980  0.00  0.00    +0.000 C 
BRANCH  24  32
ATOM     32  C   UNL     1       1.313   3.191  18.452  0.00  0.00    +0.000 C 
ATOM     33  N   UNL     1       0.499   2.370  18.556  0.00  0.00    +0.000 NA
ENDBRANCH  24  32
ENDBRANCH  18  19
ENDBRANCH   1  18
TORSDOF 7
ENDMDL
MODEL 5
REMARK VINA RESULT:      -7.7      7.778     11.017
REMARK  Name = 
REMARK  11 active torsions:
REMARK  status: ('A' for Active; 'I' for Inactive)
REMARK    1  A    between atoms: C_1  and  N_2
REMARK    2  A    between atoms: N_2  and  C_3
REMARK    3  A    between atoms: N_2  and  S_4
REMARK    4  A    between atoms: S_4  and  C_7
REMARK    5  A    between atoms: C_11  and  N_12
REMARK    6  A    between atoms: C_13  and  C_15
REMARK    7  A    between atoms: C_15  and  S_16
REMARK    8  A    between atoms: S_16  and  C_17
REMARK    9  A    between atoms: C_22  and  C_23
REMARK   10  A    between atoms: C_28  and  C_29
REMARK   11  A    between atoms: C_28  and  C_30
REMARK                            x       y       z     vdW  Elec       q    Type
REMARK                         _______ _______ _______ _____ _____    ______ ____
ROOT
ATOM      1  C   UNL     1       7.847   7.784  18.004  0.00  0.00    +0.000 C 
ENDROOT
BRANCH   1   3
ATOM      2  N   UNL     1       9.138   9.397  19.300  0.00  0.00    +0.000 N 
ATOM      3  C   UNL     1       8.307   9.218  18.201  0.00  0.00    +0.000 C 
ATOM      4  O   UNL     1       7.948  10.104  17.430  0.00  0.00    +0.000 OA
ATOM      5  H   UNL     1       9.484   8.555  19.748  0.00  0.00    +0.000 HD
BRANCH   2  10
ATOM      6  C   UNL     1       9.576  12.450  21.342  0.00  0.00    +0.000 A 
ATOM      7  C   UNL     1      10.682  13.061  20.754  0.00  0.00    +0.000 A 
ATOM      8  C   UNL     1      11.257  12.472  19.635  0.00  0.00    +0.000 A 
ATOM      9  C   UNL     1      10.745  11.274  19.131  0.00  0.00    +0.000 A 
ATOM     10  C   UNL     1       9.672  10.624  19.751  0.00  0.00    +0.000 A 
ATOM     11  C   UNL     1       9.087  11.223  20.868  0.00  0.00    +0.000 A 
BRANCH   6  12
ATOM     12  S   UNL     1       8.775  13.241  22.723  0.00  0.00    +0.000 S 
ATOM     13  O   UNL     1       9.386  14.537  22.904  0.00  0.00    +0.000 OA
ATOM     14  O   UNL     1       8.734  12.271  23.799  0.00  0.00    +0.000 OA
BRANCH  12  16
ATOM     15  C   UNL     1       6.092  13.094  23.064  0.00  0.00    +0.000 C 
ATOM     16  N   UNL     1       7.184  13.465  22.146  0.00  0.00    +0.000 NA
ATOM     17  C   UNL     1       6.923  14.714  21.409  0.00  0.00    +0.000 C 
ENDBRANCH  12  16
ENDBRANCH   6  12
ENDBRANCH   2  10
ENDBRANCH   1   3
BRANCH   1  18
ATOM     18  S   UNL     1       6.268   7.736  17.102  0.00  0.00    +0.000 S 
BRANCH  18  19
ATOM     19  C   UNL     1       5.680   6.096  17.511  0.00  0.00    +0.000 A 
ATOM     20  N   UNL     1       4.864   6.013  18.602  0.00  0.00    +0.000 NA
ATOM     21  C   UNL     1       4.258   4.821  18.863  0.00  0.00    +0.000 A 
ATOM     22  C   UNL     1       4.480   3.688  18.087  0.00  0.00    +0.000 A 
ATOM     23  C   UNL     1       5.336   3.779  16.990  0.00  0.00    +0.000 A 
ATOM     24  C   UNL     1       5.946   4.999  16.689  0.00  0.00    +0.000 A 
ATOM     25  C   UNL     1       3.791   2.415  18.386  0.00  0.00    +0.000 C 
ATOM     26  O   UNL     1       3.893   1.465  17.617  0.00  0.00    +0.000 OA
ATOM     27  C   UNL     1       3.011   2.329  19.676  0.00  0.00    +0.000 C 
ATOM     28  C   UNL     1       2.281   3.647  19.984  0.00  0.00    +0.000 C 
ATOM     29  C   UNL     1       1.198   3.929  18.922  0.00  0.00    +0.000 C 
ATOM     30  C   UNL     1       1.580   3.521  21.350  0.00  0.00    +0.000 C 
ATOM     31  C   UNL     1       3.317   4.792  20.042  0.00  0.00    +0.000 C 
BRANCH  24  32
ATOM     32  C   UNL     1       6.800   5.076  15.543  0.00  0.00    +0.000 C 
ATOM     33  N   UNL     1       7.463   5.103  14.590  0.00  0.00    +0.000 NA
ENDBRANCH  24  32
ENDBRANCH  18  19
ENDBRANCH   1  18
TORSDOF 7
ENDMDL
MODEL 6
REMARK VINA RESULT:      -7.6      3.202      4.187
REMARK  Name = 
REMARK  11 active torsions:
REMARK  status: ('A' for Active; 'I' for Inactive)
REMARK    1  A    between atoms: C_1  and  N_2
REMARK    2  A    between atoms: N_2  and  C_3
REMARK    3  A    between atoms: N_2  and  S_4
REMARK    4  A    between atoms: S_4  and  C_7
REMARK    5  A    between atoms: C_11  and  N_12
REMARK    6  A    between atoms: C_13  and  C_15
REMARK    7  A    between atoms: C_15  and  S_16
REMARK    8  A    between atoms: S_16  and  C_17
REMARK    9  A    between atoms: C_22  and  C_23
REMARK   10  A    between atoms: C_28  and  C_29
REMARK   11  A    between atoms: C_28  and  C_30
REMARK                            x       y       z     vdW  Elec       q    Type
REMARK                         _______ _______ _______ _____ _____    ______ ____
ROOT
ATOM      1  C   UNL     1       0.715   9.686  22.759  0.00  0.00    +0.000 C 
ENDROOT
BRANCH   1   3
ATOM      2  N   UNL     1       1.694   7.919  21.393  0.00  0.00    +0.000 N 
ATOM      3  C   UNL     1       0.707   8.893  21.463  0.00  0.00    +0.000 C 
ATOM      4  O   UNL     1      -0.119   9.133  20.586  0.00  0.00    +0.000 OA
ATOM      5  H   UNL     1       2.198   7.720  22.252  0.00  0.00    +0.000 HD
BRANCH   2  10
ATOM      6  C   UNL     1       2.035   4.819  19.404  0.00  0.00    +0.000 A 
ATOM      7  C   UNL     1       2.416   5.295  18.151  0.00  0.00    +0.000 A 
ATOM      8  C   UNL     1       2.607   6.660  17.981  0.00  0.00    +0.000 A 
ATOM      9  C   UNL     1       2.393   7.536  19.048  0.00  0.00    +0.000 A 
ATOM     10  C   UNL     1       1.954   7.072  20.293  0.00  0.00    +0.000 A 
ATOM     11  C   UNL     1       1.774   5.698  20.466  0.00  0.00    +0.000 A 
BRANCH   6  12
ATOM     12  S   UNL     1       1.872   3.063  19.657  0.00  0.00    +0.000 S 
ATOM     13  O   UNL     1       0.912   2.566  18.700  0.00  0.00    +0.000 OA
ATOM     14  O   UNL     1       1.693   2.857  21.080  0.00  0.00    +0.000 OA
BRANCH  12  16
ATOM     15  C   UNL     1       4.336   2.163  20.335  0.00  0.00    +0.000 C 
ATOM     16  N   UNL     1       3.420   2.485  19.225  0.00  0.00    +0.000 NA
ATOM     17  C   UNL     1       3.472   1.504  18.128  0.00  0.00    +0.000 C 
ENDBRANCH  12  16
ENDBRANCH   6  12
ENDBRANCH   2  10
ENDBRANCH   1   3
BRANCH   1  18
ATOM     18  S   UNL     1      -0.879  10.527  23.005  0.00  0.00    +0.000 S 
BRANCH  18  19
ATOM     19  C   UNL     1      -0.612  12.053  22.112  0.00  0.00    +0.000 A 
ATOM     20  N   UNL     1       0.677  12.307  21.743  0.00  0.00    +0.000 NA
ATOM     21  C   UNL     1       0.914  13.369  20.923  0.00  0.00    +0.000 A 
ATOM     22  C   UNL     1      -0.100  14.219  20.494  0.00  0.00    +0.000 A 
ATOM     23  C   UNL     1      -1.410  13.964  20.898  0.00  0.00    +0.000 A 
ATOM     24  C   UNL     1      -1.678  12.864  21.717  0.00  0.00    +0.000 A 
ATOM     25  C   UNL     1       0.189  15.351  19.587  0.00  0.00    +0.000 C 
ATOM     26  O   UNL     1      -0.731  16.009  19.112  0.00  0.00    +0.000 OA
ATOM     27  C   UNL     1       1.638  15.678  19.319  0.00  0.00    +0.000 C 
ATOM     28  C   UNL     1       2.491  14.405  19.195  0.00  0.00    +0.000 C 
ATOM     29  C   UNL     1       2.068  13.585  17.959  0.00  0.00    +0.000 C 
ATOM     30  C   UNL     1       3.966  14.808  19.009  0.00  0.00    +0.000 C 
ATOM     31  C   UNL     1       2.346  13.575  20.491  0.00  0.00    +0.000 C 
BRANCH  24  32
ATOM     32  C   UNL     1      -3.034  12.607  22.098  0.00  0.00    +0.000 C 
ATOM     33  N   UNL     1      -4.117  12.381  22.453  0.00  0.00    +0.000 NA
ENDBRANCH  24  32
ENDBRANCH  18  19
ENDBRANCH   1  18
TORSDOF 7
ENDMDL
MODEL 7
REMARK VINA RESULT:      -7.5      2.752      4.956
REMARK  Name = 
REMARK  11 active torsions:
REMARK  status: ('A' for Active; 'I' for Inactive)
REMARK    1  A    between atoms: C_1  and  N_2
REMARK    2  A    between atoms: N_2  and  C_3
REMARK    3  A    between atoms: N_2  and  S_4
REMARK    4  A    between atoms: S_4  and  C_7
REMARK    5  A    between atoms: C_11  and  N_12
REMARK    6  A    between atoms: C_13  and  C_15
REMARK    7  A    between atoms: C_15  and  S_16
REMARK    8  A    between atoms: S_16  and  C_17
REMARK    9  A    between atoms: C_22  and  C_23
REMARK   10  A    between atoms: C_28  and  C_29
REMARK   11  A    between atoms: C_28  and  C_30
REMARK                            x       y       z     vdW  Elec       q    Type
REMARK                         _______ _______ _______ _____ _____    ______ ____
ROOT
ATOM      1  C   UNL     1       1.075   8.986  20.605  0.00  0.00    +0.000 C 
ENDROOT
BRANCH   1   3
ATOM      2  N   UNL     1       2.230   7.584  18.977  0.00  0.00    +0.000 N 
ATOM      3  C   UNL     1       1.654   7.629  20.240  0.00  0.00    +0.000 C 
ATOM      4  O   UNL     1       1.591   6.688  21.027  0.00  0.00    +0.000 OA
ATOM      5  H   UNL     1       2.359   8.473  18.505  0.00  0.00    +0.000 HD
BRANCH   2  10
ATOM      6  C   UNL     1       4.742   5.402  17.361  0.00  0.00    +0.000 A 
ATOM      7  C   UNL     1       4.034   4.221  17.145  0.00  0.00    +0.000 A 
ATOM      8  C   UNL     1       2.692   4.168  17.500  0.00  0.00    +0.000 A 
ATOM      9  C   UNL     1       2.078   5.278  18.085  0.00  0.00    +0.000 A 
ATOM     10  C   UNL     1       2.797   6.447  18.359  0.00  0.00    +0.000 A 
ATOM     11  C   UNL     1       4.142   6.503  17.991  0.00  0.00    +0.000 A 
BRANCH   6  12
ATOM     12  S   UNL     1       6.439   5.510  16.829  0.00  0.00    +0.000 S 
ATOM     13  O   UNL     1       6.464   6.226  15.575  0.00  0.00    +0.000 OA
ATOM     14  O   UNL     1       7.004   4.181  16.949  0.00  0.00    +0.000 OA
BRANCH  12  16
ATOM     15  C   UNL     1       7.832   5.802  19.134  0.00  0.00    +0.000 C 
ATOM     16  N   UNL     1       7.138   6.497  18.034  0.00  0.00    +0.000 NA
ATOM     17  C   UNL     1       7.852   7.698  17.566  0.00  0.00    +0.000 C 
ENDBRANCH  12  16
ENDBRANCH   6  12
ENDBRANCH   2  10
ENDBRANCH   1   3
BRANCH   1  18
ATOM     18  S   UNL     1       0.624   9.914  19.108  0.00  0.00    +0.000 S 
BRANCH  18  19
ATOM     19  C   UNL     1      -0.738  10.907  19.708  0.00  0.00    +0.000 A 
ATOM     20  N   UNL     1      -0.575  11.449  20.950  0.00  0.00    +0.000 NA
ATOM     21  C   UNL     1      -1.505  12.343  21.389  0.00  0.00    +0.000 A 
ATOM     22  C   UNL     1      -2.625  12.681  20.637  0.00  0.00    +0.000 A 
ATOM     23  C   UNL     1      -2.793  12.102  19.380  0.00  0.00    +0.000 A 
ATOM     24  C   UNL     1      -1.838  11.203  18.900  0.00  0.00    +0.000 A 
ATOM     25  C   UNL     1      -3.605  13.671  21.134  0.00  0.00    +0.000 C 
ATOM     26  O   UNL     1      -4.513  14.057  20.406  0.00  0.00    +0.000 OA
ATOM     27  C   UNL     1      -3.462  14.136  22.564  0.00  0.00    +0.000 C 
ATOM     28  C   UNL     1      -1.986  14.304  22.959  0.00  0.00    +0.000 C 
ATOM     29  C   UNL     1      -1.330  15.436  22.140  0.00  0.00    +0.000 C 
ATOM     30  C   UNL     1      -1.909  14.695  24.447  0.00  0.00    +0.000 C 
ATOM     31  C   UNL     1      -1.252  12.962  22.742  0.00  0.00    +0.000 C 
BRANCH  24  32
ATOM     32  C   UNL     1      -2.018  10.641  17.595  0.00  0.00    +0.000 C 
ATOM     33  N   UNL     1      -2.214  10.182  16.547  0.00  0.00    +0.000 NA
ENDBRANCH  24  32
ENDBRANCH  18  19
ENDBRANCH   1  18
TORSDOF 7
ENDMDL
MODEL 8
REMARK VINA RESULT:      -7.4      2.849      4.015
REMARK  Name = 
REMARK  11 active torsions:
REMARK  status: ('A' for Active; 'I' for Inactive)
REMARK    1  A    between atoms: C_1  and  N_2
REMARK    2  A    between atoms: N_2  and  C_3
REMARK    3  A    between atoms: N_2  and  S_4
REMARK    4  A    between atoms: S_4  and  C_7
REMARK    5  A    between atoms: C_11  and  N_12
REMARK    6  A    between atoms: C_13  and  C_15
REMARK    7  A    between atoms: C_15  and  S_16
REMARK    8  A    between atoms: S_16  and  C_17
REMARK    9  A    between atoms: C_22  and  C_23
REMARK   10  A    between atoms: C_28  and  C_29
REMARK   11  A    between atoms: C_28  and  C_30
REMARK                            x       y       z     vdW  Elec       q    Type
REMARK                         _______ _______ _______ _____ _____    ______ ____
ROOT
ATOM      1  C   UNL     1       0.044   9.788  19.764  0.00  0.00    +0.000 C 
ENDROOT
BRANCH   1   3
ATOM      2  N   UNL     1       1.534   8.400  18.421  0.00  0.00    +0.000 N 
ATOM      3  C   UNL     1       1.198   8.801  19.708  0.00  0.00    +0.000 C 
ATOM      4  O   UNL     1       1.750   8.422  20.738  0.00  0.00    +0.000 OA
ATOM      5  H   UNL     1       1.107   8.917  17.659  0.00  0.00    +0.000 HD
BRANCH   2  10
ATOM      6  C   UNL     1       3.175   5.131  17.869  0.00  0.00    +0.000 A 
ATOM      7  C   UNL     1       4.428   5.492  17.375  0.00  0.00    +0.000 A 
ATOM      8  C   UNL     1       4.744   6.841  17.270  0.00  0.00    +0.000 A 
ATOM      9  C   UNL     1       3.807   7.811  17.632  0.00  0.00    +0.000 A 
ATOM     10  C   UNL     1       2.527   7.457  18.073  0.00  0.00    +0.000 A 
ATOM     11  C   UNL     1       2.214   6.102  18.189  0.00  0.00    +0.000 A 
BRANCH   6  12
ATOM     12  S   UNL     1       2.790   3.406  18.090  0.00  0.00    +0.000 S 
ATOM     13  O   UNL     1       3.849   2.635  17.482  0.00  0.00    +0.000 OA
ATOM     14  O   UNL     1       1.407   3.228  17.695  0.00  0.00    +0.000 OA
BRANCH  12  16
ATOM     15  C   UNL     1       1.619   2.972  20.494  0.00  0.00    +0.000 C 
ATOM     16  N   UNL     1       2.887   3.223  19.785  0.00  0.00    +0.000 NA
ATOM     17  C   UNL     1       4.007   2.411  20.294  0.00  0.00    +0.000 C 
ENDBRANCH  12  16
ENDBRANCH   6  12
ENDBRANCH   2  10
ENDBRANCH   1   3
BRANCH   1  18
ATOM     18  S   UNL     1       0.611  11.402  20.382  0.00  0.00    +0.000 S 
BRANCH  18  19
ATOM     19  C   UNL     1      -0.766  11.884  21.418  0.00  0.00    +0.000 A 
ATOM     20  N   UNL     1      -1.604  12.824  20.891  0.00  0.00    +0.000 NA
ATOM     21  C   UNL     1      -2.754  13.109  21.563  0.00  0.00    +0.000 A 
ATOM     22  C   UNL     1      -3.074  12.512  22.778  0.00  0.00    +0.000 A 
ATOM     23  C   UNL     1      -2.197  11.571  23.318  0.00  0.00    +0.000 A 
ATOM     24  C   UNL     1      -1.025  11.245  22.632  0.00  0.00    +0.000 A 
ATOM     25  C   UNL     1      -4.341  12.828  23.471  0.00  0.00    +0.000 C 
ATOM     26  O   UNL     1      -4.670  12.197  24.470  0.00  0.00    +0.000 OA
ATOM     27  C   UNL     1      -5.166  13.970  22.929  0.00  0.00    +0.000 C 
ATOM     28  C   UNL     1      -5.145  14.003  21.392  0.00  0.00    +0.000 C 
ATOM     29  C   UNL     1      -5.831  12.749  20.812  0.00  0.00    +0.000 C 
ATOM     30  C   UNL     1      -5.931  15.236  20.908  0.00  0.00    +0.000 C 
ATOM     31  C   UNL     1      -3.679  14.109  20.913  0.00  0.00    +0.000 C 
BRANCH  24  32
ATOM     32  C   UNL     1      -0.153  10.257  23.193  0.00  0.00    +0.000 C 
ATOM     33  N   UNL     1       0.529   9.421  23.621  0.00  0.00    +0.000 NA
ENDBRANCH  24  32
ENDBRANCH  18  19
ENDBRANCH   1  18
TORSDOF 7
ENDMDL
MODEL 9
REMARK VINA RESULT:      -7.4      2.388      4.587
REMARK  Name = 
REMARK  11 active torsions:
REMARK  status: ('A' for Active; 'I' for Inactive)
REMARK    1  A    between atoms: C_1  and  N_2
REMARK    2  A    between atoms: N_2  and  C_3
REMARK    3  A    between atoms: N_2  and  S_4
REMARK    4  A    between atoms: S_4  and  C_7
REMARK    5  A    between atoms: C_11  and  N_12
REMARK    6  A    between atoms: C_13  and  C_15
REMARK    7  A    between atoms: C_15  and  S_16
REMARK    8  A    between atoms: S_16  and  C_17
REMARK    9  A    between atoms: C_22  and  C_23
REMARK   10  A    between atoms: C_28  and  C_29
REMARK   11  A    between atoms: C_28  and  C_30
REMARK                            x       y       z     vdW  Elec       q    Type
REMARK                         _______ _______ _______ _____ _____    ______ ____
ROOT
ATOM      1  C   UNL     1       1.005   9.899  19.728  0.00  0.00    +0.000 C 
ENDROOT
BRANCH   1   3
ATOM      2  N   UNL     1       2.151   7.791  19.291  0.00  0.00    +0.000 N 
ATOM      3  C   UNL     1       1.497   8.875  18.720  0.00  0.00    +0.000 C 
ATOM      4  O   UNL     1       1.309   9.038  17.517  0.00  0.00    +0.000 OA
ATOM      5  H   UNL     1       2.089   7.704  20.300  0.00  0.00    +0.000 HD
BRANCH   2  10
ATOM      6  C   UNL     1       2.778   4.350  18.089  0.00  0.00    +0.000 A 
ATOM      7  C   UNL     1       3.863   4.514  17.230  0.00  0.00    +0.000 A 
ATOM      8  C   UNL     1       4.421   5.778  17.087  0.00  0.00    +0.000 A 
ATOM      9  C   UNL     1       3.880   6.865  17.778  0.00  0.00    +0.000 A 
ATOM     10  C   UNL     1       2.754   6.719  18.597  0.00  0.00    +0.000 A 
ATOM     11  C   UNL     1       2.202   5.446  18.749  0.00  0.00    +0.000 A 
BRANCH   6  12
ATOM     12  S   UNL     1       2.110   2.718  18.347  0.00  0.00    +0.000 S 
ATOM     13  O   UNL     1       2.821   1.808  17.480  0.00  0.00    +0.000 OA
ATOM     14  O   UNL     1       0.667   2.839  18.292  0.00  0.00    +0.000 OA
BRANCH  12  16
ATOM     15  C   UNL     1       3.979   2.574  20.303  0.00  0.00    +0.000 C 
ATOM     16  N   UNL     1       2.556   2.391  19.963  0.00  0.00    +0.000 NA
ATOM     17  C   UNL     1       1.643   2.885  21.008  0.00  0.00    +0.000 C 
ENDBRANCH  12  16
ENDBRANCH   6  12
ENDBRANCH   2  10
ENDBRANCH   1   3
BRANCH   1  18
ATOM     18  S   UNL     1       0.559  11.454  18.896  0.00  0.00    +0.000 S 
BRANCH  18  19
ATOM     19  C   UNL     1      -1.019  11.818  19.656  0.00  0.00    +0.000 A 
ATOM     20  N   UNL     1      -0.971  12.230  20.956  0.00  0.00    +0.000 NA
ATOM     21  C   UNL     1      -2.122  12.676  21.532  0.00  0.00    +0.000 A 
ATOM     22  C   UNL     1      -3.338  12.680  20.859  0.00  0.00    +0.000 A 
ATOM     23  C   UNL     1      -3.380  12.233  19.538  0.00  0.00    +0.000 A 
ATOM     24  C   UNL     1      -2.206  11.797  18.920  0.00  0.00    +0.000 A 
ATOM     25  C   UNL     1      -4.566  13.189  21.507  0.00  0.00    +0.000 C 
ATOM     26  O   UNL     1      -5.600  13.311  20.858  0.00  0.00    +0.000 OA
ATOM     27  C   UNL     1      -4.497  13.502  22.983  0.00  0.00    +0.000 C 
ATOM     28  C   UNL     1      -3.150  14.136  23.364  0.00  0.00    +0.000 C 
ATOM     29  C   UNL     1      -2.989  15.516  22.692  0.00  0.00    +0.000 C 
ATOM     30  C   UNL     1      -3.112  14.348  24.889  0.00  0.00    +0.000 C 
ATOM     31  C   UNL     1      -2.009  13.178  22.951  0.00  0.00    +0.000 C 
BRANCH  24  32
ATOM     32  C   UNL     1      -2.267  11.367  17.555  0.00  0.00    +0.000 C 
ATOM     33  N   UNL     1      -2.366  11.033  16.447  0.00  0.00    +0.000 NA
ENDBRANCH  24  32
ENDBRANCH  18  19
ENDBRANCH   1  18
TORSDOF 7
ENDMDL
