MODEL 1
REMARK VINA RESULT:      -7.1      0.000      0.000
REMARK  Name = 
REMARK  12 active torsions:
REMARK  status: ('A' for Active; 'I' for Inactive)
REMARK    1  A    between atoms: C_1  and  C_2
REMARK    2  A    between atoms: C_3  and  C_4
REMARK    3  A    between atoms: C_4  and  C_6
REMARK    4  A    between atoms: N_13  and  C_14
REMARK    5  A    between atoms: N_20  and  C_21
REMARK    6  A    between atoms: C_21  and  C_22
REMARK    7  A    between atoms: C_22  and  O_23
REMARK    8  A    between atoms: C_22  and  C_24
REMARK    9  A    between atoms: C_24  and  N_25
REMARK   10  A    between atoms: N_25  and  C_26
REMARK   11  A    between atoms: C_26  and  C_27
REMARK   12  A    between atoms: C_26  and  C_28
REMARK                            x       y       z     vdW  Elec       q    Type
REMARK                         _______ _______ _______ _____ _____    ______ ____
ROOT
ATOM      1  C   UNL     1       1.980   6.173  20.884  0.00  0.00    +0.000 C 
ATOM      2  C   UNL     1       1.846   7.355  19.967  0.00  0.00    +0.000 A 
ATOM      3  C   UNL     1       2.432   7.477  18.754  0.00  0.00    +0.000 A 
ATOM      4  C   UNL     1       1.937   8.766  18.204  0.00  0.00    +0.000 A 
ATOM      5  O   UNL     1       2.265   9.260  17.129  0.00  0.00    +0.000 OA
ATOM      6  N   UNL     1       1.077   9.309  19.147  0.00  0.00    +0.000 N 
ATOM      7  N   UNL     1       1.090   8.498  20.310  0.00  0.00    +0.000 N 
ENDROOT
BRANCH   6   8
ATOM      8  C   UNL     1       0.502  10.588  19.047  0.00  0.00    +0.000 A 
ATOM      9  C   UNL     1       1.243  11.697  19.479  0.00  0.00    +0.000 A 
ATOM     10  C   UNL     1       0.725  12.990  19.355  0.00  0.00    +0.000 A 
ATOM     11  C   UNL     1      -0.552  13.179  18.836  0.00  0.00    +0.000 A 
ATOM     12  C   UNL     1      -1.311  12.071  18.442  0.00  0.00    +0.000 A 
ATOM     13  C   UNL     1      -0.785  10.783  18.542  0.00  0.00    +0.000 A 
ENDBRANCH   6   8
BRANCH   3  14
ATOM     14  C   UNL     1       3.415   6.581  18.089  0.00  0.00    +0.000 C 
ATOM     15  O   UNL     1       4.466   7.068  17.676  0.00  0.00    +0.000 OA
BRANCH  14  16
ATOM     16  C   UNL     1       3.108   5.152  17.947  0.00  0.00    +0.000 A 
ATOM     17  C   UNL     1       1.901   4.523  17.718  0.00  0.00    +0.000 A 
ATOM     18  C   UNL     1       2.011   3.104  17.719  0.00  0.00    +0.000 A 
ATOM     19  C   UNL     1       3.307   2.691  17.918  0.00  0.00    +0.000 A 
ATOM     20  S   UNL     1       4.380   4.010  18.097  0.00  0.00    +0.000 S 
ENDBRANCH  14  16
ENDBRANCH   3  14
BRANCH   7  21
ATOM     21  C   UNL     1      -0.046   8.680  21.247  0.00  0.00    +0.000 C 
BRANCH  21  22
ATOM     22  C   UNL     1       0.275   9.099  22.697  0.00  0.00    +0.000 C 
BRANCH  22  23
ATOM     23  O   UNL     1       1.565   9.698  22.846  0.00  0.00    +0.000 OA
ATOM     24  H   UNL     1       1.829   9.611  23.778  0.00  0.00    +0.000 HD
ENDBRANCH  22  23
BRANCH  22  25
ATOM     25  C   UNL     1      -0.694  10.173  23.197  0.00  0.00    +0.000 C 
BRANCH  25  26
ATOM     26  N   UNL     1      -0.260  11.481  22.733  0.00  0.00    +0.000 NA
ATOM     27  H   UNL     1       0.338  11.361  21.914  0.00  0.00    +0.000 HD
BRANCH  26  28
ATOM     28  C   UNL     1      -1.362  12.377  22.400  0.00  0.00    +0.000 C 
ATOM     29  C   UNL     1      -2.616  12.066  23.214  0.00  0.00    +0.000 C 
ATOM     30  C   UNL     1      -0.874  13.793  22.701  0.00  0.00    +0.000 C 
ENDBRANCH  26  28
ENDBRANCH  25  26
ENDBRANCH  22  25
ENDBRANCH  21  22
ENDBRANCH   7  21
TORSDOF 9
ENDMDL
MODEL 2
REMARK VINA RESULT:      -6.7      1.431      2.102
REMARK  Name = 
REMARK  12 active torsions:
REMARK  status: ('A' for Active; 'I' for Inactive)
REMARK    1  A    between atoms: C_1  and  C_2
REMARK    2  A    between atoms: C_3  and  C_4
REMARK    3  A    between atoms: C_4  and  C_6
REMARK    4  A    between atoms: N_13  and  C_14
REMARK    5  A    between atoms: N_20  and  C_21
REMARK    6  A    between atoms: C_21  and  C_22
REMARK    7  A    between atoms: C_22  and  O_23
REMARK    8  A    between atoms: C_22  and  C_24
REMARK    9  A    between atoms: C_24  and  N_25
REMARK   10  A    between atoms: N_25  and  C_26
REMARK   11  A    between atoms: C_26  and  C_27
REMARK   12  A    between atoms: C_26  and  C_28
REMARK                            x       y       z     vdW  Elec       q    Type
REMARK                         _______ _______ _______ _____ _____    ______ ____
ROOT
ATOM      1  C   UNL     1       2.056   5.807  20.888  0.00  0.00    +0.000 C 
ATOM      2  C   UNL     1       1.997   6.958  19.925  0.00  0.00    +0.000 A 
ATOM      3  C   UNL     1       2.553   6.977  18.692  0.00  0.00    +0.000 A 
ATOM      4  C   UNL     1       2.154   8.281  18.100  0.00  0.00    +0.000 A 
ATOM      5  O   UNL     1       2.491   8.699  16.996  0.00  0.00    +0.000 OA
ATOM      6  N   UNL     1       1.374   8.936  19.041  0.00  0.00    +0.000 N 
ATOM      7  N   UNL     1       1.353   8.175  20.237  0.00  0.00    +0.000 N 
ENDROOT
BRANCH   6   8
ATOM      8  C   UNL     1       0.909  10.255  18.901  0.00  0.00    +0.000 A 
ATOM      9  C   UNL     1       1.788  11.314  19.171  0.00  0.00    +0.000 A 
ATOM     10  C   UNL     1       1.378  12.639  18.999  0.00  0.00    +0.000 A 
ATOM     11  C   UNL     1       0.075  12.916  18.597  0.00  0.00    +0.000 A 
ATOM     12  C   UNL     1      -0.818  11.863  18.368  0.00  0.00    +0.000 A 
ATOM     13  C   UNL     1      -0.402  10.540  18.513  0.00  0.00    +0.000 A 
ENDBRANCH   6   8
BRANCH   3  14
ATOM     14  C   UNL     1       3.434   5.972  18.041  0.00  0.00    +0.000 C 
ATOM     15  O   UNL     1       2.914   4.987  17.518  0.00  0.00    +0.000 OA
BRANCH  14  16
ATOM     16  C   UNL     1       4.887   6.182  18.036  0.00  0.00    +0.000 A 
ATOM     17  C   UNL     1       5.665   6.986  17.226  0.00  0.00    +0.000 A 
ATOM     18  C   UNL     1       7.057   6.853  17.493  0.00  0.00    +0.000 A 
ATOM     19  C   UNL     1       7.300   5.973  18.521  0.00  0.00    +0.000 A 
ATOM     20  S   UNL     1       5.855   5.319  19.160  0.00  0.00    +0.000 S 
ENDBRANCH  14  16
ENDBRANCH   3  14
BRANCH   7  21
ATOM     21  C   UNL     1       0.266   8.495  21.196  0.00  0.00    +0.000 C 
BRANCH  21  22
ATOM     22  C   UNL     1       0.667   8.966  22.610  0.00  0.00    +0.000 C 
BRANCH  22  23
ATOM     23  O   UNL     1       1.998   9.483  22.684  0.00  0.00    +0.000 OA
ATOM     24  H   UNL     1       2.000  10.214  23.327  0.00  0.00    +0.000 HD
ENDBRANCH  22  23
BRANCH  22  25
ATOM     25  C   UNL     1      -0.211  10.127  23.083  0.00  0.00    +0.000 C 
BRANCH  25  26
ATOM     26  N   UNL     1      -0.111  11.232  22.145  0.00  0.00    +0.000 NA
ATOM     27  H   UNL     1      -0.409  10.912  21.222  0.00  0.00    +0.000 HD
BRANCH  26  28
ATOM     28  C   UNL     1      -0.899  12.398  22.529  0.00  0.00    +0.000 C 
ATOM     29  C   UNL     1      -0.169  13.705  22.226  0.00  0.00    +0.000 C 
ATOM     30  C   UNL     1      -2.201  12.322  21.733  0.00  0.00    +0.000 C 
ENDBRANCH  26  28
ENDBRANCH  25  26
ENDBRANCH  22  25
ENDBRANCH  21  22
ENDBRANCH   7  21
TORSDOF 9
ENDMDL
MODEL 3
REMARK VINA RESULT:      -6.7      1.594      2.048
REMARK  Name = 
REMARK  12 active torsions:
REMARK  status: ('A' for Active; 'I' for Inactive)
REMARK    1  A    between atoms: C_1  and  C_2
REMARK    2  A    between atoms: C_3  and  C_4
REMARK    3  A    between atoms: C_4  and  C_6
REMARK    4  A    between atoms: N_13  and  C_14
REMARK    5  A    between atoms: N_20  and  C_21
REMARK    6  A    between atoms: C_21  and  C_22
REMARK    7  A    between atoms: C_22  and  O_23
REMARK    8  A    between atoms: C_22  and  C_24
REMARK    9  A    between atoms: C_24  and  N_25
REMARK   10  A    between atoms: N_25  and  C_26
REMARK   11  A    between atoms: C_26  and  C_27
REMARK   12  A    between atoms: C_26  and  C_28
REMARK                            x       y       z     vdW  Elec       q    Type
REMARK                         _______ _______ _______ _____ _____    ______ ____
ROOT
ATOM      1  C   UNL     1       2.180   5.555  20.907  0.00  0.00    +0.000 C 
ATOM      2  C   UNL     1       2.109   6.723  19.965  0.00  0.00    +0.000 A 
ATOM      3  C   UNL     1       2.665   6.771  18.733  0.00  0.00    +0.000 A 
ATOM      4  C   UNL     1       2.253   8.082  18.165  0.00  0.00    +0.000 A 
ATOM      5  O   UNL     1       2.586   8.525  17.070  0.00  0.00    +0.000 OA
ATOM      6  N   UNL     1       1.467   8.711  19.119  0.00  0.00    +0.000 N 
ATOM      7  N   UNL     1       1.453   7.928  20.301  0.00  0.00    +0.000 N 
ENDROOT
BRANCH   6   8
ATOM      8  C   UNL     1       0.988  10.028  19.004  0.00  0.00    +0.000 A 
ATOM      9  C   UNL     1       1.872  11.091  19.238  0.00  0.00    +0.000 A 
ATOM     10  C   UNL     1       1.447  12.414  19.089  0.00  0.00    +0.000 A 
ATOM     11  C   UNL     1       0.126  12.685  18.745  0.00  0.00    +0.000 A 
ATOM     12  C   UNL     1      -0.770  11.627  18.552  0.00  0.00    +0.000 A 
ATOM     13  C   UNL     1      -0.340  10.306  18.675  0.00  0.00    +0.000 A 
ENDBRANCH   6   8
BRANCH   3  14
ATOM     14  C   UNL     1       3.557   5.788  18.063  0.00  0.00    +0.000 C 
ATOM     15  O   UNL     1       3.045   4.916  17.361  0.00  0.00    +0.000 OA
BRANCH  14  16
ATOM     16  C   UNL     1       5.009   5.885  18.252  0.00  0.00    +0.000 A 
ATOM     17  C   UNL     1       5.816   5.323  19.222  0.00  0.00    +0.000 A 
ATOM     18  C   UNL     1       7.178   5.720  19.103  0.00  0.00    +0.000 A 
ATOM     19  C   UNL     1       7.376   6.551  18.025  0.00  0.00    +0.000 A 
ATOM     20  S   UNL     1       5.928   6.841  17.164  0.00  0.00    +0.000 S 
ENDBRANCH  14  16
ENDBRANCH   3  14
BRANCH   7  21
ATOM     21  C   UNL     1       0.363   8.218  21.265  0.00  0.00    +0.000 C 
BRANCH  21  22
ATOM     22  C   UNL     1       0.727   8.984  22.555  0.00  0.00    +0.000 C 
BRANCH  22  23
ATOM     23  O   UNL     1       1.916   9.769  22.438  0.00  0.00    +0.000 OA
ATOM     24  H   UNL     1       2.110   9.878  21.491  0.00  0.00    +0.000 HD
ENDBRANCH  22  23
BRANCH  22  25
ATOM     25  C   UNL     1      -0.355  10.001  22.926  0.00  0.00    +0.000 C 
BRANCH  25  26
ATOM     26  N   UNL     1       0.027  11.320  22.450  0.00  0.00    +0.000 NA
ATOM     27  H   UNL     1       0.585  11.219  21.601  0.00  0.00    +0.000 HD
BRANCH  26  28
ATOM     28  C   UNL     1      -1.109  12.195  22.181  0.00  0.00    +0.000 C 
ATOM     29  C   UNL     1      -2.276  11.922  23.128  0.00  0.00    +0.000 C 
ATOM     30  C   UNL     1      -0.605  13.626  22.361  0.00  0.00    +0.000 C 
ENDBRANCH  26  28
ENDBRANCH  25  26
ENDBRANCH  22  25
ENDBRANCH  21  22
ENDBRANCH   7  21
TORSDOF 9
ENDMDL
MODEL 4
REMARK VINA RESULT:      -6.5      3.121      7.422
REMARK  Name = 
REMARK  12 active torsions:
REMARK  status: ('A' for Active; 'I' for Inactive)
REMARK    1  A    between atoms: C_1  and  C_2
REMARK    2  A    between atoms: C_3  and  C_4
REMARK    3  A    between atoms: C_4  and  C_6
REMARK    4  A    between atoms: N_13  and  C_14
REMARK    5  A    between atoms: N_20  and  C_21
REMARK    6  A    between atoms: C_21  and  C_22
REMARK    7  A    between atoms: C_22  and  O_23
REMARK    8  A    between atoms: C_22  and  C_24
REMARK    9  A    between atoms: C_24  and  N_25
REMARK   10  A    between atoms: N_25  and  C_26
REMARK   11  A    between atoms: C_26  and  C_27
REMARK   12  A    between atoms: C_26  and  C_28
REMARK                            x       y       z     vdW  Elec       q    Type
REMARK                         _______ _______ _______ _____ _____    ______ ____
ROOT
ATOM      1  C   UNL     1       0.708   8.314  21.638  0.00  0.00    +0.000 C 
ATOM      2  C   UNL     1       1.363   8.141  20.298  0.00  0.00    +0.000 A 
ATOM      3  C   UNL     1       1.411   9.076  19.322  0.00  0.00    +0.000 A 
ATOM      4  C   UNL     1       2.230   8.474  18.237  0.00  0.00    +0.000 A 
ATOM      5  O   UNL     1       2.479   8.995  17.154  0.00  0.00    +0.000 OA
ATOM      6  N   UNL     1       2.614   7.213  18.668  0.00  0.00    +0.000 N 
ATOM      7  N   UNL     1       1.990   6.936  19.911  0.00  0.00    +0.000 N 
ENDROOT
BRANCH   6   8
ATOM      8  C   UNL     1       3.297   6.279  17.869  0.00  0.00    +0.000 A 
ATOM      9  C   UNL     1       4.583   6.595  17.411  0.00  0.00    +0.000 A 
ATOM     10  C   UNL     1       5.313   5.676  16.652  0.00  0.00    +0.000 A 
ATOM     11  C   UNL     1       4.747   4.451  16.312  0.00  0.00    +0.000 A 
ATOM     12  C   UNL     1       3.447   4.149  16.732  0.00  0.00    +0.000 A 
ATOM     13  C   UNL     1       2.727   5.055  17.511  0.00  0.00    +0.000 A 
ENDBRANCH   6   8
BRANCH   3  14
ATOM     14  C   UNL     1       0.755  10.410  19.262  0.00  0.00    +0.000 C 
ATOM     15  O   UNL     1       1.361  11.382  19.708  0.00  0.00    +0.000 OA
BRANCH  14  16
ATOM     16  C   UNL     1      -0.586  10.528  18.675  0.00  0.00    +0.000 A 
ATOM     17  C   UNL     1      -1.145   9.865  17.600  0.00  0.00    +0.000 A 
ATOM     18  C   UNL     1      -2.459  10.321  17.296  0.00  0.00    +0.000 A 
ATOM     19  C   UNL     1      -2.876  11.299  18.168  0.00  0.00    +0.000 A 
ATOM     20  S   UNL     1      -1.690  11.656  19.346  0.00  0.00    +0.000 S 
ENDBRANCH  14  16
ENDBRANCH   3  14
BRANCH   7  21
ATOM     21  C   UNL     1       2.586   5.837  20.711  0.00  0.00    +0.000 C 
BRANCH  21  22
ATOM     22  C   UNL     1       1.666   4.672  21.134  0.00  0.00    +0.000 C 
BRANCH  22  23
ATOM     23  O   UNL     1       0.685   4.332  20.149  0.00  0.00    +0.000 OA
ATOM     24  H   UNL     1       0.937   4.765  19.315  0.00  0.00    +0.000 HD
ENDBRANCH  22  23
BRANCH  22  25
ATOM     25  C   UNL     1       2.457   3.378  21.333  0.00  0.00    +0.000 C 
BRANCH  25  26
ATOM     26  N   UNL     1       2.514   2.639  20.082  0.00  0.00    +0.000 NA
ATOM     27  H   UNL     1       2.299   3.273  19.311  0.00  0.00    +0.000 HD
BRANCH  26  28
ATOM     28  C   UNL     1       3.802   2.000  19.839  0.00  0.00    +0.000 C 
ATOM     29  C   UNL     1       3.800   1.186  18.545  0.00  0.00    +0.000 C 
ATOM     30  C   UNL     1       4.833   3.124  19.754  0.00  0.00    +0.000 C 
ENDBRANCH  26  28
ENDBRANCH  25  26
ENDBRANCH  22  25
ENDBRANCH  21  22
ENDBRANCH   7  21
TORSDOF 9
ENDMDL
MODEL 5
REMARK VINA RESULT:      -6.5      3.412      6.198
REMARK  Name = 
REMARK  12 active torsions:
REMARK  status: ('A' for Active; 'I' for Inactive)
REMARK    1  A    between atoms: C_1  and  C_2
REMARK    2  A    between atoms: C_3  and  C_4
REMARK    3  A    between atoms: C_4  and  C_6
REMARK    4  A    between atoms: N_13  and  C_14
REMARK    5  A    between atoms: N_20  and  C_21
REMARK    6  A    between atoms: C_21  and  C_22
REMARK    7  A    between atoms: C_22  and  O_23
REMARK    8  A    between atoms: C_22  and  C_24
REMARK    9  A    between atoms: C_24  and  N_25
REMARK   10  A    between atoms: N_25  and  C_26
REMARK   11  A    between atoms: C_26  and  C_27
REMARK   12  A    between atoms: C_26  and  C_28
REMARK                            x       y       z     vdW  Elec       q    Type
REMARK                         _______ _______ _______ _____ _____    ______ ____
ROOT
ATOM      1  C   UNL     1       4.556   6.997  15.662  0.00  0.00    +0.000 C 
ATOM      2  C   UNL     1       4.484   5.896  16.680  0.00  0.00    +0.000 A 
ATOM      3  C   UNL     1       5.462   4.995  16.931  0.00  0.00    +0.000 A 
ATOM      4  C   UNL     1       4.962   4.176  18.066  0.00  0.00    +0.000 A 
ATOM      5  O   UNL     1       5.544   3.221  18.571  0.00  0.00    +0.000 OA
ATOM      6  N   UNL     1       3.712   4.671  18.408  0.00  0.00    +0.000 N 
ATOM      7  N   UNL     1       3.342   5.678  17.481  0.00  0.00    +0.000 N 
ENDROOT
BRANCH   6   8
ATOM      8  C   UNL     1       2.861   4.079  19.358  0.00  0.00    +0.000 A 
ATOM      9  C   UNL     1       1.889   3.170  18.920  0.00  0.00    +0.000 A 
ATOM     10  C   UNL     1       1.054   2.526  19.837  0.00  0.00    +0.000 A 
ATOM     11  C   UNL     1       1.158   2.816  21.194  0.00  0.00    +0.000 A 
ATOM     12  C   UNL     1       2.099   3.756  21.631  0.00  0.00    +0.000 A 
ATOM     13  C   UNL     1       2.950   4.379  20.719  0.00  0.00    +0.000 A 
ENDBRANCH   6   8
BRANCH   3  14
ATOM     14  C   UNL     1       6.749   4.780  16.219  0.00  0.00    +0.000 C 
ATOM     15  O   UNL     1       7.794   4.832  16.867  0.00  0.00    +0.000 OA
BRANCH  14  16
ATOM     16  C   UNL     1       6.739   4.511  14.776  0.00  0.00    +0.000 A 
ATOM     17  C   UNL     1       5.954   3.645  14.041  0.00  0.00    +0.000 A 
ATOM     18  C   UNL     1       6.306   3.620  12.661  0.00  0.00    +0.000 A 
ATOM     19  C   UNL     1       7.331   4.491  12.378  0.00  0.00    +0.000 A 
ATOM     20  S   UNL     1       7.858   5.335  13.769  0.00  0.00    +0.000 S 
ENDBRANCH  14  16
ENDBRANCH   3  14
BRANCH   7  21
ATOM     21  C   UNL     1       2.252   6.590  17.908  0.00  0.00    +0.000 C 
BRANCH  21  22
ATOM     22  C   UNL     1       2.644   7.991  18.426  0.00  0.00    +0.000 C 
BRANCH  22  23
ATOM     23  O   UNL     1       2.338   9.045  17.509  0.00  0.00    +0.000 OA
ATOM     24  H   UNL     1       1.746   8.685  16.826  0.00  0.00    +0.000 HD
ENDBRANCH  22  23
BRANCH  22  25
ATOM     25  C   UNL     1       1.865   8.359  19.690  0.00  0.00    +0.000 C 
BRANCH  25  26
ATOM     26  N   UNL     1       1.075   9.556  19.450  0.00  0.00    +0.000 NA
ATOM     27  H   UNL     1       0.756   9.554  18.480  0.00  0.00    +0.000 HD
BRANCH  26  28
ATOM     28  C   UNL     1      -0.075   9.685  20.337  0.00  0.00    +0.000 C 
ATOM     29  C   UNL     1      -0.005   8.703  21.506  0.00  0.00    +0.000 C 
ATOM     30  C   UNL     1      -0.065  11.123  20.853  0.00  0.00    +0.000 C 
ENDBRANCH  26  28
ENDBRANCH  25  26
ENDBRANCH  22  25
ENDBRANCH  21  22
ENDBRANCH   7  21
TORSDOF 9
ENDMDL
MODEL 6
REMARK VINA RESULT:      -6.5      0.873      1.166
REMARK  Name = 
REMARK  12 active torsions:
REMARK  status: ('A' for Active; 'I' for Inactive)
REMARK    1  A    between atoms: C_1  and  C_2
REMARK    2  A    between atoms: C_3  and  C_4
REMARK    3  A    between atoms: C_4  and  C_6
REMARK    4  A    between atoms: N_13  and  C_14
REMARK    5  A    between atoms: N_20  and  C_21
REMARK    6  A    between atoms: C_21  and  C_22
REMARK    7  A    between atoms: C_22  and  O_23
REMARK    8  A    between atoms: C_22  and  C_24
REMARK    9  A    between atoms: C_24  and  N_25
REMARK   10  A    between atoms: N_25  and  C_26
REMARK   11  A    between atoms: C_26  and  C_27
REMARK   12  A    between atoms: C_26  and  C_28
REMARK                            x       y       z     vdW  Elec       q    Type
REMARK                         _______ _______ _______ _____ _____    ______ ____
ROOT
ATOM      1  C   UNL     1       2.198   5.972  20.993  0.00  0.00    +0.000 C 
ATOM      2  C   UNL     1       2.053   7.078  19.987  0.00  0.00    +0.000 A 
ATOM      3  C   UNL     1       2.617   7.098  18.758  0.00  0.00    +0.000 A 
ATOM      4  C   UNL     1       2.118   8.342  18.115  0.00  0.00    +0.000 A 
ATOM      5  O   UNL     1       2.429   8.746  16.999  0.00  0.00    +0.000 OA
ATOM      6  N   UNL     1       1.278   8.965  19.026  0.00  0.00    +0.000 N 
ATOM      7  N   UNL     1       1.309   8.249  20.250  0.00  0.00    +0.000 N 
ENDROOT
BRANCH   6   8
ATOM      8  C   UNL     1       0.707  10.235  18.835  0.00  0.00    +0.000 A 
ATOM      9  C   UNL     1       1.487  11.371  19.092  0.00  0.00    +0.000 A 
ATOM     10  C   UNL     1       0.971  12.651  18.870  0.00  0.00    +0.000 A 
ATOM     11  C   UNL     1      -0.340  12.805  18.428  0.00  0.00    +0.000 A 
ATOM     12  C   UNL     1      -1.135  11.674  18.211  0.00  0.00    +0.000 A 
ATOM     13  C   UNL     1      -0.612  10.396  18.407  0.00  0.00    +0.000 A 
ENDBRANCH   6   8
BRANCH   3  14
ATOM     14  C   UNL     1       3.584   6.146  18.150  0.00  0.00    +0.000 C 
ATOM     15  O   UNL     1       4.605   6.598  17.632  0.00  0.00    +0.000 OA
BRANCH  14  16
ATOM     16  C   UNL     1       3.298   4.707  18.185  0.00  0.00    +0.000 A 
ATOM     17  C   UNL     1       4.117   3.648  18.526  0.00  0.00    +0.000 A 
ATOM     18  C   UNL     1       3.482   2.385  18.358  0.00  0.00    +0.000 A 
ATOM     19  C   UNL     1       2.184   2.518  17.923  0.00  0.00    +0.000 A 
ATOM     20  S   UNL     1       1.740   4.157  17.725  0.00  0.00    +0.000 S 
ENDBRANCH  14  16
ENDBRANCH   3  14
BRANCH   7  21
ATOM     21  C   UNL     1       0.190   8.513  21.189  0.00  0.00    +0.000 C 
BRANCH  21  22
ATOM     22  C   UNL     1       0.503   9.298  22.481  0.00  0.00    +0.000 C 
BRANCH  22  23
ATOM     23  O   UNL     1       1.902   9.421  22.750  0.00  0.00    +0.000 OA
ATOM     24  H   UNL     1       2.102  10.365  22.872  0.00  0.00    +0.000 HD
ENDBRANCH  22  23
BRANCH  22  25
ATOM     25  C   UNL     1       0.014  10.745  22.389  0.00  0.00    +0.000 C 
BRANCH  25  26
ATOM     26  N   UNL     1      -1.129  10.934  23.267  0.00  0.00    +0.000 NA
ATOM     27  H   UNL     1      -0.832  10.798  24.234  0.00  0.00    +0.000 HD
BRANCH  26  28
ATOM     28  C   UNL     1      -1.757  12.244  23.134  0.00  0.00    +0.000 C 
ATOM     29  C   UNL     1      -1.805  12.709  21.679  0.00  0.00    +0.000 C 
ATOM     30  C   UNL     1      -3.172  12.105  23.692  0.00  0.00    +0.000 C 
ENDBRANCH  26  28
ENDBRANCH  25  26
ENDBRANCH  22  25
ENDBRANCH  21  22
ENDBRANCH   7  21
TORSDOF 9
ENDMDL
MODEL 7
REMARK VINA RESULT:      -6.5      1.580      2.308
REMARK  Name = 
REMARK  12 active torsions:
REMARK  status: ('A' for Active; 'I' for Inactive)
REMARK    1  A    between atoms: C_1  and  C_2
REMARK    2  A    between atoms: C_3  and  C_4
REMARK    3  A    between atoms: C_4  and  C_6
REMARK    4  A    between atoms: N_13  and  C_14
REMARK    5  A    between atoms: N_20  and  C_21
REMARK    6  A    between atoms: C_21  and  C_22
REMARK    7  A    between atoms: C_22  and  O_23
REMARK    8  A    between atoms: C_22  and  C_24
REMARK    9  A    between atoms: C_24  and  N_25
REMARK   10  A    between atoms: N_25  and  C_26
REMARK   11  A    between atoms: C_26  and  C_27
REMARK   12  A    between atoms: C_26  and  C_28
REMARK                            x       y       z     vdW  Elec       q    Type
REMARK                         _______ _______ _______ _____ _____    ______ ____
ROOT
ATOM      1  C   UNL     1       2.030   5.698  20.937  0.00  0.00    +0.000 C 
ATOM      2  C   UNL     1       2.004   6.842  19.965  0.00  0.00    +0.000 A 
ATOM      3  C   UNL     1       2.573   6.841  18.738  0.00  0.00    +0.000 A 
ATOM      4  C   UNL     1       2.207   8.147  18.131  0.00  0.00    +0.000 A 
ATOM      5  O   UNL     1       2.563   8.551  17.028  0.00  0.00    +0.000 OA
ATOM      6  N   UNL     1       1.431   8.825  19.060  0.00  0.00    +0.000 N 
ATOM      7  N   UNL     1       1.382   8.074  20.261  0.00  0.00    +0.000 N 
ENDROOT
BRANCH   6   8
ATOM      8  C   UNL     1       0.994  10.153  18.905  0.00  0.00    +0.000 A 
ATOM      9  C   UNL     1      -0.312  10.385  18.451  0.00  0.00    +0.000 A 
ATOM     10  C   UNL     1      -0.800  11.689  18.328  0.00  0.00    +0.000 A 
ATOM     11  C   UNL     1       0.026  12.770  18.619  0.00  0.00    +0.000 A 
ATOM     12  C   UNL     1       1.344  12.543  19.032  0.00  0.00    +0.000 A 
ATOM     13  C   UNL     1       1.823  11.241  19.181  0.00  0.00    +0.000 A 
ENDBRANCH   6   8
BRANCH   3  14
ATOM     14  C   UNL     1       3.441   5.813  18.103  0.00  0.00    +0.000 C 
ATOM     15  O   UNL     1       2.907   4.921  17.445  0.00  0.00    +0.000 OA
BRANCH  14  16
ATOM     16  C   UNL     1       4.897   5.892  18.274  0.00  0.00    +0.000 A 
ATOM     17  C   UNL     1       5.706   5.342  19.248  0.00  0.00    +0.000 A 
ATOM     18  C   UNL     1       7.072   5.716  19.104  0.00  0.00    +0.000 A 
ATOM     19  C   UNL     1       7.271   6.517  18.004  0.00  0.00    +0.000 A 
ATOM     20  S   UNL     1       5.817   6.808  17.153  0.00  0.00    +0.000 S 
ENDBRANCH  14  16
ENDBRANCH   3  14
BRANCH   7  21
ATOM     21  C   UNL     1       0.292   8.423  21.206  0.00  0.00    +0.000 C 
BRANCH  21  22
ATOM     22  C   UNL     1       0.688   9.006  22.580  0.00  0.00    +0.000 C 
BRANCH  22  23
ATOM     23  O   UNL     1       1.919   9.732  22.559  0.00  0.00    +0.000 OA
ATOM     24  H   UNL     1       2.020  10.174  23.420  0.00  0.00    +0.000 HD
ENDBRANCH  22  23
BRANCH  22  25
ATOM     25  C   UNL     1      -0.339  10.029  23.070  0.00  0.00    +0.000 C 
BRANCH  25  26
ATOM     26  N   UNL     1      -0.732  10.897  21.973  0.00  0.00    +0.000 NA
ATOM     27  H   UNL     1      -1.400  10.401  21.380  0.00  0.00    +0.000 HD
BRANCH  26  28
ATOM     28  C   UNL     1      -1.316  12.161  22.407  0.00  0.00    +0.000 C 
ATOM     29  C   UNL     1      -0.327  13.319  22.281  0.00  0.00    +0.000 C 
ATOM     30  C   UNL     1      -2.532  12.405  21.515  0.00  0.00    +0.000 C 
ENDBRANCH  26  28
ENDBRANCH  25  26
ENDBRANCH  22  25
ENDBRANCH  21  22
ENDBRANCH   7  21
TORSDOF 9
ENDMDL
MODEL 8
REMARK VINA RESULT:      -6.4      3.328      6.170
REMARK  Name = 
REMARK  12 active torsions:
REMARK  status: ('A' for Active; 'I' for Inactive)
REMARK    1  A    between atoms: C_1  and  C_2
REMARK    2  A    between atoms: C_3  and  C_4
REMARK    3  A    between atoms: C_4  and  C_6
REMARK    4  A    between atoms: N_13  and  C_14
REMARK    5  A    between atoms: N_20  and  C_21
REMARK    6  A    between atoms: C_21  and  C_22
REMARK    7  A    between atoms: C_22  and  O_23
REMARK    8  A    between atoms: C_22  and  C_24
REMARK    9  A    between atoms: C_24  and  N_25
REMARK   10  A    between atoms: N_25  and  C_26
REMARK   11  A    between atoms: C_26  and  C_27
REMARK   12  A    between atoms: C_26  and  C_28
REMARK                            x       y       z     vdW  Elec       q    Type
REMARK                         _______ _______ _______ _____ _____    ______ ____
ROOT
ATOM      1  C   UNL     1       4.587   7.273  15.865  0.00  0.00    +0.000 C 
ATOM      2  C   UNL     1       4.514   6.141  16.850  0.00  0.00    +0.000 A 
ATOM      3  C   UNL     1       5.516   5.274  17.123  0.00  0.00    +0.000 A 
ATOM      4  C   UNL     1       4.998   4.403  18.211  0.00  0.00    +0.000 A 
ATOM      5  O   UNL     1       5.596   3.459  18.718  0.00  0.00    +0.000 OA
ATOM      6  N   UNL     1       3.714   4.837  18.505  0.00  0.00    +0.000 N 
ATOM      7  N   UNL     1       3.346   5.854  17.588  0.00  0.00    +0.000 N 
ENDROOT
BRANCH   6   8
ATOM      8  C   UNL     1       2.845   4.184  19.397  0.00  0.00    +0.000 A 
ATOM      9  C   UNL     1       1.875   3.314  18.880  0.00  0.00    +0.000 A 
ATOM     10  C   UNL     1       1.022   2.612  19.736  0.00  0.00    +0.000 A 
ATOM     11  C   UNL     1       1.106   2.804  21.111  0.00  0.00    +0.000 A 
ATOM     12  C   UNL     1       2.045   3.704  21.629  0.00  0.00    +0.000 A 
ATOM     13  C   UNL     1       2.914   4.385  20.777  0.00  0.00    +0.000 A 
ENDBRANCH   6   8
BRANCH   3  14
ATOM     14  C   UNL     1       6.844   5.132  16.468  0.00  0.00    +0.000 C 
ATOM     15  O   UNL     1       7.854   5.302  17.149  0.00  0.00    +0.000 OA
BRANCH  14  16
ATOM     16  C   UNL     1       6.912   4.794  15.041  0.00  0.00    +0.000 A 
ATOM     17  C   UNL     1       7.731   5.297  14.049  0.00  0.00    +0.000 A 
ATOM     18  C   UNL     1       7.434   4.758  12.766  0.00  0.00    +0.000 A 
ATOM     19  C   UNL     1       6.415   3.836  12.820  0.00  0.00    +0.000 A 
ATOM     20  S   UNL     1       5.829   3.622  14.412  0.00  0.00    +0.000 S 
ENDBRANCH  14  16
ENDBRANCH   3  14
BRANCH   7  21
ATOM     21  C   UNL     1       2.199   6.708  17.986  0.00  0.00    +0.000 C 
BRANCH  21  22
ATOM     22  C   UNL     1       2.498   8.159  18.422  0.00  0.00    +0.000 C 
BRANCH  22  23
ATOM     23  O   UNL     1       2.281   9.122  17.387  0.00  0.00    +0.000 OA
ATOM     24  H   UNL     1       1.838   9.892  17.783  0.00  0.00    +0.000 HD
ENDBRANCH  22  23
BRANCH  22  25
ATOM     25  C   UNL     1       1.565   8.608  19.549  0.00  0.00    +0.000 C 
BRANCH  25  26
ATOM     26  N   UNL     1       1.093   9.958  19.289  0.00  0.00    +0.000 NA
ATOM     27  H   UNL     1       1.288  10.196  18.315  0.00  0.00    +0.000 HD
BRANCH  26  28
ATOM     28  C   UNL     1      -0.328  10.142  19.557  0.00  0.00    +0.000 C 
ATOM     29  C   UNL     1      -0.595  11.405  20.377  0.00  0.00    +0.000 C 
ATOM     30  C   UNL     1      -1.016  10.240  18.197  0.00  0.00    +0.000 C 
ENDBRANCH  26  28
ENDBRANCH  25  26
ENDBRANCH  22  25
ENDBRANCH  21  22
ENDBRANCH   7  21
TORSDOF 9
ENDMDL
MODEL 9
REMARK VINA RESULT:      -6.4      3.290      6.084
REMARK  Name = 
REMARK  12 active torsions:
REMARK  status: ('A' for Active; 'I' for Inactive)
REMARK    1  A    between atoms: C_1  and  C_2
REMARK    2  A    between atoms: C_3  and  C_4
REMARK    3  A    between atoms: C_4  and  C_6
REMARK    4  A    between atoms: N_13  and  C_14
REMARK    5  A    between atoms: N_20  and  C_21
REMARK    6  A    between atoms: C_21  and  C_22
REMARK    7  A    between atoms: C_22  and  O_23
REMARK    8  A    between atoms: C_22  and  C_24
REMARK    9  A    between atoms: C_24  and  N_25
REMARK   10  A    between atoms: N_25  and  C_26
REMARK   11  A    between atoms: C_26  and  C_27
REMARK   12  A    between atoms: C_26  and  C_28
REMARK                            x       y       z     vdW  Elec       q    Type
REMARK                         _______ _______ _______ _____ _____    ______ ____
ROOT
ATOM      1  C   UNL     1       4.493   7.300  16.005  0.00  0.00    +0.000 C 
ATOM      2  C   UNL     1       4.454   6.155  16.976  0.00  0.00    +0.000 A 
ATOM      3  C   UNL     1       5.480   5.312  17.235  0.00  0.00    +0.000 A 
ATOM      4  C   UNL     1       4.990   4.414  18.314  0.00  0.00    +0.000 A 
ATOM      5  O   UNL     1       5.614   3.480  18.807  0.00  0.00    +0.000 OA
ATOM      6  N   UNL     1       3.695   4.808  18.617  0.00  0.00    +0.000 N 
ATOM      7  N   UNL     1       3.296   5.827  17.714  0.00  0.00    +0.000 N 
ENDROOT
BRANCH   6   8
ATOM      8  C   UNL     1       2.847   4.121  19.503  0.00  0.00    +0.000 A 
ATOM      9  C   UNL     1       1.892   3.240  18.977  0.00  0.00    +0.000 A 
ATOM     10  C   UNL     1       1.062   2.503  19.826  0.00  0.00    +0.000 A 
ATOM     11  C   UNL     1       1.151   2.673  21.204  0.00  0.00    +0.000 A 
ATOM     12  C   UNL     1       2.074   3.584  21.731  0.00  0.00    +0.000 A 
ATOM     13  C   UNL     1       2.922   4.299  20.886  0.00  0.00    +0.000 A 
ENDBRANCH   6   8
BRANCH   3  14
ATOM     14  C   UNL     1       6.809   5.215  16.575  0.00  0.00    +0.000 C 
ATOM     15  O   UNL     1       7.814   5.455  17.242  0.00  0.00    +0.000 OA
BRANCH  14  16
ATOM     16  C   UNL     1       6.885   4.835  15.159  0.00  0.00    +0.000 A 
ATOM     17  C   UNL     1       7.698   5.319  14.154  0.00  0.00    +0.000 A 
ATOM     18  C   UNL     1       7.412   4.738  12.886  0.00  0.00    +0.000 A 
ATOM     19  C   UNL     1       6.406   3.803  12.967  0.00  0.00    +0.000 A 
ATOM     20  S   UNL     1       5.820   3.629  14.563  0.00  0.00    +0.000 S 
ENDBRANCH  14  16
ENDBRANCH   3  14
BRANCH   7  21
ATOM     21  C   UNL     1       2.128   6.644  18.126  0.00  0.00    +0.000 C 
BRANCH  21  22
ATOM     22  C   UNL     1       2.399   7.941  18.918  0.00  0.00    +0.000 C 
BRANCH  22  23
ATOM     23  O   UNL     1       1.794   9.101  18.339  0.00  0.00    +0.000 OA
ATOM     24  H   UNL     1       1.213   8.806  17.617  0.00  0.00    +0.000 HD
ENDBRANCH  22  23
BRANCH  22  25
ATOM     25  C   UNL     1       1.801   7.873  20.325  0.00  0.00    +0.000 C 
BRANCH  25  26
ATOM     26  N   UNL     1       0.718   8.834  20.447  0.00  0.00    +0.000 NA
ATOM     27  H   UNL     1      -0.165   8.329  20.541  0.00  0.00    +0.000 HD
BRANCH  26  28
ATOM     28  C   UNL     1       0.873   9.750  21.571  0.00  0.00    +0.000 C 
ATOM     29  C   UNL     1       0.678  11.207  21.150  0.00  0.00    +0.000 C 
ATOM     30  C   UNL     1      -0.181   9.353  22.602  0.00  0.00    +0.000 C 
ENDBRANCH  26  28
ENDBRANCH  25  26
ENDBRANCH  22  25
ENDBRANCH  21  22
ENDBRANCH   7  21
TORSDOF 9
ENDMDL
