MODEL 1
REMARK VINA RESULT:      -7.1      0.000      0.000
REMARK  Name = 
REMARK  6 active torsions:
REMARK  status: ('A' for Active; 'I' for Inactive)
REMARK    1  A    between atoms: C_1  and  O_2
REMARK    2  A    between atoms: O_2  and  C_3
REMARK    3  A    between atoms: C_7  and  C_8
REMARK    4  A    between atoms: N_10  and  N_11
REMARK    5  A    between atoms: C_12  and  C_13
REMARK    6  A    between atoms: C_16  and  N_17
REMARK                            x       y       z     vdW  Elec       q    Type
REMARK                         _______ _______ _______ _____ _____    ______ ____
ROOT
ATOM      1  C   UNL     1       1.630   9.327  18.426  0.00  0.00    +0.000 C 
ATOM      2  O   UNL     1       2.043   9.836  17.387  0.00  0.00    +0.000 OA
ATOM      3  N   UNL     1       1.964   8.046  18.864  0.00  0.00    +0.000 N 
ATOM      4  H   UNL     1       1.686   7.707  19.776  0.00  0.00    +0.000 HD
ENDROOT
BRANCH   1   9
ATOM      5  C   UNL     1      -0.099  10.815  21.482  0.00  0.00    +0.000 A 
ATOM      6  C   UNL     1      -1.083  11.589  20.861  0.00  0.00    +0.000 A 
ATOM      7  C   UNL     1      -1.179  11.629  19.472  0.00  0.00    +0.000 A 
ATOM      8  C   UNL     1      -0.283  10.894  18.696  0.00  0.00    +0.000 A 
ATOM      9  C   UNL     1       0.724  10.129  19.303  0.00  0.00    +0.000 A 
ATOM     10  C   UNL     1       0.808  10.087  20.701  0.00  0.00    +0.000 A 
BRANCH   5  12
ATOM     11  C   UNL     1      -0.103   9.573  23.511  0.00  0.00    +0.000 C 
ATOM     12  O   UNL     1      -0.141  10.833  22.850  0.00  0.00    +0.000 OA
ENDBRANCH   5  12
ENDBRANCH   1   9
BRANCH   3  13
ATOM     13  N   UNL     1       2.815   7.297  18.094  0.00  0.00    +0.000 NA
ATOM     14  C   UNL     1       3.106   6.099  18.497  0.00  0.00    +0.000 C 
BRANCH  14  15
ATOM     15  C   UNL     1       4.005   5.290  17.716  0.00  0.00    +0.000 A 
ATOM     16  C   UNL     1       3.810   4.084  17.059  0.00  0.00    +0.000 A 
ATOM     17  C   UNL     1       5.037   3.733  16.449  0.00  0.00    +0.000 A 
ATOM     18  C   UNL     1       5.908   4.744  16.777  0.00  0.00    +0.000 A 
ATOM     19  O   UNL     1       5.305   5.702  17.541  0.00  0.00    +0.000 OA
BRANCH  18  20
ATOM     20  N   UNL     1       7.289   4.935  16.461  0.00  0.00    +0.000 N 
ATOM     21  O   UNL     1       7.545   5.822  15.635  0.00  0.00    +0.000 OA
ATOM     22  O   UNL     1       8.117   4.211  17.025  0.00  0.00    +0.000 OA
ENDBRANCH  18  20
ENDBRANCH  14  15
ENDBRANCH   3  13
TORSDOF 5
ENDMDL
MODEL 2
REMARK VINA RESULT:      -6.9      6.301      8.704
REMARK  Name = 
REMARK  6 active torsions:
REMARK  status: ('A' for Active; 'I' for Inactive)
REMARK    1  A    between atoms: C_1  and  O_2
REMARK    2  A    between atoms: O_2  and  C_3
REMARK    3  A    between atoms: C_7  and  C_8
REMARK    4  A    between atoms: N_10  and  N_11
REMARK    5  A    between atoms: C_12  and  C_13
REMARK    6  A    between atoms: C_16  and  N_17
REMARK                            x       y       z     vdW  Elec       q    Type
REMARK                         _______ _______ _______ _____ _____    ______ ____
ROOT
ATOM      1  C   UNL     1       7.462   6.412  18.314  0.00  0.00    +0.000 C 
ATOM      2  O   UNL     1       8.043   5.970  19.301  0.00  0.00    +0.000 OA
ATOM      3  N   UNL     1       7.671   7.683  17.778  0.00  0.00    +0.000 N 
ATOM      4  H   UNL     1       7.249   7.966  16.903  0.00  0.00    +0.000 HD
ENDROOT
BRANCH   1   9
ATOM      5  C   UNL     1       4.697   3.882  17.611  0.00  0.00    +0.000 A 
ATOM      6  C   UNL     1       4.737   3.850  16.214  0.00  0.00    +0.000 A 
ATOM      7  C   UNL     1       5.645   4.640  15.514  0.00  0.00    +0.000 A 
ATOM      8  C   UNL     1       6.518   5.474  16.213  0.00  0.00    +0.000 A 
ATOM      9  C   UNL     1       6.476   5.535  17.614  0.00  0.00    +0.000 A 
ATOM     10  C   UNL     1       5.565   4.729  18.311  0.00  0.00    +0.000 A 
BRANCH   5  12
ATOM     11  C   UNL     1       4.116   2.486  19.448  0.00  0.00    +0.000 C 
ATOM     12  O   UNL     1       3.787   3.028  18.174  0.00  0.00    +0.000 OA
ENDBRANCH   5  12
ENDBRANCH   1   9
BRANCH   3  13
ATOM     13  N   UNL     1       8.591   8.500  18.383  0.00  0.00    +0.000 NA
ATOM     14  C   UNL     1       8.440   9.782  18.258  0.00  0.00    +0.000 C 
BRANCH  14  15
ATOM     15  C   UNL     1       9.394  10.668  18.873  0.00  0.00    +0.000 A 
ATOM     16  C   UNL     1       9.688  10.908  20.206  0.00  0.00    +0.000 A 
ATOM     17  C   UNL     1      10.713  11.884  20.243  0.00  0.00    +0.000 A 
ATOM     18  C   UNL     1      10.977  12.182  18.928  0.00  0.00    +0.000 A 
ATOM     19  O   UNL     1      10.194  11.456  18.078  0.00  0.00    +0.000 OA
BRANCH  18  20
ATOM     20  N   UNL     1      11.901  13.101  18.340  0.00  0.00    +0.000 N 
ATOM     21  O   UNL     1      12.251  14.055  19.048  0.00  0.00    +0.000 OA
ATOM     22  O   UNL     1      12.276  12.883  17.182  0.00  0.00    +0.000 OA
ENDBRANCH  18  20
ENDBRANCH  14  15
ENDBRANCH   3  13
TORSDOF 5
ENDMDL
MODEL 3
REMARK VINA RESULT:      -6.8      5.767      8.526
REMARK  Name = 
REMARK  6 active torsions:
REMARK  status: ('A' for Active; 'I' for Inactive)
REMARK    1  A    between atoms: C_1  and  O_2
REMARK    2  A    between atoms: O_2  and  C_3
REMARK    3  A    between atoms: C_7  and  C_8
REMARK    4  A    between atoms: N_10  and  N_11
REMARK    5  A    between atoms: C_12  and  C_13
REMARK    6  A    between atoms: C_16  and  N_17
REMARK                            x       y       z     vdW  Elec       q    Type
REMARK                         _______ _______ _______ _____ _____    ______ ____
ROOT
ATOM      1  C   UNL     1       7.391   6.602  18.082  0.00  0.00    +0.000 C 
ATOM      2  O   UNL     1       8.039   6.168  19.031  0.00  0.00    +0.000 OA
ATOM      3  N   UNL     1       7.585   7.856  17.502  0.00  0.00    +0.000 N 
ATOM      4  H   UNL     1       7.101   8.130  16.657  0.00  0.00    +0.000 HD
ENDROOT
BRANCH   1   9
ATOM      5  C   UNL     1       4.284   4.440  17.623  0.00  0.00    +0.000 A 
ATOM      6  C   UNL     1       4.461   4.025  16.300  0.00  0.00    +0.000 A 
ATOM      7  C   UNL     1       5.570   4.446  15.569  0.00  0.00    +0.000 A 
ATOM      8  C   UNL     1       6.508   5.291  16.163  0.00  0.00    +0.000 A 
ATOM      9  C   UNL     1       6.334   5.733  17.482  0.00  0.00    +0.000 A 
ATOM     10  C   UNL     1       5.220   5.298  18.213  0.00  0.00    +0.000 A 
BRANCH   5  12
ATOM     11  C   UNL     1       1.911   4.395  17.787  0.00  0.00    +0.000 C 
ATOM     12  O   UNL     1       3.175   3.923  18.237  0.00  0.00    +0.000 OA
ENDBRANCH   5  12
ENDBRANCH   1   9
BRANCH   3  13
ATOM     13  N   UNL     1       8.567   8.664  18.014  0.00  0.00    +0.000 NA
ATOM     14  C   UNL     1       8.313   9.931  18.127  0.00  0.00    +0.000 C 
BRANCH  14  15
ATOM     15  C   UNL     1       9.327  10.809  18.652  0.00  0.00    +0.000 A 
ATOM     16  C   UNL     1       9.830  10.957  19.936  0.00  0.00    +0.000 A 
ATOM     17  C   UNL     1      10.815  11.972  19.889  0.00  0.00    +0.000 A 
ATOM     18  C   UNL     1      10.847  12.386  18.579  0.00  0.00    +0.000 A 
ATOM     19  O   UNL     1       9.957  11.693  17.809  0.00  0.00    +0.000 OA
BRANCH  18  20
ATOM     20  N   UNL     1      11.629  13.390  17.929  0.00  0.00    +0.000 N 
ATOM     21  O   UNL     1      12.228  13.041  16.903  0.00  0.00    +0.000 OA
ATOM     22  O   UNL     1      11.653  14.520  18.432  0.00  0.00    +0.000 OA
ENDBRANCH  18  20
ENDBRANCH  14  15
ENDBRANCH   3  13
TORSDOF 5
ENDMDL
MODEL 4
REMARK VINA RESULT:      -6.8      6.295      9.442
REMARK  Name = 
REMARK  6 active torsions:
REMARK  status: ('A' for Active; 'I' for Inactive)
REMARK    1  A    between atoms: C_1  and  O_2
REMARK    2  A    between atoms: O_2  and  C_3
REMARK    3  A    between atoms: C_7  and  C_8
REMARK    4  A    between atoms: N_10  and  N_11
REMARK    5  A    between atoms: C_12  and  C_13
REMARK    6  A    between atoms: C_16  and  N_17
REMARK                            x       y       z     vdW  Elec       q    Type
REMARK                         _______ _______ _______ _____ _____    ______ ____
ROOT
ATOM      1  C   UNL     1       7.360   6.497  17.863  0.00  0.00    +0.000 C 
ATOM      2  O   UNL     1       7.592   6.072  18.992  0.00  0.00    +0.000 OA
ATOM      3  N   UNL     1       7.709   7.770  17.412  0.00  0.00    +0.000 N 
ATOM      4  H   UNL     1       7.592   8.040  16.444  0.00  0.00    +0.000 HD
ENDROOT
BRANCH   1   9
ATOM      5  C   UNL     1       6.467   4.570  14.696  0.00  0.00    +0.000 A 
ATOM      6  C   UNL     1       5.272   3.967  15.098  0.00  0.00    +0.000 A 
ATOM      7  C   UNL     1       4.768   4.181  16.379  0.00  0.00    +0.000 A 
ATOM      8  C   UNL     1       5.465   4.999  17.268  0.00  0.00    +0.000 A 
ATOM      9  C   UNL     1       6.677   5.594  16.887  0.00  0.00    +0.000 A 
ATOM     10  C   UNL     1       7.172   5.382  15.593  0.00  0.00    +0.000 A 
BRANCH   5  12
ATOM     11  C   UNL     1       5.989   3.426  12.666  0.00  0.00    +0.000 C 
ATOM     12  O   UNL     1       6.827   4.310  13.401  0.00  0.00    +0.000 OA
ENDBRANCH   5  12
ENDBRANCH   1   9
BRANCH   3  13
ATOM     13  N   UNL     1       8.361   8.610  18.277  0.00  0.00    +0.000 NA
ATOM     14  C   UNL     1       8.555   9.836  17.902  0.00  0.00    +0.000 C 
BRANCH  14  15
ATOM     15  C   UNL     1       9.247  10.742  18.784  0.00  0.00    +0.000 A 
ATOM     16  C   UNL     1       9.596  10.625  20.120  0.00  0.00    +0.000 A 
ATOM     17  C   UNL     1      10.262  11.818  20.488  0.00  0.00    +0.000 A 
ATOM     18  C   UNL     1      10.272  12.592  19.353  0.00  0.00    +0.000 A 
ATOM     19  O   UNL     1       9.667  11.960  18.305  0.00  0.00    +0.000 OA
BRANCH  18  20
ATOM     20  N   UNL     1      10.791  13.903  19.113  0.00  0.00    +0.000 N 
ATOM     21  O   UNL     1      11.487  14.390  20.014  0.00  0.00    +0.000 OA
ATOM     22  O   UNL     1      10.510  14.449  18.039  0.00  0.00    +0.000 OA
ENDBRANCH  18  20
ENDBRANCH  14  15
ENDBRANCH   3  13
TORSDOF 5
ENDMDL
MODEL 5
REMARK VINA RESULT:      -6.7      2.103      3.195
REMARK  Name = 
REMARK  6 active torsions:
REMARK  status: ('A' for Active; 'I' for Inactive)
REMARK    1  A    between atoms: C_1  and  O_2
REMARK    2  A    between atoms: O_2  and  C_3
REMARK    3  A    between atoms: C_7  and  C_8
REMARK    4  A    between atoms: N_10  and  N_11
REMARK    5  A    between atoms: C_12  and  C_13
REMARK    6  A    between atoms: C_16  and  N_17
REMARK                            x       y       z     vdW  Elec       q    Type
REMARK                         _______ _______ _______ _____ _____    ______ ____
ROOT
ATOM      1  C   UNL     1       1.013   9.429  18.824  0.00  0.00    +0.000 C 
ATOM      2  O   UNL     1       1.382   9.334  19.991  0.00  0.00    +0.000 OA
ATOM      3  N   UNL     1       1.709   8.910  17.732  0.00  0.00    +0.000 N 
ATOM      4  H   UNL     1       1.317   8.920  16.799  0.00  0.00    +0.000 HD
ENDROOT
BRANCH   1   9
ATOM      5  C   UNL     1      -2.367  10.358  17.324  0.00  0.00    +0.000 A 
ATOM      6  C   UNL     1      -2.617  11.559  17.995  0.00  0.00    +0.000 A 
ATOM      7  C   UNL     1      -1.703  12.055  18.922  0.00  0.00    +0.000 A 
ATOM      8  C   UNL     1      -0.532  11.344  19.185  0.00  0.00    +0.000 A 
ATOM      9  C   UNL     1      -0.276  10.127  18.537  0.00  0.00    +0.000 A 
ATOM     10  C   UNL     1      -1.197   9.640  17.599  0.00  0.00    +0.000 A 
BRANCH   5  12
ATOM     11  C   UNL     1      -3.772  11.023  15.524  0.00  0.00    +0.000 C 
ATOM     12  O   UNL     1      -3.326  10.006  16.413  0.00  0.00    +0.000 OA
ENDBRANCH   5  12
ENDBRANCH   1   9
BRANCH   3  13
ATOM     13  N   UNL     1       2.882   8.241  17.967  0.00  0.00    +0.000 NA
ATOM     14  C   UNL     1       2.847   6.945  17.997  0.00  0.00    +0.000 C 
BRANCH  14  15
ATOM     15  C   UNL     1       4.060   6.211  18.252  0.00  0.00    +0.000 A 
ATOM     16  C   UNL     1       4.422   5.385  19.305  0.00  0.00    +0.000 A 
ATOM     17  C   UNL     1       5.736   4.926  19.049  0.00  0.00    +0.000 A 
ATOM     18  C   UNL     1       6.096   5.507  17.857  0.00  0.00    +0.000 A 
ATOM     19  O   UNL     1       5.096   6.286  17.352  0.00  0.00    +0.000 OA
BRANCH  18  20
ATOM     20  N   UNL     1       7.308   5.428  17.101  0.00  0.00    +0.000 N 
ATOM     21  O   UNL     1       7.600   6.425  16.429  0.00  0.00    +0.000 OA
ATOM     22  O   UNL     1       7.966   4.383  17.171  0.00  0.00    +0.000 OA
ENDBRANCH  18  20
ENDBRANCH  14  15
ENDBRANCH   3  13
TORSDOF 5
ENDMDL
MODEL 6
REMARK VINA RESULT:      -6.7      2.019      2.839
REMARK  Name = 
REMARK  6 active torsions:
REMARK  status: ('A' for Active; 'I' for Inactive)
REMARK    1  A    between atoms: C_1  and  O_2
REMARK    2  A    between atoms: O_2  and  C_3
REMARK    3  A    between atoms: C_7  and  C_8
REMARK    4  A    between atoms: N_10  and  N_11
REMARK    5  A    between atoms: C_12  and  C_13
REMARK    6  A    between atoms: C_16  and  N_17
REMARK                            x       y       z     vdW  Elec       q    Type
REMARK                         _______ _______ _______ _____ _____    ______ ____
ROOT
ATOM      1  C   UNL     1       2.148   7.319  19.594  0.00  0.00    +0.000 C 
ATOM      2  O   UNL     1       2.165   6.243  20.186  0.00  0.00    +0.000 OA
ATOM      3  N   UNL     1       2.778   7.557  18.373  0.00  0.00    +0.000 N 
ATOM      4  H   UNL     1       2.650   8.427  17.870  0.00  0.00    +0.000 HD
ENDROOT
BRANCH   1   9
ATOM      5  C   UNL     1       0.305  10.624  20.065  0.00  0.00    +0.000 A 
ATOM      6  C   UNL     1       0.056  10.578  21.440  0.00  0.00    +0.000 A 
ATOM      7  C   UNL     1       0.478   9.489  22.199  0.00  0.00    +0.000 A 
ATOM      8  C   UNL     1       1.149   8.434  21.580  0.00  0.00    +0.000 A 
ATOM      9  C   UNL     1       1.387   8.454  20.198  0.00  0.00    +0.000 A 
ATOM     10  C   UNL     1       0.968   9.559  19.443  0.00  0.00    +0.000 A 
BRANCH   5  12
ATOM     11  C   UNL     1      -1.364  11.694  18.751  0.00  0.00    +0.000 C 
ATOM     12  O   UNL     1      -0.125  11.767  19.448  0.00  0.00    +0.000 OA
ENDBRANCH   5  12
ENDBRANCH   1   9
BRANCH   3  13
ATOM     13  N   UNL     1       3.461   6.527  17.781  0.00  0.00    +0.000 NA
ATOM     14  C   UNL     1       4.388   6.824  16.925  0.00  0.00    +0.000 C 
BRANCH  14  15
ATOM     15  C   UNL     1       5.117   5.764  16.277  0.00  0.00    +0.000 A 
ATOM     16  C   UNL     1       5.265   4.425  16.607  0.00  0.00    +0.000 A 
ATOM     17  C   UNL     1       6.095   3.837  15.624  0.00  0.00    +0.000 A 
ATOM     18  C   UNL     1       6.408   4.857  14.757  0.00  0.00    +0.000 A 
ATOM     19  O   UNL     1       5.824   6.033  15.130  0.00  0.00    +0.000 OA
BRANCH  18  20
ATOM     20  N   UNL     1       7.221   4.875  13.581  0.00  0.00    +0.000 N 
ATOM     21  O   UNL     1       6.870   4.127  12.660  0.00  0.00    +0.000 OA
ATOM     22  O   UNL     1       8.204   5.626  13.569  0.00  0.00    +0.000 OA
ENDBRANCH  18  20
ENDBRANCH  14  15
ENDBRANCH   3  13
TORSDOF 5
ENDMDL
MODEL 7
REMARK VINA RESULT:      -6.7      5.741      7.538
REMARK  Name = 
REMARK  6 active torsions:
REMARK  status: ('A' for Active; 'I' for Inactive)
REMARK    1  A    between atoms: C_1  and  O_2
REMARK    2  A    between atoms: O_2  and  C_3
REMARK    3  A    between atoms: C_7  and  C_8
REMARK    4  A    between atoms: N_10  and  N_11
REMARK    5  A    between atoms: C_12  and  C_13
REMARK    6  A    between atoms: C_16  and  N_17
REMARK                            x       y       z     vdW  Elec       q    Type
REMARK                         _______ _______ _______ _____ _____    ______ ____
ROOT
ATOM      1  C   UNL     1       8.508   8.790  18.389  0.00  0.00    +0.000 C 
ATOM      2  O   UNL     1       8.796   7.834  19.104  0.00  0.00    +0.000 OA
ATOM      3  N   UNL     1       7.715   8.708  17.244  0.00  0.00    +0.000 N 
ATOM      4  H   UNL     1       7.416   9.536  16.745  0.00  0.00    +0.000 HD
ENDROOT
BRANCH   1   9
ATOM      5  C   UNL     1       9.751  12.390  18.218  0.00  0.00    +0.000 A 
ATOM      6  C   UNL     1      10.060  12.613  19.563  0.00  0.00    +0.000 A 
ATOM      7  C   UNL     1       9.862  11.610  20.509  0.00  0.00    +0.000 A 
ATOM      8  C   UNL     1       9.349  10.376  20.110  0.00  0.00    +0.000 A 
ATOM      9  C   UNL     1       9.014  10.144  18.768  0.00  0.00    +0.000 A 
ATOM     10  C   UNL     1       9.224  11.155  17.821  0.00  0.00    +0.000 A 
BRANCH   5  12
ATOM     11  C   UNL     1      11.337  13.491  16.827  0.00  0.00    +0.000 C 
ATOM     12  O   UNL     1      10.030  13.444  17.389  0.00  0.00    +0.000 OA
ENDBRANCH   5  12
ENDBRANCH   1   9
BRANCH   3  13
ATOM     13  N   UNL     1       7.214   7.483  16.887  0.00  0.00    +0.000 NA
ATOM     14  C   UNL     1       6.067   7.129  17.378  0.00  0.00    +0.000 C 
BRANCH  14  15
ATOM     15  C   UNL     1       5.517   5.844  17.030  0.00  0.00    +0.000 A 
ATOM     16  C   UNL     1       5.392   5.207  15.805  0.00  0.00    +0.000 A 
ATOM     17  C   UNL     1       4.772   3.957  16.041  0.00  0.00    +0.000 A 
ATOM     18  C   UNL     1       4.552   3.911  17.397  0.00  0.00    +0.000 A 
ATOM     19  O   UNL     1       4.999   5.041  18.019  0.00  0.00    +0.000 OA
BRANCH  18  20
ATOM     20  N   UNL     1       3.948   2.909  18.218  0.00  0.00    +0.000 N 
ATOM     21  O   UNL     1       3.079   2.211  17.681  0.00  0.00    +0.000 OA
ATOM     22  O   UNL     1       4.331   2.814  19.391  0.00  0.00    +0.000 OA
ENDBRANCH  18  20
ENDBRANCH  14  15
ENDBRANCH   3  13
TORSDOF 5
ENDMDL
MODEL 8
REMARK VINA RESULT:      -6.7      2.582      8.821
REMARK  Name = 
REMARK  6 active torsions:
REMARK  status: ('A' for Active; 'I' for Inactive)
REMARK    1  A    between atoms: C_1  and  O_2
REMARK    2  A    between atoms: O_2  and  C_3
REMARK    3  A    between atoms: C_7  and  C_8
REMARK    4  A    between atoms: N_10  and  N_11
REMARK    5  A    between atoms: C_12  and  C_13
REMARK    6  A    between atoms: C_16  and  N_17
REMARK                            x       y       z     vdW  Elec       q    Type
REMARK                         _______ _______ _______ _____ _____    ______ ____
ROOT
ATOM      1  C   UNL     1       3.460   6.520  18.135  0.00  0.00    +0.000 C 
ATOM      2  O   UNL     1       2.695   5.798  18.769  0.00  0.00    +0.000 OA
ATOM      3  N   UNL     1       3.128   7.782  17.642  0.00  0.00    +0.000 N 
ATOM      4  H   UNL     1       3.821   8.385  17.218  0.00  0.00    +0.000 HD
ENDROOT
BRANCH   1   9
ATOM      5  C   UNL     1       6.735   5.582  16.421  0.00  0.00    +0.000 A 
ATOM      6  C   UNL     1       7.428   5.018  17.496  0.00  0.00    +0.000 A 
ATOM      7  C   UNL     1       6.840   4.948  18.757  0.00  0.00    +0.000 A 
ATOM      8  C   UNL     1       5.553   5.449  18.948  0.00  0.00    +0.000 A 
ATOM      9  C   UNL     1       4.852   6.038  17.885  0.00  0.00    +0.000 A 
ATOM     10  C   UNL     1       5.447   6.096  16.617  0.00  0.00    +0.000 A 
BRANCH   5  12
ATOM     11  C   UNL     1       6.852   4.751  14.195  0.00  0.00    +0.000 C 
ATOM     12  O   UNL     1       7.410   5.552  15.230  0.00  0.00    +0.000 OA
ENDBRANCH   5  12
ENDBRANCH   1   9
BRANCH   3  13
ATOM     13  N   UNL     1       1.867   8.261  17.880  0.00  0.00    +0.000 NA
ATOM     14  C   UNL     1       1.739   9.520  18.167  0.00  0.00    +0.000 C 
BRANCH  14  15
ATOM     15  C   UNL     1       0.428  10.054  18.433  0.00  0.00    +0.000 A 
ATOM     16  C   UNL     1      -0.042  10.845  19.470  0.00  0.00    +0.000 A 
ATOM     17  C   UNL     1      -1.418  11.074  19.236  0.00  0.00    +0.000 A 
ATOM     18  C   UNL     1      -1.704  10.403  18.071  0.00  0.00    +0.000 A 
ATOM     19  O   UNL     1      -0.601   9.780  17.563  0.00  0.00    +0.000 OA
BRANCH  18  20
ATOM     20  N   UNL     1      -2.928  10.258  17.347  0.00  0.00    +0.000 N 
ATOM     21  O   UNL     1      -3.908  10.865  17.798  0.00  0.00    +0.000 OA
ATOM     22  O   UNL     1      -2.921   9.544  16.336  0.00  0.00    +0.000 OA
ENDBRANCH  18  20
ENDBRANCH  14  15
ENDBRANCH   3  13
TORSDOF 5
ENDMDL
MODEL 9
REMARK VINA RESULT:      -6.6      6.320      8.112
REMARK  Name = 
REMARK  6 active torsions:
REMARK  status: ('A' for Active; 'I' for Inactive)
REMARK    1  A    between atoms: C_1  and  O_2
REMARK    2  A    between atoms: O_2  and  C_3
REMARK    3  A    between atoms: C_7  and  C_8
REMARK    4  A    between atoms: N_10  and  N_11
REMARK    5  A    between atoms: C_12  and  C_13
REMARK    6  A    between atoms: C_16  and  N_17
REMARK                            x       y       z     vdW  Elec       q    Type
REMARK                         _______ _______ _______ _____ _____    ______ ____
ROOT
ATOM      1  C   UNL     1       8.524   9.808  18.296  0.00  0.00    +0.000 C 
ATOM      2  O   UNL     1       7.687  10.184  17.480  0.00  0.00    +0.000 OA
ATOM      3  N   UNL     1       8.657   8.492  18.740  0.00  0.00    +0.000 N 
ATOM      4  H   UNL     1       9.426   8.207  19.332  0.00  0.00    +0.000 HD
ENDROOT
BRANCH   1   9
ATOM      5  C   UNL     1      11.296  12.409  18.593  0.00  0.00    +0.000 A 
ATOM      6  C   UNL     1      11.322  12.590  19.979  0.00  0.00    +0.000 A 
ATOM      7  C   UNL     1      10.450  11.880  20.801  0.00  0.00    +0.000 A 
ATOM      8  C   UNL     1       9.541  10.986  20.235  0.00  0.00    +0.000 A 
ATOM      9  C   UNL     1       9.487  10.810  18.845  0.00  0.00    +0.000 A 
ATOM     10  C   UNL     1      10.374  11.520  18.025  0.00  0.00    +0.000 A 
BRANCH   5  12
ATOM     11  C   UNL     1      11.794  14.360  17.327  0.00  0.00    +0.000 C 
ATOM     12  O   UNL     1      12.231  13.136  17.907  0.00  0.00    +0.000 OA
ENDBRANCH   5  12
ENDBRANCH   1   9
BRANCH   3  13
ATOM     13  N   UNL     1       7.805   7.545  18.233  0.00  0.00    +0.000 NA
ATOM     14  C   UNL     1       7.596   6.477  18.937  0.00  0.00    +0.000 C 
BRANCH  14  15
ATOM     15  C   UNL     1       6.714   5.458  18.428  0.00  0.00    +0.000 A 
ATOM     16  C   UNL     1       6.456   5.040  17.131  0.00  0.00    +0.000 A 
ATOM     17  C   UNL     1       5.496   4.002  17.206  0.00  0.00    +0.000 A 
ATOM     18  C   UNL     1       5.224   3.856  18.545  0.00  0.00    +0.000 A 
ATOM     19  O   UNL     1       5.952   4.724  19.306  0.00  0.00    +0.000 OA
BRANCH  18  20
ATOM     20  N   UNL     1       4.328   2.978  19.232  0.00  0.00    +0.000 N 
ATOM     21  O   UNL     1       4.849   2.062  19.882  0.00  0.00    +0.000 OA
ATOM     22  O   UNL     1       3.114   3.191  19.126  0.00  0.00    +0.000 OA
ENDBRANCH  18  20
ENDBRANCH  14  15
ENDBRANCH   3  13
TORSDOF 5
ENDMDL
