MODEL 1
REMARK VINA RESULT:      -7.5      0.000      0.000
REMARK  Name = 
REMARK  8 active torsions:
REMARK  status: ('A' for Active; 'I' for Inactive)
REMARK    1  A    between atoms: N_1  and  C_2
REMARK    2  A    between atoms: C_5  and  C_6
REMARK    3  A    between atoms: C_9  and  C_10
REMARK    4  A    between atoms: C_12  and  C_13
REMARK    5  A    between atoms: C_13  and  O_14
REMARK    6  A    between atoms: C_15  and  O_16
REMARK    7  A    between atoms: C_17  and  O_18
REMARK    8  A    between atoms: C_19  and  O_20
REMARK                            x       y       z     vdW  Elec       q    Type
REMARK                         _______ _______ _______ _____ _____    ______ ____
ROOT
ATOM      1  C   UNL     1       2.995   5.553  18.836  0.00  0.00    +0.000 C 
ATOM      2  O   UNL     1       2.475   4.675  19.846  0.00  0.00    +0.000 OA
ATOM      3  C   UNL     1       2.874   3.311  19.663  0.00  0.00    +0.000 C 
ATOM      4  C   UNL     1       4.408   3.186  19.721  0.00  0.00    +0.000 C 
ATOM      5  C   UNL     1       5.038   4.110  18.664  0.00  0.00    +0.000 C 
ATOM      6  C   UNL     1       4.533   5.552  18.831  0.00  0.00    +0.000 C 
ENDROOT
BRANCH   1  10
ATOM      7  C   UNL     1       1.487   8.636  19.807  0.00  0.00    +0.000 A 
ATOM      8  N   UNL     1       1.792   8.944  18.537  0.00  0.00    +0.000 NA
ATOM      9  O   UNL     1       2.444   7.805  18.068  0.00  0.00    +0.000 OA
ATOM     10  C   UNL     1       2.470   6.920  19.105  0.00  0.00    +0.000 A 
ATOM     11  N   UNL     1       1.929   7.393  20.206  0.00  0.00    +0.000 NA
BRANCH   7  15
ATOM     12  C   UNL     1      -0.850  11.092  22.435  0.00  0.00    +0.000 A 
ATOM     13  C   UNL     1      -0.539  11.529  21.144  0.00  0.00    +0.000 A 
ATOM     14  C   UNL     1       0.249  10.747  20.290  0.00  0.00    +0.000 A 
ATOM     15  C   UNL     1       0.703   9.488  20.698  0.00  0.00    +0.000 A 
ATOM     16  C   UNL     1       0.348   9.029  21.973  0.00  0.00    +0.000 A 
ATOM     17  C   UNL     1      -0.439   9.816  22.821  0.00  0.00    +0.000 A 
BRANCH  12  18
ATOM     18  N   UNL     1      -1.748  11.813  23.227  0.00  0.00    +0.000 N 
ATOM     19  H   UNL     1      -1.576  11.730  24.224  0.00  0.00    +0.000 HD
ATOM     20  H   UNL     1      -2.722  11.655  22.991  0.00  0.00    +0.000 HD
ENDBRANCH  12  18
ENDBRANCH   7  15
ENDBRANCH   1  10
BRANCH   4  21
ATOM     21  O   UNL     1       4.817   1.827  19.538  0.00  0.00    +0.000 OA
ATOM     22  H   UNL     1       4.590   1.322  20.342  0.00  0.00    +0.000 HD
ENDBRANCH   4  21
BRANCH   5  23
ATOM     23  O   UNL     1       6.466   4.052  18.731  0.00  0.00    +0.000 OA
ATOM     24  H   UNL     1       6.792   4.862  19.162  0.00  0.00    +0.000 HD
ENDBRANCH   5  23
BRANCH   6  25
ATOM     25  O   UNL     1       5.065   6.389  17.799  0.00  0.00    +0.000 OA
ATOM     26  H   UNL     1       4.338   6.811  17.309  0.00  0.00    +0.000 HD
ENDBRANCH   6  25
BRANCH   3  27
ATOM     27  C   UNL     1       2.188   2.457  20.742  0.00  0.00    +0.000 C 
BRANCH  27  28
ATOM     28  O   UNL     1       2.917   2.423  21.962  0.00  0.00    +0.000 OA
ATOM     29  H   UNL     1       2.529   1.711  22.513  0.00  0.00    +0.000 HD
ENDBRANCH  27  28
ENDBRANCH   3  27
TORSDOF 8
ENDMDL
MODEL 2
REMARK VINA RESULT:      -7.4      0.126      1.010
REMARK  Name = 
REMARK  8 active torsions:
REMARK  status: ('A' for Active; 'I' for Inactive)
REMARK    1  A    between atoms: N_1  and  C_2
REMARK    2  A    between atoms: C_5  and  C_6
REMARK    3  A    between atoms: C_9  and  C_10
REMARK    4  A    between atoms: C_12  and  C_13
REMARK    5  A    between atoms: C_13  and  O_14
REMARK    6  A    between atoms: C_15  and  O_16
REMARK    7  A    between atoms: C_17  and  O_18
REMARK    8  A    between atoms: C_19  and  O_20
REMARK                            x       y       z     vdW  Elec       q    Type
REMARK                         _______ _______ _______ _____ _____    ______ ____
ROOT
ATOM      1  C   UNL     1       3.019   5.549  18.806  0.00  0.00    +0.000 C 
ATOM      2  O   UNL     1       2.491   4.678  19.817  0.00  0.00    +0.000 OA
ATOM      3  C   UNL     1       2.890   3.312  19.645  0.00  0.00    +0.000 C 
ATOM      4  C   UNL     1       4.424   3.187  19.715  0.00  0.00    +0.000 C 
ATOM      5  C   UNL     1       5.062   4.103  18.658  0.00  0.00    +0.000 C 
ATOM      6  C   UNL     1       4.558   5.547  18.812  0.00  0.00    +0.000 C 
ENDROOT
BRANCH   1  10
ATOM      7  C   UNL     1       1.504   8.639  19.744  0.00  0.00    +0.000 A 
ATOM      8  N   UNL     1       1.830   8.942  18.478  0.00  0.00    +0.000 NA
ATOM      9  O   UNL     1       2.486   7.800  18.022  0.00  0.00    +0.000 OA
ATOM     10  C   UNL     1       2.494   6.919  19.062  0.00  0.00    +0.000 A 
ATOM     11  N   UNL     1       1.937   7.396  20.153  0.00  0.00    +0.000 NA
BRANCH   7  15
ATOM     12  C   UNL     1      -0.793  11.199  22.306  0.00  0.00    +0.000 A 
ATOM     13  C   UNL     1      -0.361   9.947  22.755  0.00  0.00    +0.000 A 
ATOM     14  C   UNL     1       0.363   9.092  21.915  0.00  0.00    +0.000 A 
ATOM     15  C   UNL     1       0.709   9.496  20.621  0.00  0.00    +0.000 A 
ATOM     16  C   UNL     1       0.320  10.771  20.190  0.00  0.00    +0.000 A 
ATOM     17  C   UNL     1      -0.404  11.619  21.034  0.00  0.00    +0.000 A 
BRANCH  12  18
ATOM     18  N   UNL     1      -1.393  12.098  23.193  0.00  0.00    +0.000 N 
ATOM     19  H   UNL     1      -1.249  13.073  22.948  0.00  0.00    +0.000 HD
ATOM     20  H   UNL     1      -1.186  11.913  24.169  0.00  0.00    +0.000 HD
ENDBRANCH  12  18
ENDBRANCH   7  15
ENDBRANCH   1  10
BRANCH   4  21
ATOM     21  O   UNL     1       4.833   1.826  19.544  0.00  0.00    +0.000 OA
ATOM     22  H   UNL     1       5.547   1.796  18.880  0.00  0.00    +0.000 HD
ENDBRANCH   4  21
BRANCH   5  23
ATOM     23  O   UNL     1       6.490   4.044  18.735  0.00  0.00    +0.000 OA
ATOM     24  H   UNL     1       6.861   4.819  18.275  0.00  0.00    +0.000 HD
ENDBRANCH   5  23
BRANCH   6  25
ATOM     25  O   UNL     1       5.098   6.377  17.779  0.00  0.00    +0.000 OA
ATOM     26  H   UNL     1       4.487   7.112  17.594  0.00  0.00    +0.000 HD
ENDBRANCH   6  25
BRANCH   3  27
ATOM     27  C   UNL     1       2.195   2.466  20.724  0.00  0.00    +0.000 C 
BRANCH  27  28
ATOM     28  O   UNL     1       2.914   2.440  21.950  0.00  0.00    +0.000 OA
ATOM     29  H   UNL     1       3.867   2.369  21.727  0.00  0.00    +0.000 HD
ENDBRANCH  27  28
ENDBRANCH   3  27
TORSDOF 8
ENDMDL
MODEL 3
REMARK VINA RESULT:      -7.2      1.223      2.805
REMARK  Name = 
REMARK  8 active torsions:
REMARK  status: ('A' for Active; 'I' for Inactive)
REMARK    1  A    between atoms: N_1  and  C_2
REMARK    2  A    between atoms: C_5  and  C_6
REMARK    3  A    between atoms: C_9  and  C_10
REMARK    4  A    between atoms: C_12  and  C_13
REMARK    5  A    between atoms: C_13  and  O_14
REMARK    6  A    between atoms: C_15  and  O_16
REMARK    7  A    between atoms: C_17  and  O_18
REMARK    8  A    between atoms: C_19  and  O_20
REMARK                            x       y       z     vdW  Elec       q    Type
REMARK                         _______ _______ _______ _____ _____    ______ ____
ROOT
ATOM      1  C   UNL     1       2.901   5.249  19.662  0.00  0.00    +0.000 C 
ATOM      2  O   UNL     1       3.933   5.265  18.664  0.00  0.00    +0.000 OA
ATOM      3  C   UNL     1       4.557   3.988  18.481  0.00  0.00    +0.000 C 
ATOM      4  C   UNL     1       3.521   2.943  18.025  0.00  0.00    +0.000 C 
ATOM      5  C   UNL     1       2.376   2.875  19.049  0.00  0.00    +0.000 C 
ATOM      6  C   UNL     1       1.775   4.269  19.288  0.00  0.00    +0.000 C 
ENDROOT
BRANCH   1  10
ATOM      7  C   UNL     1       1.347   8.397  20.292  0.00  0.00    +0.000 A 
ATOM      8  N   UNL     1       1.777   8.623  19.041  0.00  0.00    +0.000 NA
ATOM      9  O   UNL     1       2.456   7.452  18.708  0.00  0.00    +0.000 OA
ATOM     10  C   UNL     1       2.371   6.634  19.795  0.00  0.00    +0.000 A 
ATOM     11  N   UNL     1       1.734   7.178  20.807  0.00  0.00    +0.000 NA
BRANCH   7  15
ATOM     12  C   UNL     1      -1.130  11.118  22.496  0.00  0.00    +0.000 A 
ATOM     13  C   UNL     1      -0.526  10.031  23.135  0.00  0.00    +0.000 A 
ATOM     14  C   UNL     1       0.259   9.120  22.417  0.00  0.00    +0.000 A 
ATOM     15  C   UNL     1       0.493   9.309  21.051  0.00  0.00    +0.000 A 
ATOM     16  C   UNL     1      -0.070  10.427  20.423  0.00  0.00    +0.000 A 
ATOM     17  C   UNL     1      -0.853  11.332  21.145  0.00  0.00    +0.000 A 
BRANCH  12  18
ATOM     18  N   UNL     1      -1.795  12.095  23.243  0.00  0.00    +0.000 N 
ATOM     19  H   UNL     1      -1.214  12.892  23.486  0.00  0.00    +0.000 HD
ATOM     20  H   UNL     1      -2.298  11.728  24.044  0.00  0.00    +0.000 HD
ENDBRANCH  12  18
ENDBRANCH   7  15
ENDBRANCH   1  10
BRANCH   4  21
ATOM     21  O   UNL     1       4.135   1.664  17.840  0.00  0.00    +0.000 OA
ATOM     22  H   UNL     1       4.960   1.784  17.333  0.00  0.00    +0.000 HD
ENDBRANCH   4  21
BRANCH   5  23
ATOM     23  O   UNL     1       1.374   1.947  18.624  0.00  0.00    +0.000 OA
ATOM     24  H   UNL     1       1.569   1.673  17.709  0.00  0.00    +0.000 HD
ENDBRANCH   5  23
BRANCH   6  25
ATOM     25  O   UNL     1       0.761   4.210  20.297  0.00  0.00    +0.000 OA
ATOM     26  H   UNL     1       0.178   3.448  20.133  0.00  0.00    +0.000 HD
ENDBRANCH   6  25
BRANCH   3  27
ATOM     27  C   UNL     1       5.697   4.149  17.462  0.00  0.00    +0.000 C 
BRANCH  27  28
ATOM     28  O   UNL     1       6.982   4.147  18.071  0.00  0.00    +0.000 OA
ATOM     29  H   UNL     1       7.343   3.239  17.986  0.00  0.00    +0.000 HD
ENDBRANCH  27  28
ENDBRANCH   3  27
TORSDOF 8
ENDMDL
MODEL 4
REMARK VINA RESULT:      -7.2      1.330      2.655
REMARK  Name = 
REMARK  8 active torsions:
REMARK  status: ('A' for Active; 'I' for Inactive)
REMARK    1  A    between atoms: N_1  and  C_2
REMARK    2  A    between atoms: C_5  and  C_6
REMARK    3  A    between atoms: C_9  and  C_10
REMARK    4  A    between atoms: C_12  and  C_13
REMARK    5  A    between atoms: C_13  and  O_14
REMARK    6  A    between atoms: C_15  and  O_16
REMARK    7  A    between atoms: C_17  and  O_18
REMARK    8  A    between atoms: C_19  and  O_20
REMARK                            x       y       z     vdW  Elec       q    Type
REMARK                         _______ _______ _______ _____ _____    ______ ____
ROOT
ATOM      1  C   UNL     1       2.904   5.231  19.680  0.00  0.00    +0.000 C 
ATOM      2  O   UNL     1       3.968   5.239  18.717  0.00  0.00    +0.000 OA
ATOM      3  C   UNL     1       4.585   3.956  18.552  0.00  0.00    +0.000 C 
ATOM      4  C   UNL     1       3.556   2.923  18.058  0.00  0.00    +0.000 C 
ATOM      5  C   UNL     1       2.376   2.864  19.043  0.00  0.00    +0.000 C 
ATOM      6  C   UNL     1       1.781   4.263  19.266  0.00  0.00    +0.000 C 
ENDROOT
BRANCH   1  10
ATOM      7  C   UNL     1       1.378   8.397  20.285  0.00  0.00    +0.000 A 
ATOM      8  N   UNL     1       1.786   8.600  19.023  0.00  0.00    +0.000 NA
ATOM      9  O   UNL     1       2.453   7.420  18.697  0.00  0.00    +0.000 OA
ATOM     10  C   UNL     1       2.383   6.621  19.799  0.00  0.00    +0.000 A 
ATOM     11  N   UNL     1       1.766   7.185  20.813  0.00  0.00    +0.000 NA
BRANCH   7  15
ATOM     12  C   UNL     1      -1.106  11.076  22.533  0.00  0.00    +0.000 A 
ATOM     13  C   UNL     1      -0.921  11.263  21.159  0.00  0.00    +0.000 A 
ATOM     14  C   UNL     1      -0.088  10.411  20.424  0.00  0.00    +0.000 A 
ATOM     15  C   UNL     1       0.541   9.326  21.043  0.00  0.00    +0.000 A 
ATOM     16  C   UNL     1       0.314   9.109  22.408  0.00  0.00    +0.000 A 
ATOM     17  C   UNL     1      -0.519   9.964  23.137  0.00  0.00    +0.000 A 
BRANCH  12  18
ATOM     18  N   UNL     1      -2.045  11.844  23.229  0.00  0.00    +0.000 N 
ATOM     19  H   UNL     1      -2.906  11.349  23.438  0.00  0.00    +0.000 HD
ATOM     20  H   UNL     1      -2.216  12.756  22.818  0.00  0.00    +0.000 HD
ENDBRANCH  12  18
ENDBRANCH   7  15
ENDBRANCH   1  10
BRANCH   4  21
ATOM     21  O   UNL     1       4.163   1.638  17.890  0.00  0.00    +0.000 OA
ATOM     22  H   UNL     1       3.537   1.056  17.419  0.00  0.00    +0.000 HD
ENDBRANCH   4  21
BRANCH   5  23
ATOM     23  O   UNL     1       1.379   1.947  18.582  0.00  0.00    +0.000 OA
ATOM     24  H   UNL     1       1.249   1.259  19.259  0.00  0.00    +0.000 HD
ENDBRANCH   5  23
BRANCH   6  25
ATOM     25  O   UNL     1       0.734   4.211  20.240  0.00  0.00    +0.000 OA
ATOM     26  H   UNL     1       0.962   3.570  20.936  0.00  0.00    +0.000 HD
ENDBRANCH   6  25
BRANCH   3  27
ATOM     27  C   UNL     1       5.761   4.108  17.572  0.00  0.00    +0.000 C 
BRANCH  27  28
ATOM     28  O   UNL     1       5.561   3.395  16.359  0.00  0.00    +0.000 OA
ATOM     29  H   UNL     1       6.094   3.842  15.667  0.00  0.00    +0.000 HD
ENDBRANCH  27  28
ENDBRANCH   3  27
TORSDOF 8
ENDMDL
MODEL 5
REMARK VINA RESULT:      -7.2      1.741      3.159
REMARK  Name = 
REMARK  8 active torsions:
REMARK  status: ('A' for Active; 'I' for Inactive)
REMARK    1  A    between atoms: N_1  and  C_2
REMARK    2  A    between atoms: C_5  and  C_6
REMARK    3  A    between atoms: C_9  and  C_10
REMARK    4  A    between atoms: C_12  and  C_13
REMARK    5  A    between atoms: C_13  and  O_14
REMARK    6  A    between atoms: C_15  and  O_16
REMARK    7  A    between atoms: C_17  and  O_18
REMARK    8  A    between atoms: C_19  and  O_20
REMARK                            x       y       z     vdW  Elec       q    Type
REMARK                         _______ _______ _______ _____ _____    ______ ____
ROOT
ATOM      1  C   UNL     1       3.375   6.377  19.365  0.00  0.00    +0.000 C 
ATOM      2  O   UNL     1       4.358   6.062  18.368  0.00  0.00    +0.000 OA
ATOM      3  C   UNL     1       5.177   4.942  18.722  0.00  0.00    +0.000 C 
ATOM      4  C   UNL     1       4.314   3.679  18.900  0.00  0.00    +0.000 C 
ATOM      5  C   UNL     1       3.228   3.945  19.957  0.00  0.00    +0.000 C 
ATOM      6  C   UNL     1       2.414   5.198  19.597  0.00  0.00    +0.000 C 
ENDROOT
BRANCH   1  10
ATOM      7  C   UNL     1       1.263   9.138  18.564  0.00  0.00    +0.000 A 
ATOM      8  N   UNL     1       1.952   9.062  17.416  0.00  0.00    +0.000 NA
ATOM      9  O   UNL     1       2.859   8.028  17.641  0.00  0.00    +0.000 OA
ATOM     10  C   UNL     1       2.629   7.582  18.908  0.00  0.00    +0.000 A 
ATOM     11  N   UNL     1       1.685   8.252  19.532  0.00  0.00    +0.000 NA
BRANCH   7  15
ATOM     12  C   UNL     1      -2.085  11.752  19.160  0.00  0.00    +0.000 A 
ATOM     13  C   UNL     1      -1.007  11.764  20.051  0.00  0.00    +0.000 A 
ATOM     14  C   UNL     1       0.076  10.893  19.881  0.00  0.00    +0.000 A 
ATOM     15  C   UNL     1       0.121  10.022  18.786  0.00  0.00    +0.000 A 
ATOM     16  C   UNL     1      -0.936  10.047  17.867  0.00  0.00    +0.000 A 
ATOM     17  C   UNL     1      -2.014  10.919  18.043  0.00  0.00    +0.000 A 
BRANCH  12  18
ATOM     18  N   UNL     1      -3.092  12.717  19.258  0.00  0.00    +0.000 N 
ATOM     19  H   UNL     1      -2.841  13.615  18.857  0.00  0.00    +0.000 HD
ATOM     20  H   UNL     1      -3.484  12.809  20.190  0.00  0.00    +0.000 HD
ENDBRANCH  12  18
ENDBRANCH   7  15
ENDBRANCH   1  10
BRANCH   4  21
ATOM     21  O   UNL     1       5.124   2.553  19.255  0.00  0.00    +0.000 OA
ATOM     22  H   UNL     1       4.950   1.832  18.621  0.00  0.00    +0.000 HD
ENDBRANCH   4  21
BRANCH   5  23
ATOM     23  O   UNL     1       2.379   2.804  20.106  0.00  0.00    +0.000 OA
ATOM     24  H   UNL     1       1.454   3.082  19.977  0.00  0.00    +0.000 HD
ENDBRANCH   5  23
BRANCH   6  25
ATOM     25  O   UNL     1       1.456   5.482  20.622  0.00  0.00    +0.000 OA
ATOM     26  H   UNL     1       0.966   6.294  20.399  0.00  0.00    +0.000 HD
ENDBRANCH   6  25
BRANCH   3  27
ATOM     27  C   UNL     1       6.243   4.758  17.628  0.00  0.00    +0.000 C 
BRANCH  27  28
ATOM     28  O   UNL     1       7.442   4.177  18.123  0.00  0.00    +0.000 OA
ATOM     29  H   UNL     1       8.172   4.799  17.919  0.00  0.00    +0.000 HD
ENDBRANCH  27  28
ENDBRANCH   3  27
TORSDOF 8
ENDMDL
MODEL 6
REMARK VINA RESULT:      -7.1      1.739      3.067
REMARK  Name = 
REMARK  8 active torsions:
REMARK  status: ('A' for Active; 'I' for Inactive)
REMARK    1  A    between atoms: N_1  and  C_2
REMARK    2  A    between atoms: C_5  and  C_6
REMARK    3  A    between atoms: C_9  and  C_10
REMARK    4  A    between atoms: C_12  and  C_13
REMARK    5  A    between atoms: C_13  and  O_14
REMARK    6  A    between atoms: C_15  and  O_16
REMARK    7  A    between atoms: C_17  and  O_18
REMARK    8  A    between atoms: C_19  and  O_20
REMARK                            x       y       z     vdW  Elec       q    Type
REMARK                         _______ _______ _______ _____ _____    ______ ____
ROOT
ATOM      1  C   UNL     1       3.365   6.208  19.492  0.00  0.00    +0.000 C 
ATOM      2  O   UNL     1       4.434   5.890  18.589  0.00  0.00    +0.000 OA
ATOM      3  C   UNL     1       5.199   4.752  19.004  0.00  0.00    +0.000 C 
ATOM      4  C   UNL     1       4.303   3.501  19.080  0.00  0.00    +0.000 C 
ATOM      5  C   UNL     1       3.125   3.771  20.031  0.00  0.00    +0.000 C 
ATOM      6  C   UNL     1       2.368   5.042  19.613  0.00  0.00    +0.000 C 
ENDROOT
BRANCH   1  10
ATOM      7  C   UNL     1       1.397   9.032  18.559  0.00  0.00    +0.000 A 
ATOM      8  N   UNL     1       2.119   8.901  17.436  0.00  0.00    +0.000 NA
ATOM      9  O   UNL     1       2.974   7.836  17.715  0.00  0.00    +0.000 OA
ATOM     10  C   UNL     1       2.685   7.431  18.984  0.00  0.00    +0.000 A 
ATOM     11  N   UNL     1       1.750   8.154  19.560  0.00  0.00    +0.000 NA
BRANCH   7  15
ATOM     12  C   UNL     1      -1.868  11.762  19.097  0.00  0.00    +0.000 A 
ATOM     13  C   UNL     1      -1.881  10.838  18.048  0.00  0.00    +0.000 A 
ATOM     14  C   UNL     1      -0.806   9.964  17.847  0.00  0.00    +0.000 A 
ATOM     15  C   UNL     1       0.286   9.968  18.723  0.00  0.00    +0.000 A 
ATOM     16  C   UNL     1       0.274  10.859  19.803  0.00  0.00    +0.000 A 
ATOM     17  C   UNL     1      -0.803  11.730  19.998  0.00  0.00    +0.000 A 
BRANCH  12  18
ATOM     18  N   UNL     1      -3.002  12.533  19.372  0.00  0.00    +0.000 N 
ATOM     19  H   UNL     1      -3.877  12.035  19.244  0.00  0.00    +0.000 HD
ATOM     20  H   UNL     1      -3.004  13.438  18.916  0.00  0.00    +0.000 HD
ENDBRANCH  12  18
ENDBRANCH   7  15
ENDBRANCH   1  10
BRANCH   4  21
ATOM     21  O   UNL     1       5.058   2.357  19.494  0.00  0.00    +0.000 OA
ATOM     22  H   UNL     1       4.546   1.553  19.286  0.00  0.00    +0.000 HD
ENDBRANCH   4  21
BRANCH   5  23
ATOM     23  O   UNL     1       2.248   2.642  20.081  0.00  0.00    +0.000 OA
ATOM     24  H   UNL     1       2.112   2.311  19.174  0.00  0.00    +0.000 HD
ENDBRANCH   5  23
BRANCH   6  25
ATOM     25  O   UNL     1       1.320   5.328  20.545  0.00  0.00    +0.000 OA
ATOM     26  H   UNL     1       0.717   5.994  20.168  0.00  0.00    +0.000 HD
ENDBRANCH   6  25
BRANCH   3  27
ATOM     27  C   UNL     1       6.363   4.565  18.016  0.00  0.00    +0.000 C 
BRANCH  27  28
ATOM     28  O   UNL     1       6.024   3.724  16.921  0.00  0.00    +0.000 OA
ATOM     29  H   UNL     1       6.828   3.212  16.689  0.00  0.00    +0.000 HD
ENDBRANCH  27  28
ENDBRANCH   3  27
TORSDOF 8
ENDMDL
MODEL 7
REMARK VINA RESULT:      -7.1      0.877      1.041
REMARK  Name = 
REMARK  8 active torsions:
REMARK  status: ('A' for Active; 'I' for Inactive)
REMARK    1  A    between atoms: N_1  and  C_2
REMARK    2  A    between atoms: C_5  and  C_6
REMARK    3  A    between atoms: C_9  and  C_10
REMARK    4  A    between atoms: C_12  and  C_13
REMARK    5  A    between atoms: C_13  and  O_14
REMARK    6  A    between atoms: C_15  and  O_16
REMARK    7  A    between atoms: C_17  and  O_18
REMARK    8  A    between atoms: C_19  and  O_20
REMARK                            x       y       z     vdW  Elec       q    Type
REMARK                         _______ _______ _______ _____ _____    ______ ____
ROOT
ATOM      1  C   UNL     1       3.133   5.666  18.429  0.00  0.00    +0.000 C 
ATOM      2  O   UNL     1       2.571   4.945  19.536  0.00  0.00    +0.000 OA
ATOM      3  C   UNL     1       2.942   3.561  19.551  0.00  0.00    +0.000 C 
ATOM      4  C   UNL     1       4.471   3.415  19.663  0.00  0.00    +0.000 C 
ATOM      5  C   UNL     1       5.145   4.173  18.506  0.00  0.00    +0.000 C 
ATOM      6  C   UNL     1       4.671   5.634  18.462  0.00  0.00    +0.000 C 
ENDROOT
BRANCH   1  10
ATOM      7  C   UNL     1       1.612   8.864  18.861  0.00  0.00    +0.000 A 
ATOM      8  N   UNL     1       2.206   9.074  17.677  0.00  0.00    +0.000 NA
ATOM      9  O   UNL     1       2.885   7.881  17.431  0.00  0.00    +0.000 OA
ATOM     10  C   UNL     1       2.635   7.068  18.496  0.00  0.00    +0.000 A 
ATOM     11  N   UNL     1       1.889   7.634  19.419  0.00  0.00    +0.000 NA
BRANCH   7  15
ATOM     12  C   UNL     1      -1.082  11.584  20.796  0.00  0.00    +0.000 A 
ATOM     13  C   UNL     1      -1.265  11.237  19.454  0.00  0.00    +0.000 A 
ATOM     14  C   UNL     1      -0.373  10.374  18.806  0.00  0.00    +0.000 A 
ATOM     15  C   UNL     1       0.696   9.803  19.505  0.00  0.00    +0.000 A 
ATOM     16  C   UNL     1       0.849  10.111  20.863  0.00  0.00    +0.000 A 
ATOM     17  C   UNL     1      -0.045  10.974  21.504  0.00  0.00    +0.000 A 
BRANCH  12  18
ATOM     18  N   UNL     1      -2.051  12.333  21.470  0.00  0.00    +0.000 N 
ATOM     19  H   UNL     1      -2.244  12.003  22.411  0.00  0.00    +0.000 HD
ATOM     20  H   UNL     1      -2.900  12.483  20.934  0.00  0.00    +0.000 HD
ENDBRANCH  12  18
ENDBRANCH   7  15
ENDBRANCH   1  10
BRANCH   4  21
ATOM     21  O   UNL     1       4.852   2.036  19.678  0.00  0.00    +0.000 OA
ATOM     22  H   UNL     1       5.206   1.819  20.561  0.00  0.00    +0.000 HD
ENDBRANCH   4  21
BRANCH   5  23
ATOM     23  O   UNL     1       6.569   4.095  18.616  0.00  0.00    +0.000 OA
ATOM     24  H   UNL     1       6.966   4.487  17.817  0.00  0.00    +0.000 HD
ENDBRANCH   5  23
BRANCH   6  25
ATOM     25  O   UNL     1       5.244   6.311  17.339  0.00  0.00    +0.000 OA
ATOM     26  H   UNL     1       5.516   5.662  16.666  0.00  0.00    +0.000 HD
ENDBRANCH   6  25
BRANCH   3  27
ATOM     27  C   UNL     1       2.213   2.878  20.719  0.00  0.00    +0.000 C 
BRANCH  27  28
ATOM     28  O   UNL     1       3.081   2.560  21.799  0.00  0.00    +0.000 OA
ATOM     29  H   UNL     1       3.930   3.023  21.634  0.00  0.00    +0.000 HD
ENDBRANCH  27  28
ENDBRANCH   3  27
TORSDOF 8
ENDMDL
MODEL 8
REMARK VINA RESULT:      -7.0      1.977      3.322
REMARK  Name = 
REMARK  8 active torsions:
REMARK  status: ('A' for Active; 'I' for Inactive)
REMARK    1  A    between atoms: N_1  and  C_2
REMARK    2  A    between atoms: C_5  and  C_6
REMARK    3  A    between atoms: C_9  and  C_10
REMARK    4  A    between atoms: C_12  and  C_13
REMARK    5  A    between atoms: C_13  and  O_14
REMARK    6  A    between atoms: C_15  and  O_16
REMARK    7  A    between atoms: C_17  and  O_18
REMARK    8  A    between atoms: C_19  and  O_20
REMARK                            x       y       z     vdW  Elec       q    Type
REMARK                         _______ _______ _______ _____ _____    ______ ____
ROOT
ATOM      1  C   UNL     1       4.327   4.863  18.958  0.00  0.00    +0.000 C 
ATOM      2  O   UNL     1       5.531   5.558  19.315  0.00  0.00    +0.000 OA
ATOM      3  C   UNL     1       6.716   4.904  18.846  0.00  0.00    +0.000 C 
ATOM      4  C   UNL     1       6.706   4.807  17.309  0.00  0.00    +0.000 C 
ATOM      5  C   UNL     1       5.434   4.074  16.851  0.00  0.00    +0.000 C 
ATOM      6  C   UNL     1       4.179   4.746  17.431  0.00  0.00    +0.000 C 
ENDROOT
BRANCH   1  10
ATOM      7  C   UNL     1       1.825   7.021  20.300  0.00  0.00    +0.000 A 
ATOM      8  N   UNL     1       1.472   5.884  20.917  0.00  0.00    +0.000 NA
ATOM      9  O   UNL     1       2.370   4.943  20.417  0.00  0.00    +0.000 OA
ATOM     10  C   UNL     1       3.177   5.607  19.542  0.00  0.00    +0.000 A 
ATOM     11  N   UNL     1       2.863   6.876  19.405  0.00  0.00    +0.000 NA
BRANCH   7  15
ATOM     12  C   UNL     1       0.122  10.882  21.069  0.00  0.00    +0.000 A 
ATOM     13  C   UNL     1       0.204   9.927  22.087  0.00  0.00    +0.000 A 
ATOM     14  C   UNL     1       0.730   8.653  21.837  0.00  0.00    +0.000 A 
ATOM     15  C   UNL     1       1.229   8.328  20.570  0.00  0.00    +0.000 A 
ATOM     16  C   UNL     1       1.194   9.303  19.566  0.00  0.00    +0.000 A 
ATOM     17  C   UNL     1       0.666  10.573  19.822  0.00  0.00    +0.000 A 
BRANCH  12  18
ATOM     18  N   UNL     1      -0.274  12.191  21.360  0.00  0.00    +0.000 N 
ATOM     19  H   UNL     1      -0.891  12.598  20.664  0.00  0.00    +0.000 HD
ATOM     20  H   UNL     1       0.493  12.809  21.602  0.00  0.00    +0.000 HD
ENDBRANCH  12  18
ENDBRANCH   7  15
ENDBRANCH   1  10
BRANCH   4  21
ATOM     21  O   UNL     1       7.887   4.154  16.832  0.00  0.00    +0.000 OA
ATOM     22  H   UNL     1       7.623   3.442  16.219  0.00  0.00    +0.000 HD
ENDBRANCH   4  21
BRANCH   5  23
ATOM     23  O   UNL     1       5.374   4.014  15.423  0.00  0.00    +0.000 OA
ATOM     24  H   UNL     1       4.441   3.939  15.151  0.00  0.00    +0.000 HD
ENDBRANCH   5  23
BRANCH   6  25
ATOM     25  O   UNL     1       3.005   4.015  17.061  0.00  0.00    +0.000 OA
ATOM     26  H   UNL     1       2.275   4.237  17.665  0.00  0.00    +0.000 HD
ENDBRANCH   6  25
BRANCH   3  27
ATOM     27  C   UNL     1       7.936   5.686  19.364  0.00  0.00    +0.000 C 
BRANCH  27  28
ATOM     28  O   UNL     1       8.206   5.437  20.737  0.00  0.00    +0.000 OA
ATOM     29  H   UNL     1       8.717   6.203  21.075  0.00  0.00    +0.000 HD
ENDBRANCH  27  28
ENDBRANCH   3  27
TORSDOF 8
ENDMDL
MODEL 9
REMARK VINA RESULT:      -7.0      1.970      3.185
REMARK  Name = 
REMARK  8 active torsions:
REMARK  status: ('A' for Active; 'I' for Inactive)
REMARK    1  A    between atoms: N_1  and  C_2
REMARK    2  A    between atoms: C_5  and  C_6
REMARK    3  A    between atoms: C_9  and  C_10
REMARK    4  A    between atoms: C_12  and  C_13
REMARK    5  A    between atoms: C_13  and  O_14
REMARK    6  A    between atoms: C_15  and  O_16
REMARK    7  A    between atoms: C_17  and  O_18
REMARK    8  A    between atoms: C_19  and  O_20
REMARK                            x       y       z     vdW  Elec       q    Type
REMARK                         _______ _______ _______ _____ _____    ______ ____
ROOT
ATOM      1  C   UNL     1       4.350   4.880  18.932  0.00  0.00    +0.000 C 
ATOM      2  O   UNL     1       5.561   5.561  19.297  0.00  0.00    +0.000 OA
ATOM      3  C   UNL     1       6.740   4.900  18.823  0.00  0.00    +0.000 C 
ATOM      4  C   UNL     1       6.730   4.818  17.285  0.00  0.00    +0.000 C 
ATOM      5  C   UNL     1       5.451   4.102  16.818  0.00  0.00    +0.000 C 
ATOM      6  C   UNL     1       4.203   4.780  17.404  0.00  0.00    +0.000 C 
ENDROOT
BRANCH   1  10
ATOM      7  C   UNL     1       1.868   7.049  20.294  0.00  0.00    +0.000 A 
ATOM      8  N   UNL     1       1.504   5.909  20.900  0.00  0.00    +0.000 NA
ATOM      9  O   UNL     1       2.394   4.964  20.391  0.00  0.00    +0.000 OA
ATOM     10  C   UNL     1       3.208   5.630  19.523  0.00  0.00    +0.000 A 
ATOM     11  N   UNL     1       2.906   6.903  19.399  0.00  0.00    +0.000 NA
BRANCH   7  15
ATOM     12  C   UNL     1       0.109  10.866  21.151  0.00  0.00    +0.000 A 
ATOM     13  C   UNL     1       0.513  10.546  19.851  0.00  0.00    +0.000 A 
ATOM     14  C   UNL     1       1.116   9.314  19.568  0.00  0.00    +0.000 A 
ATOM     15  C   UNL     1       1.284   8.359  20.577  0.00  0.00    +0.000 A 
ATOM     16  C   UNL     1       0.831   8.660  21.867  0.00  0.00    +0.000 A 
ATOM     17  C   UNL     1       0.231   9.892  22.143  0.00  0.00    +0.000 A 
BRANCH  12  18
ATOM     18  N   UNL     1      -0.615  12.037  21.397  0.00  0.00    +0.000 N 
ATOM     19  H   UNL     1      -1.439  11.897  21.974  0.00  0.00    +0.000 HD
ATOM     20  H   UNL     1      -0.818  12.577  20.562  0.00  0.00    +0.000 HD
ENDBRANCH  12  18
ENDBRANCH   7  15
ENDBRANCH   1  10
BRANCH   4  21
ATOM     21  O   UNL     1       7.905   4.159  16.802  0.00  0.00    +0.000 OA
ATOM     22  H   UNL     1       7.718   3.798  15.915  0.00  0.00    +0.000 HD
ENDBRANCH   4  21
BRANCH   5  23
ATOM     23  O   UNL     1       5.392   4.057  15.389  0.00  0.00    +0.000 OA
ATOM     24  H   UNL     1       5.845   4.842  15.032  0.00  0.00    +0.000 HD
ENDBRANCH   5  23
BRANCH   6  25
ATOM     25  O   UNL     1       3.022   4.064  17.026  0.00  0.00    +0.000 OA
ATOM     26  H   UNL     1       2.706   3.531  17.776  0.00  0.00    +0.000 HD
ENDBRANCH   6  25
BRANCH   3  27
ATOM     27  C   UNL     1       7.967   5.665  19.349  0.00  0.00    +0.000 C 
BRANCH  27  28
ATOM     28  O   UNL     1       8.197   5.448  20.734  0.00  0.00    +0.000 OA
ATOM     29  H   UNL     1       7.321   5.404  21.171  0.00  0.00    +0.000 HD
ENDBRANCH  27  28
ENDBRANCH   3  27
TORSDOF 8
ENDMDL
