MODEL 1
REMARK VINA RESULT:      -6.6      0.000      0.000
REMARK  Name = 
REMARK  6 active torsions:
REMARK  status: ('A' for Active; 'I' for Inactive)
REMARK    1  A    between atoms: C_1  and  C_2
REMARK    2  A    between atoms: C_7  and  C_9
REMARK    3  A    between atoms: C_12  and  C_13
REMARK    4  A    between atoms: C_13  and  C_14
REMARK    5  A    between atoms: C_13  and  C_15
REMARK    6  A    between atoms: C_13  and  C_16
REMARK                            x       y       z     vdW  Elec       q    Type
REMARK                         _______ _______ _______ _____ _____    ______ ____
ROOT
ATOM      1  C   UNL     1       1.843   7.108  20.132  0.00  0.00    +0.000 A 
ATOM      2  C   UNL     1       2.554   7.099  18.945  0.00  0.00    +0.000 A 
ATOM      3  N   UNL     1       2.980   5.948  18.374  0.00  0.00    +0.000 NA
ATOM      4  C   UNL     1       2.683   4.773  19.007  0.00  0.00    +0.000 A 
ATOM      5  C   UNL     1       1.942   4.818  20.201  0.00  0.00    +0.000 A 
ATOM      6 CL   UNL     1       1.463   3.449  21.125  0.00  0.00    +0.000 Cl
ATOM      7  N   UNL     1       1.516   5.970  20.792  0.00  0.00    +0.000 NA
ENDROOT
BRANCH   1  14
ATOM      8  C   UNL     1      -0.813  14.152  19.750  0.00  0.00    +0.000 C 
ATOM      9  C   UNL     1      -0.185  12.862  20.130  0.00  0.00    +0.000 A 
ATOM     10  C   UNL     1       0.163  12.401  21.383  0.00  0.00    +0.000 A 
ATOM     11  N   UNL     1       0.687  11.127  21.423  0.00  0.00    +0.000 NA
ATOM     12  C   UNL     1       0.743  10.638  20.212  0.00  0.00    +0.000 A 
ATOM     13  N   UNL     1       1.157   9.397  19.813  0.00  0.00    +0.000 N 
ATOM     14  C   UNL     1       1.452   8.413  20.731  0.00  0.00    +0.000 C 
ATOM     15  O   UNL     1       1.396   8.493  21.953  0.00  0.00    +0.000 OA
ATOM     16  S   UNL     1       0.214  11.670  18.957  0.00  0.00    +0.000 S 
ATOM     17  H   UNL     1       1.186   9.185  18.824  0.00  0.00    +0.000 HD
ENDBRANCH   1  14
BRANCH   4  18
ATOM     18  C   UNL     1       3.259   3.511  18.344  0.00  0.00    +0.000 C 
ATOM     19  C   UNL     1       4.030   3.881  17.044  0.00  0.00    +0.000 C 
ATOM     20  C   UNL     1       4.282   2.825  19.272  0.00  0.00    +0.000 C 
ATOM     21  C   UNL     1       2.166   2.512  17.921  0.00  0.00    +0.000 C 
ENDBRANCH   4  18
TORSDOF 2
ENDMDL
MODEL 2
REMARK VINA RESULT:      -6.6      2.509      3.082
REMARK  Name = 
REMARK  6 active torsions:
REMARK  status: ('A' for Active; 'I' for Inactive)
REMARK    1  A    between atoms: C_1  and  C_2
REMARK    2  A    between atoms: C_7  and  C_9
REMARK    3  A    between atoms: C_12  and  C_13
REMARK    4  A    between atoms: C_13  and  C_14
REMARK    5  A    between atoms: C_13  and  C_15
REMARK    6  A    between atoms: C_13  and  C_16
REMARK                            x       y       z     vdW  Elec       q    Type
REMARK                         _______ _______ _______ _____ _____    ______ ____
ROOT
ATOM      1  C   UNL     1       2.419   7.795  18.726  0.00  0.00    +0.000 A 
ATOM      2  C   UNL     1       2.444   6.755  19.639  0.00  0.00    +0.000 A 
ATOM      3  N   UNL     1       3.245   5.676  19.472  0.00  0.00    +0.000 NA
ATOM      4  C   UNL     1       4.046   5.639  18.365  0.00  0.00    +0.000 A 
ATOM      5  C   UNL     1       4.009   6.723  17.470  0.00  0.00    +0.000 A 
ATOM      6 CL   UNL     1       4.953   6.860  16.039  0.00  0.00    +0.000 Cl
ATOM      7  N   UNL     1       3.200   7.810  17.619  0.00  0.00    +0.000 NA
ENDROOT
BRANCH   1  14
ATOM      8  C   UNL     1      -1.768  12.315  23.070  0.00  0.00    +0.000 C 
ATOM      9  C   UNL     1      -1.132  11.553  21.966  0.00  0.00    +0.000 A 
ATOM     10  C   UNL     1      -1.160  11.801  20.609  0.00  0.00    +0.000 A 
ATOM     11  N   UNL     1      -0.422  10.936  19.832  0.00  0.00    +0.000 NA
ATOM     12  C   UNL     1       0.147  10.038  20.593  0.00  0.00    +0.000 A 
ATOM     13  N   UNL     1       0.992   9.026  20.230  0.00  0.00    +0.000 N 
ATOM     14  C   UNL     1       1.475   8.925  18.944  0.00  0.00    +0.000 C 
ATOM     15  O   UNL     1       1.237   9.667  17.998  0.00  0.00    +0.000 OA
ATOM     16  S   UNL     1      -0.188  10.146  22.265  0.00  0.00    +0.000 S 
ATOM     17  H   UNL     1       1.314   8.379  20.939  0.00  0.00    +0.000 HD
ENDBRANCH   1  14
BRANCH   4  18
ATOM     18  C   UNL     1       4.874   4.356  18.202  0.00  0.00    +0.000 C 
ATOM     19  C   UNL     1       4.598   3.374  19.377  0.00  0.00    +0.000 C 
ATOM     20  C   UNL     1       4.475   3.608  16.913  0.00  0.00    +0.000 C 
ATOM     21  C   UNL     1       6.391   4.621  18.217  0.00  0.00    +0.000 C 
ENDBRANCH   4  18
TORSDOF 2
ENDMDL
MODEL 3
REMARK VINA RESULT:      -6.5      1.929      2.616
REMARK  Name = 
REMARK  6 active torsions:
REMARK  status: ('A' for Active; 'I' for Inactive)
REMARK    1  A    between atoms: C_1  and  C_2
REMARK    2  A    between atoms: C_7  and  C_9
REMARK    3  A    between atoms: C_12  and  C_13
REMARK    4  A    between atoms: C_13  and  C_14
REMARK    5  A    between atoms: C_13  and  C_15
REMARK    6  A    between atoms: C_13  and  C_16
REMARK                            x       y       z     vdW  Elec       q    Type
REMARK                         _______ _______ _______ _____ _____    ______ ____
ROOT
ATOM      1  C   UNL     1       2.295   7.013  18.966  0.00  0.00    +0.000 A 
ATOM      2  C   UNL     1       1.981   6.528  20.223  0.00  0.00    +0.000 A 
ATOM      3  N   UNL     1       2.174   5.231  20.559  0.00  0.00    +0.000 NA
ATOM      4  C   UNL     1       2.701   4.397  19.612  0.00  0.00    +0.000 A 
ATOM      5  C   UNL     1       3.028   4.928  18.352  0.00  0.00    +0.000 A 
ATOM      6 CL   UNL     1       3.711   4.040  17.048  0.00  0.00    +0.000 Cl
ATOM      7  N   UNL     1       2.828   6.229  17.997  0.00  0.00    +0.000 NA
ENDROOT
BRANCH   1  14
ATOM      8  C   UNL     1      -0.065  13.950  20.733  0.00  0.00    +0.000 C 
ATOM      9  C   UNL     1       0.366  12.695  20.069  0.00  0.00    +0.000 A 
ATOM     10  C   UNL     1       0.802  12.502  18.773  0.00  0.00    +0.000 A 
ATOM     11  N   UNL     1       1.187  11.217  18.462  0.00  0.00    +0.000 NA
ATOM     12  C   UNL     1       1.033  10.447  19.507  0.00  0.00    +0.000 A 
ATOM     13  N   UNL     1       1.333   9.119  19.638  0.00  0.00    +0.000 N 
ATOM     14  C   UNL     1       2.006   8.437  18.648  0.00  0.00    +0.000 C 
ATOM     15  O   UNL     1       2.407   8.881  17.577  0.00  0.00    +0.000 OA
ATOM     16  S   UNL     1       0.391  11.192  20.904  0.00  0.00    +0.000 S 
ATOM     17  H   UNL     1       1.110   8.649  20.506  0.00  0.00    +0.000 HD
ENDBRANCH   1  14
BRANCH   4  18
ATOM     18  C   UNL     1       2.826   2.925  20.036  0.00  0.00    +0.000 C 
ATOM     19  C   UNL     1       2.374   2.742  21.514  0.00  0.00    +0.000 C 
ATOM     20  C   UNL     1       1.899   2.031  19.188  0.00  0.00    +0.000 C 
ATOM     21  C   UNL     1       4.275   2.409  19.969  0.00  0.00    +0.000 C 
ENDBRANCH   4  18
TORSDOF 2
ENDMDL
MODEL 4
REMARK VINA RESULT:      -6.4      0.566      1.128
REMARK  Name = 
REMARK  6 active torsions:
REMARK  status: ('A' for Active; 'I' for Inactive)
REMARK    1  A    between atoms: C_1  and  C_2
REMARK    2  A    between atoms: C_7  and  C_9
REMARK    3  A    between atoms: C_12  and  C_13
REMARK    4  A    between atoms: C_13  and  C_14
REMARK    5  A    between atoms: C_13  and  C_15
REMARK    6  A    between atoms: C_13  and  C_16
REMARK                            x       y       z     vdW  Elec       q    Type
REMARK                         _______ _______ _______ _____ _____    ______ ____
ROOT
ATOM      1  C   UNL     1       1.760   7.284  20.251  0.00  0.00    +0.000 A 
ATOM      2  C   UNL     1       2.462   7.362  19.062  0.00  0.00    +0.000 A 
ATOM      3  N   UNL     1       2.923   6.258  18.429  0.00  0.00    +0.000 NA
ATOM      4  C   UNL     1       2.671   5.041  19.000  0.00  0.00    +0.000 A 
ATOM      5  C   UNL     1       1.936   4.998  20.198  0.00  0.00    +0.000 A 
ATOM      6 CL   UNL     1       1.510   3.566  21.049  0.00  0.00    +0.000 Cl
ATOM      7  N   UNL     1       1.475   6.102  20.851  0.00  0.00    +0.000 NA
ENDROOT
BRANCH   1  14
ATOM      8  C   UNL     1      -1.905  13.867  20.468  0.00  0.00    +0.000 C 
ATOM      9  C   UNL     1      -1.028  12.692  20.698  0.00  0.00    +0.000 A 
ATOM     10  C   UNL     1      -0.344  12.328  21.840  0.00  0.00    +0.000 A 
ATOM     11  N   UNL     1       0.353  11.143  21.763  0.00  0.00    +0.000 NA
ATOM     12  C   UNL     1       0.206  10.625  20.571  0.00  0.00    +0.000 A 
ATOM     13  N   UNL     1       0.695   9.441  20.092  0.00  0.00    +0.000 N 
ATOM     14  C   UNL     1       1.329   8.541  20.920  0.00  0.00    +0.000 C 
ATOM     15  O   UNL     1       1.537   8.654  22.123  0.00  0.00    +0.000 OA
ATOM     16  S   UNL     1      -0.735  11.527  19.468  0.00  0.00    +0.000 S 
ATOM     17  H   UNL     1       0.531   9.200  19.123  0.00  0.00    +0.000 HD
ENDBRANCH   1  14
BRANCH   4  18
ATOM     18  C   UNL     1       3.284   3.837  18.268  0.00  0.00    +0.000 C 
ATOM     19  C   UNL     1       4.258   3.066  19.206  0.00  0.00    +0.000 C 
ATOM     20  C   UNL     1       2.190   2.830  17.861  0.00  0.00    +0.000 C 
ATOM     21  C   UNL     1       4.116   4.250  17.039  0.00  0.00    +0.000 C 
ENDBRANCH   4  18
TORSDOF 2
ENDMDL
MODEL 5
REMARK VINA RESULT:      -6.3      2.195      2.688
REMARK  Name = 
REMARK  6 active torsions:
REMARK  status: ('A' for Active; 'I' for Inactive)
REMARK    1  A    between atoms: C_1  and  C_2
REMARK    2  A    between atoms: C_7  and  C_9
REMARK    3  A    between atoms: C_12  and  C_13
REMARK    4  A    between atoms: C_13  and  C_14
REMARK    5  A    between atoms: C_13  and  C_15
REMARK    6  A    between atoms: C_13  and  C_16
REMARK                            x       y       z     vdW  Elec       q    Type
REMARK                         _______ _______ _______ _____ _____    ______ ____
ROOT
ATOM      1  C   UNL     1       2.637   6.754  19.482  0.00  0.00    +0.000 A 
ATOM      2  C   UNL     1       2.860   7.459  18.314  0.00  0.00    +0.000 A 
ATOM      3  N   UNL     1       3.732   7.027  17.372  0.00  0.00    +0.000 NA
ATOM      4  C   UNL     1       4.395   5.854  17.604  0.00  0.00    +0.000 A 
ATOM      5  C   UNL     1       4.127   5.152  18.794  0.00  0.00    +0.000 A 
ATOM      6 CL   UNL     1       4.848   3.659  19.249  0.00  0.00    +0.000 Cl
ATOM      7  N   UNL     1       3.261   5.582  19.755  0.00  0.00    +0.000 NA
ENDROOT
BRANCH   1  14
ATOM      8  C   UNL     1      -1.253  12.376  22.657  0.00  0.00    +0.000 C 
ATOM      9  C   UNL     1      -0.557  11.109  22.320  0.00  0.00    +0.000 A 
ATOM     10  C   UNL     1      -0.698   9.861  22.892  0.00  0.00    +0.000 A 
ATOM     11  N   UNL     1       0.056   8.859  22.322  0.00  0.00    +0.000 NA
ATOM     12  C   UNL     1       0.765   9.348  21.339  0.00  0.00    +0.000 A 
ATOM     13  N   UNL     1       1.612   8.689  20.490  0.00  0.00    +0.000 N 
ATOM     14  C   UNL     1       1.706   7.315  20.499  0.00  0.00    +0.000 C 
ATOM     15  O   UNL     1       1.094   6.530  21.215  0.00  0.00    +0.000 OA
ATOM     16  S   UNL     1       0.608  11.025  21.058  0.00  0.00    +0.000 S 
ATOM     17  H   UNL     1       2.129   9.222  19.803  0.00  0.00    +0.000 HD
ENDBRANCH   1  14
BRANCH   4  18
ATOM     18  C   UNL     1       5.420   5.459  16.530  0.00  0.00    +0.000 C 
ATOM     19  C   UNL     1       5.326   6.418  15.308  0.00  0.00    +0.000 C 
ATOM     20  C   UNL     1       6.857   5.591  17.072  0.00  0.00    +0.000 C 
ATOM     21  C   UNL     1       5.185   4.042  15.976  0.00  0.00    +0.000 C 
ENDBRANCH   4  18
TORSDOF 2
ENDMDL
MODEL 6
REMARK VINA RESULT:      -6.2      1.613      1.901
REMARK  Name = 
REMARK  6 active torsions:
REMARK  status: ('A' for Active; 'I' for Inactive)
REMARK    1  A    between atoms: C_1  and  C_2
REMARK    2  A    between atoms: C_7  and  C_9
REMARK    3  A    between atoms: C_12  and  C_13
REMARK    4  A    between atoms: C_13  and  C_14
REMARK    5  A    between atoms: C_13  and  C_15
REMARK    6  A    between atoms: C_13  and  C_16
REMARK                            x       y       z     vdW  Elec       q    Type
REMARK                         _______ _______ _______ _____ _____    ______ ____
ROOT
ATOM      1  C   UNL     1       2.351   7.432  19.369  0.00  0.00    +0.000 A 
ATOM      2  C   UNL     1       2.848   7.913  18.171  0.00  0.00    +0.000 A 
ATOM      3  N   UNL     1       3.680   7.179  17.395  0.00  0.00    +0.000 NA
ATOM      4  C   UNL     1       4.021   5.928  17.828  0.00  0.00    +0.000 A 
ATOM      5  C   UNL     1       3.481   5.464  19.041  0.00  0.00    +0.000 A 
ATOM      6 CL   UNL     1       3.782   3.919  19.734  0.00  0.00    +0.000 Cl
ATOM      7  N   UNL     1       2.652   6.196  19.837  0.00  0.00    +0.000 NA
ENDROOT
BRANCH   1  14
ATOM      8  C   UNL     1      -2.329  13.259  20.348  0.00  0.00    +0.000 C 
ATOM      9  C   UNL     1      -1.383  12.125  20.490  0.00  0.00    +0.000 A 
ATOM     10  C   UNL     1      -1.087  11.376  21.611  0.00  0.00    +0.000 A 
ATOM     11  N   UNL     1      -0.196  10.343  21.417  0.00  0.00    +0.000 NA
ATOM     12  C   UNL     1       0.184  10.321  20.166  0.00  0.00    +0.000 A 
ATOM     13  N   UNL     1       1.024   9.437  19.547  0.00  0.00    +0.000 N 
ATOM     14  C   UNL     1       1.485   8.313  20.198  0.00  0.00    +0.000 C 
ATOM     15  O   UNL     1       1.234   7.961  21.345  0.00  0.00    +0.000 OA
ATOM     16  S   UNL     1      -0.463  11.540  19.160  0.00  0.00    +0.000 S 
ATOM     17  H   UNL     1       1.258   9.583  18.573  0.00  0.00    +0.000 HD
ENDBRANCH   1  14
BRANCH   4  18
ATOM     18  C   UNL     1       5.024   5.180  16.937  0.00  0.00    +0.000 C 
ATOM     19  C   UNL     1       5.331   6.001  15.651  0.00  0.00    +0.000 C 
ATOM     20  C   UNL     1       6.372   4.998  17.664  0.00  0.00    +0.000 C 
ATOM     21  C   UNL     1       4.489   3.819  16.453  0.00  0.00    +0.000 C 
ENDBRANCH   4  18
TORSDOF 2
ENDMDL
MODEL 7
REMARK VINA RESULT:      -6.2      1.950      2.578
REMARK  Name = 
REMARK  6 active torsions:
REMARK  status: ('A' for Active; 'I' for Inactive)
REMARK    1  A    between atoms: C_1  and  C_2
REMARK    2  A    between atoms: C_7  and  C_9
REMARK    3  A    between atoms: C_12  and  C_13
REMARK    4  A    between atoms: C_13  and  C_14
REMARK    5  A    between atoms: C_13  and  C_15
REMARK    6  A    between atoms: C_13  and  C_16
REMARK                            x       y       z     vdW  Elec       q    Type
REMARK                         _______ _______ _______ _____ _____    ______ ____
ROOT
ATOM      1  C   UNL     1       1.904   7.266  19.806  0.00  0.00    +0.000 A 
ATOM      2  C   UNL     1       1.592   6.429  20.861  0.00  0.00    +0.000 A 
ATOM      3  N   UNL     1       1.955   5.124  20.871  0.00  0.00    +0.000 NA
ATOM      4  C   UNL     1       2.653   4.646  19.797  0.00  0.00    +0.000 A 
ATOM      5  C   UNL     1       2.970   5.531  18.751  0.00  0.00    +0.000 A 
ATOM      6 CL   UNL     1       3.852   5.117  17.334  0.00  0.00    +0.000 Cl
ATOM      7  N   UNL     1       2.602   6.844  18.724  0.00  0.00    +0.000 NA
ENDROOT
BRANCH   1  14
ATOM      8  C   UNL     1      -1.346  13.192  23.143  0.00  0.00    +0.000 C 
ATOM      9  C   UNL     1      -0.755  12.205  22.206  0.00  0.00    +0.000 A 
ATOM     10  C   UNL     1      -0.305  12.394  20.915  0.00  0.00    +0.000 A 
ATOM     11  N   UNL     1       0.246  11.285  20.310  0.00  0.00    +0.000 NA
ATOM     12  C   UNL     1       0.201  10.269  21.132  0.00  0.00    +0.000 A 
ATOM     13  N   UNL     1       0.675   9.001  20.944  0.00  0.00    +0.000 N 
ATOM     14  C   UNL     1       1.427   8.676  19.836  0.00  0.00    +0.000 C 
ATOM     15  O   UNL     1       1.760   9.416  18.918  0.00  0.00    +0.000 OA
ATOM     16  S   UNL     1      -0.527  10.560  22.650  0.00  0.00    +0.000 S 
ATOM     17  H   UNL     1       0.520   8.308  21.665  0.00  0.00    +0.000 HD
ENDBRANCH   1  14
BRANCH   4  18
ATOM     18  C   UNL     1       2.969   3.143  19.841  0.00  0.00    +0.000 C 
ATOM     19  C   UNL     1       2.603   2.549  21.232  0.00  0.00    +0.000 C 
ATOM     20  C   UNL     1       2.120   2.376  18.807  0.00  0.00    +0.000 C 
ATOM     21  C   UNL     1       4.465   2.845  19.631  0.00  0.00    +0.000 C 
ENDBRANCH   4  18
TORSDOF 2
ENDMDL
MODEL 8
REMARK VINA RESULT:      -6.1      1.687      1.882
REMARK  Name = 
REMARK  6 active torsions:
REMARK  status: ('A' for Active; 'I' for Inactive)
REMARK    1  A    between atoms: C_1  and  C_2
REMARK    2  A    between atoms: C_7  and  C_9
REMARK    3  A    between atoms: C_12  and  C_13
REMARK    4  A    between atoms: C_13  and  C_14
REMARK    5  A    between atoms: C_13  and  C_15
REMARK    6  A    between atoms: C_13  and  C_16
REMARK                            x       y       z     vdW  Elec       q    Type
REMARK                         _______ _______ _______ _____ _____    ______ ____
ROOT
ATOM      1  C   UNL     1       2.207   7.798  18.872  0.00  0.00    +0.000 A 
ATOM      2  C   UNL     1       3.017   7.609  17.766  0.00  0.00    +0.000 A 
ATOM      3  N   UNL     1       3.629   6.426  17.521  0.00  0.00    +0.000 NA
ATOM      4  C   UNL     1       3.421   5.403  18.404  0.00  0.00    +0.000 A 
ATOM      5  C   UNL     1       2.575   5.625  19.505  0.00  0.00    +0.000 A 
ATOM      6 CL   UNL     1       2.184   4.458  20.706  0.00  0.00    +0.000 Cl
ATOM      7  N   UNL     1       1.962   6.813  19.770  0.00  0.00    +0.000 NA
ENDROOT
BRANCH   1  14
ATOM      8  C   UNL     1      -1.329  12.926  23.116  0.00  0.00    +0.000 C 
ATOM      9  C   UNL     1      -0.717  12.124  22.028  0.00  0.00    +0.000 A 
ATOM     10  C   UNL     1      -0.372  12.512  20.749  0.00  0.00    +0.000 A 
ATOM     11  N   UNL     1       0.234  11.545  19.978  0.00  0.00    +0.000 NA
ATOM     12  C   UNL     1       0.335  10.436  20.664  0.00  0.00    +0.000 A 
ATOM     13  N   UNL     1       0.907   9.252  20.289  0.00  0.00    +0.000 N 
ATOM     14  C   UNL     1       1.610   9.140  19.109  0.00  0.00    +0.000 C 
ATOM     15  O   UNL     1       1.813  10.016  18.276  0.00  0.00    +0.000 OA
ATOM     16  S   UNL     1      -0.313  10.466  22.244  0.00  0.00    +0.000 S 
ATOM     17  H   UNL     1       0.863   8.464  20.922  0.00  0.00    +0.000 HD
ENDBRANCH   1  14
BRANCH   4  18
ATOM     18  C   UNL     1       4.201   4.114  18.105  0.00  0.00    +0.000 C 
ATOM     19  C   UNL     1       5.090   4.295  16.840  0.00  0.00    +0.000 C 
ATOM     20  C   UNL     1       5.162   3.776  19.263  0.00  0.00    +0.000 C 
ATOM     21  C   UNL     1       3.279   2.917  17.808  0.00  0.00    +0.000 C 
ENDBRANCH   4  18
TORSDOF 2
ENDMDL
MODEL 9
REMARK VINA RESULT:      -6.1      2.972      7.664
REMARK  Name = 
REMARK  6 active torsions:
REMARK  status: ('A' for Active; 'I' for Inactive)
REMARK    1  A    between atoms: C_1  and  C_2
REMARK    2  A    between atoms: C_7  and  C_9
REMARK    3  A    between atoms: C_12  and  C_13
REMARK    4  A    between atoms: C_13  and  C_14
REMARK    5  A    between atoms: C_13  and  C_15
REMARK    6  A    between atoms: C_13  and  C_16
REMARK                            x       y       z     vdW  Elec       q    Type
REMARK                         _______ _______ _______ _____ _____    ______ ____
ROOT
ATOM      1  C   UNL     1       1.857   8.397  19.271  0.00  0.00    +0.000 A 
ATOM      2  C   UNL     1       1.765   9.394  18.317  0.00  0.00    +0.000 A 
ATOM      3  N   UNL     1       1.144  10.570  18.568  0.00  0.00    +0.000 NA
ATOM      4  C   UNL     1       0.603  10.756  19.810  0.00  0.00    +0.000 A 
ATOM      5  C   UNL     1       0.733   9.729  20.762  0.00  0.00    +0.000 A 
ATOM      6 CL   UNL     1       0.134   9.788  22.373  0.00  0.00    +0.000 Cl
ATOM      7  N   UNL     1       1.346   8.536  20.519  0.00  0.00    +0.000 NA
ENDROOT
BRANCH   1  14
ATOM      8  C   UNL     1       6.743   4.197  15.360  0.00  0.00    +0.000 C 
ATOM      9  C   UNL     1       5.644   4.725  16.205  0.00  0.00    +0.000 A 
ATOM     10  C   UNL     1       4.865   4.064  17.133  0.00  0.00    +0.000 A 
ATOM     11  N   UNL     1       3.950   4.844  17.804  0.00  0.00    +0.000 NA
ATOM     12  C   UNL     1       4.029   6.078  17.380  0.00  0.00    +0.000 A 
ATOM     13  N   UNL     1       3.331   7.173  17.809  0.00  0.00    +0.000 N 
ATOM     14  C   UNL     1       2.506   7.108  18.910  0.00  0.00    +0.000 C 
ATOM     15  O   UNL     1       2.286   6.133  19.620  0.00  0.00    +0.000 OA
ATOM     16  S   UNL     1       5.165   6.376  16.139  0.00  0.00    +0.000 S 
ATOM     17  H   UNL     1       3.475   8.059  17.342  0.00  0.00    +0.000 HD
ENDBRANCH   1  14
BRANCH   4  18
ATOM     18  C   UNL     1      -0.149  12.082  20.003  0.00  0.00    +0.000 C 
ATOM     19  C   UNL     1      -0.025  12.970  18.731  0.00  0.00    +0.000 C 
ATOM     20  C   UNL     1      -1.657  11.830  20.208  0.00  0.00    +0.000 C 
ATOM     21  C   UNL     1       0.416  12.921  21.164  0.00  0.00    +0.000 C 
ENDBRANCH   4  18
TORSDOF 2
ENDMDL
