MODEL 1
REMARK VINA RESULT:      -8.6      0.000      0.000
REMARK  Name = 
REMARK  4 active torsions:
REMARK  status: ('A' for Active; 'I' for Inactive)
REMARK    1  A    between atoms: C_1  and  S_2
REMARK    2  A    between atoms: S_2  and  C_5
REMARK    3  A    between atoms: C_8  and  N_9
REMARK    4  A    between atoms: C_14  and  C_15
REMARK                            x       y       z     vdW  Elec       q    Type
REMARK                         _______ _______ _______ _____ _____    ______ ____
ROOT
ATOM      1  N   UNL     1       3.926   6.548  17.269  0.00  0.00    +0.000 N 
ATOM      2  C   UNL     1       4.601   7.117  16.213  0.00  0.00    +0.000 A 
ATOM      3  N   UNL     1       5.382   6.270  15.598  0.00  0.00    +0.000 NA
ATOM      4  C   UNL     1       5.178   5.075  16.229  0.00  0.00    +0.000 A 
ATOM      5 CL   UNL     1       5.965   3.677  15.636  0.00  0.00    +0.000 Cl
ATOM      6  C   UNL     1       4.249   5.181  17.269  0.00  0.00    +0.000 A 
ENDROOT
BRANCH   6   7
ATOM      7  C   UNL     1       3.618   4.114  18.083  0.00  0.00    +0.000 A 
ATOM      8  C   UNL     1       2.309   3.679  17.822  0.00  0.00    +0.000 A 
ATOM      9  C   UNL     1       1.704   2.707  18.623  0.00  0.00    +0.000 A 
ATOM     10  F   UNL     1       0.434   2.358  18.380  0.00  0.00    +0.000 F 
ATOM     11  C   UNL     1       2.389   2.096  19.659  0.00  0.00    +0.000 A 
ATOM     12  C   UNL     1       3.685   2.503  19.913  0.00  0.00    +0.000 A 
ATOM     13  F   UNL     1       4.388   1.908  20.885  0.00  0.00    +0.000 F 
ATOM     14  C   UNL     1       4.279   3.526  19.173  0.00  0.00    +0.000 A 
ENDBRANCH   6   7
BRANCH   1  18
ATOM     15  C   UNL     1       1.347   8.708  19.813  0.00  0.00    +0.000 A 
ATOM     16  C   UNL     1       1.627   9.194  18.533  0.00  0.00    +0.000 A 
ATOM     17  C   UNL     1       2.496   8.485  17.701  0.00  0.00    +0.000 A 
ATOM     18  C   UNL     1       3.081   7.288  18.148  0.00  0.00    +0.000 A 
ATOM     19  C   UNL     1       2.827   6.835  19.450  0.00  0.00    +0.000 A 
ATOM     20  C   UNL     1       1.950   7.540  20.280  0.00  0.00    +0.000 A 
BRANCH  15  22
ATOM     21  C   UNL     1      -0.789  10.513  19.776  0.00  0.00    +0.000 C 
ATOM     22  S   UNL     1       0.275   9.641  20.886  0.00  0.00    +0.000 S 
ATOM     23  O   UNL     1       1.098  10.610  21.582  0.00  0.00    +0.000 OA
ATOM     24  O   UNL     1      -0.533   8.683  21.627  0.00  0.00    +0.000 OA
ENDBRANCH  15  22
ENDBRANCH   1  18
TORSDOF 3
ENDMDL
MODEL 2
REMARK VINA RESULT:      -8.6      0.067      1.672
REMARK  Name = 
REMARK  4 active torsions:
REMARK  status: ('A' for Active; 'I' for Inactive)
REMARK    1  A    between atoms: C_1  and  S_2
REMARK    2  A    between atoms: S_2  and  C_5
REMARK    3  A    between atoms: C_8  and  N_9
REMARK    4  A    between atoms: C_14  and  C_15
REMARK                            x       y       z     vdW  Elec       q    Type
REMARK                         _______ _______ _______ _____ _____    ______ ____
ROOT
ATOM      1  N   UNL     1       3.897   6.565  17.292  0.00  0.00    +0.000 N 
ATOM      2  C   UNL     1       4.583   7.116  16.232  0.00  0.00    +0.000 A 
ATOM      3  N   UNL     1       5.360   6.255  15.631  0.00  0.00    +0.000 NA
ATOM      4  C   UNL     1       5.143   5.069  16.275  0.00  0.00    +0.000 A 
ATOM      5 CL   UNL     1       5.921   3.658  15.703  0.00  0.00    +0.000 Cl
ATOM      6  C   UNL     1       4.210   5.194  17.309  0.00  0.00    +0.000 A 
ENDROOT
BRANCH   6   7
ATOM      7  C   UNL     1       3.566   4.142  18.132  0.00  0.00    +0.000 A 
ATOM      8  C   UNL     1       4.247   3.535  19.199  0.00  0.00    +0.000 A 
ATOM      9  C   UNL     1       3.652   2.511  19.939  0.00  0.00    +0.000 A 
ATOM     10  F   UNL     1       4.352   1.915  20.913  0.00  0.00    +0.000 F 
ATOM     11  C   UNL     1       2.354   2.100  19.689  0.00  0.00    +0.000 A 
ATOM     12  C   UNL     1       1.667   2.704  18.653  0.00  0.00    +0.000 A 
ATOM     13  F   UNL     1       0.397   2.355  18.407  0.00  0.00    +0.000 F 
ATOM     14  C   UNL     1       2.272   3.674  17.854  0.00  0.00    +0.000 A 
ENDBRANCH   6   7
BRANCH   1  18
ATOM     15  C   UNL     1       1.323   8.775  19.796  0.00  0.00    +0.000 A 
ATOM     16  C   UNL     1       1.617   9.245  18.514  0.00  0.00    +0.000 A 
ATOM     17  C   UNL     1       2.485   8.520  17.695  0.00  0.00    +0.000 A 
ATOM     18  C   UNL     1       3.054   7.321  18.157  0.00  0.00    +0.000 A 
ATOM     19  C   UNL     1       2.787   6.883  19.461  0.00  0.00    +0.000 A 
ATOM     20  C   UNL     1       1.912   7.605  20.279  0.00  0.00    +0.000 A 
BRANCH  15  22
ATOM     21  C   UNL     1      -0.839  10.547  19.730  0.00  0.00    +0.000 C 
ATOM     22  S   UNL     1       0.254   9.728  20.853  0.00  0.00    +0.000 S 
ATOM     23  O   UNL     1       1.073  10.732  21.503  0.00  0.00    +0.000 OA
ATOM     24  O   UNL     1      -0.529   8.785  21.638  0.00  0.00    +0.000 OA
ENDBRANCH  15  22
ENDBRANCH   1  18
TORSDOF 3
ENDMDL
MODEL 3
REMARK VINA RESULT:      -8.6      0.787      1.395
REMARK  Name = 
REMARK  4 active torsions:
REMARK  status: ('A' for Active; 'I' for Inactive)
REMARK    1  A    between atoms: C_1  and  S_2
REMARK    2  A    between atoms: S_2  and  C_5
REMARK    3  A    between atoms: C_8  and  N_9
REMARK    4  A    between atoms: C_14  and  C_15
REMARK                            x       y       z     vdW  Elec       q    Type
REMARK                         _______ _______ _______ _____ _____    ______ ____
ROOT
ATOM      1  N   UNL     1       3.825   6.607  17.329  0.00  0.00    +0.000 N 
ATOM      2  C   UNL     1       4.562   7.131  16.290  0.00  0.00    +0.000 A 
ATOM      3  N   UNL     1       5.359   6.252  15.744  0.00  0.00    +0.000 NA
ATOM      4  C   UNL     1       5.103   5.081  16.402  0.00  0.00    +0.000 A 
ATOM      5 CL   UNL     1       5.896   3.653  15.895  0.00  0.00    +0.000 Cl
ATOM      6  C   UNL     1       4.125   5.235  17.389  0.00  0.00    +0.000 A 
ENDROOT
BRANCH   6   7
ATOM      7  C   UNL     1       3.436   4.204  18.202  0.00  0.00    +0.000 A 
ATOM      8  C   UNL     1       2.138   3.775  17.884  0.00  0.00    +0.000 A 
ATOM      9  C   UNL     1       1.476   2.839  18.683  0.00  0.00    +0.000 A 
ATOM     10  F   UNL     1       0.218   2.496  18.382  0.00  0.00    +0.000 F 
ATOM     11  C   UNL     1       2.095   2.258  19.776  0.00  0.00    +0.000 A 
ATOM     12  C   UNL     1       3.380   2.659  20.088  0.00  0.00    +0.000 A 
ATOM     13  F   UNL     1       4.020   2.091  21.118  0.00  0.00    +0.000 F 
ATOM     14  C   UNL     1       4.028   3.648  19.348  0.00  0.00    +0.000 A 
ENDBRANCH   6   7
BRANCH   1  18
ATOM     15  C   UNL     1       1.314   8.947  19.779  0.00  0.00    +0.000 A 
ATOM     16  C   UNL     1       1.855   7.758  20.274  0.00  0.00    +0.000 A 
ATOM     17  C   UNL     1       2.671   6.977  19.453  0.00  0.00    +0.000 A 
ATOM     18  C   UNL     1       2.949   7.387  18.138  0.00  0.00    +0.000 A 
ATOM     19  C   UNL     1       2.364   8.559  17.639  0.00  0.00    +0.000 A 
ATOM     20  C   UNL     1       1.554   9.346  18.463  0.00  0.00    +0.000 A 
BRANCH  15  22
ATOM     21  C   UNL     1      -0.415   8.743  21.968  0.00  0.00    +0.000 C 
ATOM     22  S   UNL     1       0.236   9.914  20.814  0.00  0.00    +0.000 S 
ATOM     23  O   UNL     1      -0.853  10.386  19.982  0.00  0.00    +0.000 OA
ATOM     24  O   UNL     1       1.072  10.853  21.549  0.00  0.00    +0.000 OA
ENDBRANCH  15  22
ENDBRANCH   1  18
TORSDOF 3
ENDMDL
MODEL 4
REMARK VINA RESULT:      -8.6      0.780      2.176
REMARK  Name = 
REMARK  4 active torsions:
REMARK  status: ('A' for Active; 'I' for Inactive)
REMARK    1  A    between atoms: C_1  and  S_2
REMARK    2  A    between atoms: S_2  and  C_5
REMARK    3  A    between atoms: C_8  and  N_9
REMARK    4  A    between atoms: C_14  and  C_15
REMARK                            x       y       z     vdW  Elec       q    Type
REMARK                         _______ _______ _______ _____ _____    ______ ____
ROOT
ATOM      1  N   UNL     1       3.828   6.584  17.334  0.00  0.00    +0.000 N 
ATOM      2  C   UNL     1       4.567   7.100  16.293  0.00  0.00    +0.000 A 
ATOM      3  N   UNL     1       5.363   6.216  15.752  0.00  0.00    +0.000 NA
ATOM      4  C   UNL     1       5.105   5.050  16.417  0.00  0.00    +0.000 A 
ATOM      5 CL   UNL     1       5.895   3.618  15.920  0.00  0.00    +0.000 Cl
ATOM      6  C   UNL     1       4.127   5.212  17.403  0.00  0.00    +0.000 A 
ENDROOT
BRANCH   6   7
ATOM      7  C   UNL     1       3.436   4.188  18.224  0.00  0.00    +0.000 A 
ATOM      8  C   UNL     1       4.058   3.613  19.343  0.00  0.00    +0.000 A 
ATOM      9  C   UNL     1       3.419   2.614  20.083  0.00  0.00    +0.000 A 
ATOM     10  F   UNL     1       4.065   2.047  21.110  0.00  0.00    +0.000 F 
ATOM     11  C   UNL     1       2.134   2.201  19.778  0.00  0.00    +0.000 A 
ATOM     12  C   UNL     1       1.505   2.773  18.690  0.00  0.00    +0.000 A 
ATOM     13  F   UNL     1       0.248   2.421  18.389  0.00  0.00    +0.000 F 
ATOM     14  C   UNL     1       2.155   3.716  17.894  0.00  0.00    +0.000 A 
ENDBRANCH   6   7
BRANCH   1  18
ATOM     15  C   UNL     1       1.321   8.944  19.770  0.00  0.00    +0.000 A 
ATOM     16  C   UNL     1       1.854   7.753  20.270  0.00  0.00    +0.000 A 
ATOM     17  C   UNL     1       2.669   6.965  19.454  0.00  0.00    +0.000 A 
ATOM     18  C   UNL     1       2.954   7.371  18.139  0.00  0.00    +0.000 A 
ATOM     19  C   UNL     1       2.377   8.545  17.635  0.00  0.00    +0.000 A 
ATOM     20  C   UNL     1       1.569   9.338  18.454  0.00  0.00    +0.000 A 
BRANCH  15  22
ATOM     21  C   UNL     1      -0.375   8.765  21.986  0.00  0.00    +0.000 C 
ATOM     22  S   UNL     1       0.245   9.920  20.799  0.00  0.00    +0.000 S 
ATOM     23  O   UNL     1      -0.861  10.359  19.972  0.00  0.00    +0.000 OA
ATOM     24  O   UNL     1       1.078  10.885  21.501  0.00  0.00    +0.000 OA
ENDBRANCH  15  22
ENDBRANCH   1  18
TORSDOF 3
ENDMDL
MODEL 5
REMARK VINA RESULT:      -8.3      3.034      4.209
REMARK  Name = 
REMARK  4 active torsions:
REMARK  status: ('A' for Active; 'I' for Inactive)
REMARK    1  A    between atoms: C_1  and  S_2
REMARK    2  A    between atoms: S_2  and  C_5
REMARK    3  A    between atoms: C_8  and  N_9
REMARK    4  A    between atoms: C_14  and  C_15
REMARK                            x       y       z     vdW  Elec       q    Type
REMARK                         _______ _______ _______ _____ _____    ______ ____
ROOT
ATOM      1  N   UNL     1       2.815   4.893  20.016  0.00  0.00    +0.000 N 
ATOM      2  C   UNL     1       2.174   4.098  20.940  0.00  0.00    +0.000 A 
ATOM      3  N   UNL     1       2.683   2.897  21.010  0.00  0.00    +0.000 NA
ATOM      4  C   UNL     1       3.740   2.906  20.145  0.00  0.00    +0.000 A 
ATOM      5 CL   UNL     1       4.733   1.518  20.030  0.00  0.00    +0.000 Cl
ATOM      6  C   UNL     1       3.892   4.144  19.513  0.00  0.00    +0.000 A 
ENDROOT
BRANCH   6   7
ATOM      7  C   UNL     1       4.993   4.633  18.648  0.00  0.00    +0.000 A 
ATOM      8  C   UNL     1       5.015   4.356  17.272  0.00  0.00    +0.000 A 
ATOM      9  C   UNL     1       6.079   4.779  16.472  0.00  0.00    +0.000 A 
ATOM     10  F   UNL     1       6.095   4.447  15.175  0.00  0.00    +0.000 F 
ATOM     11  C   UNL     1       7.116   5.534  16.992  0.00  0.00    +0.000 A 
ATOM     12  C   UNL     1       7.096   5.829  18.342  0.00  0.00    +0.000 A 
ATOM     13  F   UNL     1       8.066   6.588  18.869  0.00  0.00    +0.000 F 
ATOM     14  C   UNL     1       6.082   5.350  19.170  0.00  0.00    +0.000 A 
ENDBRANCH   6   7
BRANCH   1  18
ATOM     15  C   UNL     1       1.638   8.842  19.117  0.00  0.00    +0.000 A 
ATOM     16  C   UNL     1       1.426   8.329  20.399  0.00  0.00    +0.000 A 
ATOM     17  C   UNL     1       1.800   7.015  20.687  0.00  0.00    +0.000 A 
ATOM     18  C   UNL     1       2.391   6.215  19.694  0.00  0.00    +0.000 A 
ATOM     19  C   UNL     1       2.558   6.727  18.400  0.00  0.00    +0.000 A 
ATOM     20  C   UNL     1       2.191   8.045  18.113  0.00  0.00    +0.000 A 
BRANCH  15  22
ATOM     21  C   UNL     1       0.941  11.264  20.328  0.00  0.00    +0.000 C 
ATOM     22  S   UNL     1       1.116  10.502  18.742  0.00  0.00    +0.000 S 
ATOM     23  O   UNL     1      -0.197  10.415  18.133  0.00  0.00    +0.000 OA
ATOM     24  O   UNL     1       2.216  11.154  18.048  0.00  0.00    +0.000 OA
ENDBRANCH  15  22
ENDBRANCH   1  18
TORSDOF 3
ENDMDL
MODEL 6
REMARK VINA RESULT:      -8.3      3.025      4.450
REMARK  Name = 
REMARK  4 active torsions:
REMARK  status: ('A' for Active; 'I' for Inactive)
REMARK    1  A    between atoms: C_1  and  S_2
REMARK    2  A    between atoms: S_2  and  C_5
REMARK    3  A    between atoms: C_8  and  N_9
REMARK    4  A    between atoms: C_14  and  C_15
REMARK                            x       y       z     vdW  Elec       q    Type
REMARK                         _______ _______ _______ _____ _____    ______ ____
ROOT
ATOM      1  N   UNL     1       2.837   4.871  19.998  0.00  0.00    +0.000 N 
ATOM      2  C   UNL     1       2.208   4.069  20.924  0.00  0.00    +0.000 A 
ATOM      3  N   UNL     1       2.722   2.870  20.985  0.00  0.00    +0.000 NA
ATOM      4  C   UNL     1       3.773   2.888  20.110  0.00  0.00    +0.000 A 
ATOM      5 CL   UNL     1       4.770   1.505  19.982  0.00  0.00    +0.000 Cl
ATOM      6  C   UNL     1       3.914   4.129  19.482  0.00  0.00    +0.000 A 
ENDROOT
BRANCH   6   7
ATOM      7  C   UNL     1       5.005   4.626  18.611  0.00  0.00    +0.000 A 
ATOM      8  C   UNL     1       6.070   5.376  19.135  0.00  0.00    +0.000 A 
ATOM      9  C   UNL     1       7.070   5.882  18.301  0.00  0.00    +0.000 A 
ATOM     10  F   UNL     1       8.039   6.641  18.828  0.00  0.00    +0.000 F 
ATOM     11  C   UNL     1       7.081   5.614  16.943  0.00  0.00    +0.000 A 
ATOM     12  C   UNL     1       6.048   4.861  16.418  0.00  0.00    +0.000 A 
ATOM     13  F   UNL     1       6.047   4.553  15.115  0.00  0.00    +0.000 F 
ATOM     14  C   UNL     1       5.000   4.412  17.223  0.00  0.00    +0.000 A 
ENDBRANCH   6   7
BRANCH   1  18
ATOM     15  C   UNL     1       1.635   8.818  19.125  0.00  0.00    +0.000 A 
ATOM     16  C   UNL     1       1.429   8.296  20.404  0.00  0.00    +0.000 A 
ATOM     17  C   UNL     1       1.812   6.983  20.684  0.00  0.00    +0.000 A 
ATOM     18  C   UNL     1       2.405   6.193  19.685  0.00  0.00    +0.000 A 
ATOM     19  C   UNL     1       2.565   6.713  18.393  0.00  0.00    +0.000 A 
ATOM     20  C   UNL     1       2.190   8.031  18.115  0.00  0.00    +0.000 A 
BRANCH  15  22
ATOM     21  C   UNL     1       0.929  11.230  20.353  0.00  0.00    +0.000 C 
ATOM     22  S   UNL     1       1.102  10.477  18.762  0.00  0.00    +0.000 S 
ATOM     23  O   UNL     1      -0.213  10.386  18.158  0.00  0.00    +0.000 OA
ATOM     24  O   UNL     1       2.195  11.139  18.066  0.00  0.00    +0.000 OA
ENDBRANCH  15  22
ENDBRANCH   1  18
TORSDOF 3
ENDMDL
MODEL 7
REMARK VINA RESULT:      -8.3      3.013      4.113
REMARK  Name = 
REMARK  4 active torsions:
REMARK  status: ('A' for Active; 'I' for Inactive)
REMARK    1  A    between atoms: C_1  and  S_2
REMARK    2  A    between atoms: S_2  and  C_5
REMARK    3  A    between atoms: C_8  and  N_9
REMARK    4  A    between atoms: C_14  and  C_15
REMARK                            x       y       z     vdW  Elec       q    Type
REMARK                         _______ _______ _______ _____ _____    ______ ____
ROOT
ATOM      1  N   UNL     1       2.679   5.275  19.982  0.00  0.00    +0.000 N 
ATOM      2  C   UNL     1       2.018   4.423  20.838  0.00  0.00    +0.000 A 
ATOM      3  N   UNL     1       2.502   3.210  20.818  0.00  0.00    +0.000 NA
ATOM      4  C   UNL     1       3.565   3.265  19.960  0.00  0.00    +0.000 A 
ATOM      5 CL   UNL     1       4.531   1.871  19.742  0.00  0.00    +0.000 Cl
ATOM      6  C   UNL     1       3.744   4.545  19.426  0.00  0.00    +0.000 A 
ENDROOT
BRANCH   6   7
ATOM      7  C   UNL     1       4.859   5.078  18.606  0.00  0.00    +0.000 A 
ATOM      8  C   UNL     1       4.746   5.193  17.212  0.00  0.00    +0.000 A 
ATOM      9  C   UNL     1       5.817   5.651  16.441  0.00  0.00    +0.000 A 
ATOM     10  F   UNL     1       5.693   5.693  15.109  0.00  0.00    +0.000 F 
ATOM     11  C   UNL     1       7.002   6.063  17.025  0.00  0.00    +0.000 A 
ATOM     12  C   UNL     1       7.119   5.971  18.399  0.00  0.00    +0.000 A 
ATOM     13  F   UNL     1       8.239   6.395  18.999  0.00  0.00    +0.000 F 
ATOM     14  C   UNL     1       6.088   5.445  19.178  0.00  0.00    +0.000 A 
ENDBRANCH   6   7
BRANCH   1  18
ATOM     15  C   UNL     1       1.428   9.239  19.272  0.00  0.00    +0.000 A 
ATOM     16  C   UNL     1       2.058   8.517  18.255  0.00  0.00    +0.000 A 
ATOM     17  C   UNL     1       2.487   7.211  18.500  0.00  0.00    +0.000 A 
ATOM     18  C   UNL     1       2.282   6.626  19.761  0.00  0.00    +0.000 A 
ATOM     19  C   UNL     1       1.688   7.376  20.786  0.00  0.00    +0.000 A 
ATOM     20  C   UNL     1       1.251   8.680  20.539  0.00  0.00    +0.000 A 
BRANCH  15  22
ATOM     21  C   UNL     1       0.769  11.618  20.585  0.00  0.00    +0.000 C 
ATOM     22  S   UNL     1       0.925  10.919  18.968  0.00  0.00    +0.000 S 
ATOM     23  O   UNL     1      -0.391  10.874  18.364  0.00  0.00    +0.000 OA
ATOM     24  O   UNL     1       2.030  11.585  18.294  0.00  0.00    +0.000 OA
ENDBRANCH  15  22
ENDBRANCH   1  18
TORSDOF 3
ENDMDL
MODEL 8
REMARK VINA RESULT:      -8.3      1.406      1.860
REMARK  Name = 
REMARK  4 active torsions:
REMARK  status: ('A' for Active; 'I' for Inactive)
REMARK    1  A    between atoms: C_1  and  S_2
REMARK    2  A    between atoms: S_2  and  C_5
REMARK    3  A    between atoms: C_8  and  N_9
REMARK    4  A    between atoms: C_14  and  C_15
REMARK                            x       y       z     vdW  Elec       q    Type
REMARK                         _______ _______ _______ _____ _____    ______ ____
ROOT
ATOM      1  N   UNL     1       3.361   6.826  17.813  0.00  0.00    +0.000 N 
ATOM      2  C   UNL     1       4.175   7.226  16.777  0.00  0.00    +0.000 A 
ATOM      3  N   UNL     1       4.908   6.253  16.306  0.00  0.00    +0.000 NA
ATOM      4  C   UNL     1       4.529   5.147  17.014  0.00  0.00    +0.000 A 
ATOM      5 CL   UNL     1       5.208   3.630  16.611  0.00  0.00    +0.000 Cl
ATOM      6  C   UNL     1       3.537   5.439  17.955  0.00  0.00    +0.000 A 
ENDROOT
BRANCH   6   7
ATOM      7  C   UNL     1       2.734   4.518  18.795  0.00  0.00    +0.000 A 
ATOM      8  C   UNL     1       1.764   3.676  18.228  0.00  0.00    +0.000 A 
ATOM      9  C   UNL     1       0.978   2.845  19.031  0.00  0.00    +0.000 A 
ATOM     10  F   UNL     1       0.024   2.098  18.462  0.00  0.00    +0.000 F 
ATOM     11  C   UNL     1       1.166   2.778  20.401  0.00  0.00    +0.000 A 
ATOM     12  C   UNL     1       2.130   3.589  20.968  0.00  0.00    +0.000 A 
ATOM     13  F   UNL     1       2.361   3.523  22.285  0.00  0.00    +0.000 F 
ATOM     14  C   UNL     1       2.872   4.480  20.192  0.00  0.00    +0.000 A 
ENDBRANCH   6   7
BRANCH   1  18
ATOM     15  C   UNL     1       0.991   9.510  20.041  0.00  0.00    +0.000 A 
ATOM     16  C   UNL     1       1.465   8.340  20.640  0.00  0.00    +0.000 A 
ATOM     17  C   UNL     1       2.234   7.445  19.893  0.00  0.00    +0.000 A 
ATOM     18  C   UNL     1       2.532   7.723  18.548  0.00  0.00    +0.000 A 
ATOM     19  C   UNL     1       2.014   8.878  17.946  0.00  0.00    +0.000 A 
ATOM     20  C   UNL     1       1.251   9.778  18.696  0.00  0.00    +0.000 A 
BRANCH  15  22
ATOM     21  C   UNL     1      -0.519   9.669  22.389  0.00  0.00    +0.000 C 
ATOM     22  S   UNL     1      -0.028  10.624  20.984  0.00  0.00    +0.000 S 
ATOM     23  O   UNL     1      -1.209  10.905  20.192  0.00  0.00    +0.000 OA
ATOM     24  O   UNL     1       0.829  11.704  21.450  0.00  0.00    +0.000 OA
ENDBRANCH  15  22
ENDBRANCH   1  18
TORSDOF 3
ENDMDL
MODEL 9
REMARK VINA RESULT:      -8.3      3.018      4.413
REMARK  Name = 
REMARK  4 active torsions:
REMARK  status: ('A' for Active; 'I' for Inactive)
REMARK    1  A    between atoms: C_1  and  S_2
REMARK    2  A    between atoms: S_2  and  C_5
REMARK    3  A    between atoms: C_8  and  N_9
REMARK    4  A    between atoms: C_14  and  C_15
REMARK                            x       y       z     vdW  Elec       q    Type
REMARK                         _______ _______ _______ _____ _____    ______ ____
ROOT
ATOM      1  N   UNL     1       2.692   5.271  19.978  0.00  0.00    +0.000 N 
ATOM      2  C   UNL     1       2.036   4.421  20.840  0.00  0.00    +0.000 A 
ATOM      3  N   UNL     1       2.522   3.209  20.822  0.00  0.00    +0.000 NA
ATOM      4  C   UNL     1       3.581   3.263  19.959  0.00  0.00    +0.000 A 
ATOM      5 CL   UNL     1       4.547   1.869  19.742  0.00  0.00    +0.000 Cl
ATOM      6  C   UNL     1       3.756   4.541  19.420  0.00  0.00    +0.000 A 
ENDROOT
BRANCH   6   7
ATOM      7  C   UNL     1       4.867   5.072  18.594  0.00  0.00    +0.000 A 
ATOM      8  C   UNL     1       6.084   5.460  19.176  0.00  0.00    +0.000 A 
ATOM      9  C   UNL     1       7.109   6.004  18.398  0.00  0.00    +0.000 A 
ATOM     10  F   UNL     1       8.234   6.417  18.994  0.00  0.00    +0.000 F 
ATOM     11  C   UNL     1       6.986   6.124  17.024  0.00  0.00    +0.000 A 
ATOM     12  C   UNL     1       5.799   5.728  16.438  0.00  0.00    +0.000 A 
ATOM     13  F   UNL     1       5.661   5.798  15.108  0.00  0.00    +0.000 F 
ATOM     14  C   UNL     1       4.737   5.254  17.208  0.00  0.00    +0.000 A 
ENDBRANCH   6   7
BRANCH   1  18
ATOM     15  C   UNL     1       1.434   9.231  19.261  0.00  0.00    +0.000 A 
ATOM     16  C   UNL     1       2.061   8.507  18.244  0.00  0.00    +0.000 A 
ATOM     17  C   UNL     1       2.492   7.202  18.491  0.00  0.00    +0.000 A 
ATOM     18  C   UNL     1       2.293   6.621  19.755  0.00  0.00    +0.000 A 
ATOM     19  C   UNL     1       1.703   7.373  20.780  0.00  0.00    +0.000 A 
ATOM     20  C   UNL     1       1.262   8.676  20.530  0.00  0.00    +0.000 A 
BRANCH  15  22
ATOM     21  C   UNL     1       0.777  11.614  20.569  0.00  0.00    +0.000 C 
ATOM     22  S   UNL     1       0.928  10.910  18.954  0.00  0.00    +0.000 S 
ATOM     23  O   UNL     1      -0.391  10.861  18.355  0.00  0.00    +0.000 OA
ATOM     24  O   UNL     1       2.029  11.575  18.274  0.00  0.00    +0.000 OA
ENDBRANCH  15  22
ENDBRANCH   1  18
TORSDOF 3
ENDMDL
