MODEL 1
REMARK VINA RESULT:      -8.1      0.000      0.000
REMARK  Name = 
REMARK  8 active torsions:
REMARK  status: ('A' for Active; 'I' for Inactive)
REMARK    1  A    between atoms: C_2  and  O_3
REMARK    2  A    between atoms: C_2  and  C_4
REMARK    3  A    between atoms: C_4  and  C_5
REMARK    4  A    between atoms: C_5  and  O_6
REMARK    5  A    between atoms: O_6  and  C_7
REMARK    6  A    between atoms: C_10  and  C_11
REMARK    7  A    between atoms: C_14  and  C_15
REMARK    8  A    between atoms: C_17  and  C_18
REMARK                            x       y       z     vdW  Elec       q    Type
REMARK                         _______ _______ _______ _____ _____    ______ ____
ROOT
ATOM      1  C   UNL     1       1.297   8.515  20.189  0.00  0.00    +0.000 A 
ATOM      2  C   UNL     1       1.688   8.843  18.889  0.00  0.00    +0.000 A 
ATOM      3  C   UNL     1       2.390   7.913  18.125  0.00  0.00    +0.000 A 
ATOM      4  C   UNL     1       2.691   6.664  18.659  0.00  0.00    +0.000 A 
ATOM      5  C   UNL     1       2.288   6.428  19.969  0.00  0.00    +0.000 A 
ATOM      6  N   UNL     1       1.602   7.312  20.736  0.00  0.00    +0.000 NA
ENDROOT
BRANCH   1  10
ATOM      7  C   UNL     1      -1.146  11.125  22.599  0.00  0.00    +0.000 A 
ATOM      8  C   UNL     1      -0.892  11.419  21.259  0.00  0.00    +0.000 A 
ATOM      9  C   UNL     1      -0.104  10.569  20.484  0.00  0.00    +0.000 A 
ATOM     10  C   UNL     1       0.503   9.430  21.032  0.00  0.00    +0.000 A 
ATOM     11  C   UNL     1       0.302   9.194  22.406  0.00  0.00    +0.000 A 
ATOM     12  C   UNL     1      -0.505  10.037  23.185  0.00  0.00    +0.000 A 
BRANCH   7  13
ATOM     13  O   UNL     1      -2.038  11.823  23.382  0.00  0.00    +0.000 OA
BRANCH  13  14
ATOM     14  C   UNL     1      -2.586  12.966  22.702  0.00  0.00    +0.000 C 
BRANCH  14  15
ATOM     15  C   UNL     1      -4.072  13.053  22.929  0.00  0.00    +0.000 C 
ATOM     16  C   UNL     1      -5.038  12.722  21.796  0.00  0.00    +0.000 C 
ATOM     17  C   UNL     1      -4.762  14.156  22.130  0.00  0.00    +0.000 C 
BRANCH  15  19
ATOM     18  O   UNL     1      -5.388  11.912  24.555  0.00  0.00    +0.000 OA
ATOM     19  C   UNL     1      -4.544  12.756  24.313  0.00  0.00    +0.000 C 
BRANCH  19  20
ATOM     20  O   UNL     1      -3.921  13.498  25.258  0.00  0.00    +0.000 OA
ATOM     21  H   UNL     1      -3.968  14.455  25.047  0.00  0.00    +0.000 HD
ENDBRANCH  19  20
ENDBRANCH  15  19
ENDBRANCH  14  15
ENDBRANCH  13  14
ENDBRANCH   7  13
ENDBRANCH   1  10
BRANCH   4  22
ATOM     22  C   UNL     1       3.416   5.678  17.863  0.00  0.00    +0.000 A 
ATOM     23  N   UNL     1       4.428   5.929  17.057  0.00  0.00    +0.000 NA
ATOM     24  C   UNL     1       4.820   4.714  16.507  0.00  0.00    +0.000 A 
ATOM     25  C   UNL     1       3.979   3.721  16.975  0.00  0.00    +0.000 A 
ATOM     26  N   UNL     1       3.103   4.340  17.820  0.00  0.00    +0.000 N 
ATOM     27  H   UNL     1       2.336   3.900  18.311  0.00  0.00    +0.000 HD
BRANCH  24  28
ATOM     28  C   UNL     1       5.983   4.583  15.566  0.00  0.00    +0.000 C 
ATOM     29  F   UNL     1       5.856   5.335  14.442  0.00  0.00    +0.000 F 
ATOM     30  F   UNL     1       7.148   4.961  16.160  0.00  0.00    +0.000 F 
ATOM     31  F   UNL     1       6.159   3.296  15.161  0.00  0.00    +0.000 F 
ENDBRANCH  24  28
ENDBRANCH   4  22
TORSDOF 8
ENDMDL
MODEL 2
REMARK VINA RESULT:      -7.9      6.930     11.361
REMARK  Name = 
REMARK  8 active torsions:
REMARK  status: ('A' for Active; 'I' for Inactive)
REMARK    1  A    between atoms: C_2  and  O_3
REMARK    2  A    between atoms: C_2  and  C_4
REMARK    3  A    between atoms: C_4  and  C_5
REMARK    4  A    between atoms: C_5  and  O_6
REMARK    5  A    between atoms: O_6  and  C_7
REMARK    6  A    between atoms: C_10  and  C_11
REMARK    7  A    between atoms: C_14  and  C_15
REMARK    8  A    between atoms: C_17  and  C_18
REMARK                            x       y       z     vdW  Elec       q    Type
REMARK                         _______ _______ _______ _____ _____    ______ ____
ROOT
ATOM      1  C   UNL     1       1.403   8.434  19.962  0.00  0.00    +0.000 A 
ATOM      2  C   UNL     1       0.916   8.401  21.270  0.00  0.00    +0.000 A 
ATOM      3  C   UNL     1       0.037   9.391  21.703  0.00  0.00    +0.000 A 
ATOM      4  C   UNL     1      -0.354  10.401  20.830  0.00  0.00    +0.000 A 
ATOM      5  C   UNL     1       0.197  10.375  19.553  0.00  0.00    +0.000 A 
ATOM      6  N   UNL     1       1.053   9.424  19.103  0.00  0.00    +0.000 NA
ENDROOT
BRANCH   1  10
ATOM      7  C   UNL     1       4.116   5.454  18.429  0.00  0.00    +0.000 A 
ATOM      8  C   UNL     1       3.847   6.616  17.705  0.00  0.00    +0.000 A 
ATOM      9  C   UNL     1       2.972   7.578  18.208  0.00  0.00    +0.000 A 
ATOM     10  C   UNL     1       2.292   7.387  19.420  0.00  0.00    +0.000 A 
ATOM     11  C   UNL     1       2.514   6.173  20.096  0.00  0.00    +0.000 A 
ATOM     12  C   UNL     1       3.408   5.211  19.603  0.00  0.00    +0.000 A 
BRANCH   7  13
ATOM     13  O   UNL     1       5.083   4.539  18.079  0.00  0.00    +0.000 OA
BRANCH  13  14
ATOM     14  C   UNL     1       4.913   4.048  16.738  0.00  0.00    +0.000 C 
BRANCH  14  15
ATOM     15  C   UNL     1       6.030   4.532  15.851  0.00  0.00    +0.000 C 
ATOM     16  C   UNL     1       5.710   5.221  14.529  0.00  0.00    +0.000 C 
ATOM     17  C   UNL     1       6.142   3.787  14.524  0.00  0.00    +0.000 C 
BRANCH  15  19
ATOM     18  O   UNL     1       8.076   4.185  17.022  0.00  0.00    +0.000 OA
ATOM     19  C   UNL     1       7.276   4.970  16.545  0.00  0.00    +0.000 C 
BRANCH  19  20
ATOM     20  O   UNL     1       7.430   6.315  16.564  0.00  0.00    +0.000 OA
ATOM     21  H   UNL     1       8.231   6.588  16.068  0.00  0.00    +0.000 HD
ENDBRANCH  19  20
ENDBRANCH  15  19
ENDBRANCH  14  15
ENDBRANCH  13  14
ENDBRANCH   7  13
ENDBRANCH   1  10
BRANCH   4  22
ATOM     22  C   UNL     1      -1.283  11.437  21.271  0.00  0.00    +0.000 A 
ATOM     23  N   UNL     1      -1.722  11.609  22.501  0.00  0.00    +0.000 NA
ATOM     24  C   UNL     1      -2.577  12.706  22.478  0.00  0.00    +0.000 A 
ATOM     25  C   UNL     1      -2.676  13.165  21.178  0.00  0.00    +0.000 A 
ATOM     26  N   UNL     1      -1.864  12.360  20.432  0.00  0.00    +0.000 N 
ATOM     27  H   UNL     1      -1.730  12.410  19.431  0.00  0.00    +0.000 HD
BRANCH  24  28
ATOM     28  C   UNL     1      -3.245  13.244  23.711  0.00  0.00    +0.000 C 
ATOM     29  F   UNL     1      -2.411  13.963  24.507  0.00  0.00    +0.000 F 
ATOM     30  F   UNL     1      -4.287  14.061  23.395  0.00  0.00    +0.000 F 
ATOM     31  F   UNL     1      -3.759  12.246  24.479  0.00  0.00    +0.000 F 
ENDBRANCH  24  28
ENDBRANCH   4  22
TORSDOF 8
ENDMDL
MODEL 3
REMARK VINA RESULT:      -7.8      0.522      1.395
REMARK  Name = 
REMARK  8 active torsions:
REMARK  status: ('A' for Active; 'I' for Inactive)
REMARK    1  A    between atoms: C_2  and  O_3
REMARK    2  A    between atoms: C_2  and  C_4
REMARK    3  A    between atoms: C_4  and  C_5
REMARK    4  A    between atoms: C_5  and  O_6
REMARK    5  A    between atoms: O_6  and  C_7
REMARK    6  A    between atoms: C_10  and  C_11
REMARK    7  A    between atoms: C_14  and  C_15
REMARK    8  A    between atoms: C_17  and  C_18
REMARK                            x       y       z     vdW  Elec       q    Type
REMARK                         _______ _______ _______ _____ _____    ______ ____
ROOT
ATOM      1  C   UNL     1       1.488   8.315  19.968  0.00  0.00    +0.000 A 
ATOM      2  C   UNL     1       1.924   8.653  18.685  0.00  0.00    +0.000 A 
ATOM      3  C   UNL     1       2.653   7.730  17.940  0.00  0.00    +0.000 A 
ATOM      4  C   UNL     1       2.938   6.477  18.474  0.00  0.00    +0.000 A 
ATOM      5  C   UNL     1       2.489   6.230  19.767  0.00  0.00    +0.000 A 
ATOM      6  N   UNL     1       1.775   7.108  20.516  0.00  0.00    +0.000 NA
ENDROOT
BRANCH   1  10
ATOM      7  C   UNL     1      -0.796  11.033  22.415  0.00  0.00    +0.000 A 
ATOM      8  C   UNL     1      -0.194   9.905  22.971  0.00  0.00    +0.000 A 
ATOM      9  C   UNL     1       0.547   9.031  22.176  0.00  0.00    +0.000 A 
ATOM     10  C   UNL     1       0.663   9.222  20.791  0.00  0.00    +0.000 A 
ATOM     11  C   UNL     1      -0.019  10.321  20.235  0.00  0.00    +0.000 A 
ATOM     12  C   UNL     1      -0.750  11.212  21.035  0.00  0.00    +0.000 A 
BRANCH   7  13
ATOM     13  O   UNL     1      -1.404  12.021  23.155  0.00  0.00    +0.000 OA
BRANCH  13  14
ATOM     14  C   UNL     1      -1.998  13.038  22.330  0.00  0.00    +0.000 C 
BRANCH  14  15
ATOM     15  C   UNL     1      -3.461  13.192  22.651  0.00  0.00    +0.000 C 
ATOM     16  C   UNL     1      -4.515  12.698  21.664  0.00  0.00    +0.000 C 
ATOM     17  C   UNL     1      -4.204  14.161  21.734  0.00  0.00    +0.000 C 
BRANCH  15  19
ATOM     18  O   UNL     1      -3.666  14.075  24.854  0.00  0.00    +0.000 OA
ATOM     19  C   UNL     1      -3.826  13.135  24.096  0.00  0.00    +0.000 C 
BRANCH  19  20
ATOM     20  O   UNL     1      -4.369  11.951  24.462  0.00  0.00    +0.000 OA
ATOM     21  H   UNL     1      -3.820  11.502  25.139  0.00  0.00    +0.000 HD
ENDBRANCH  19  20
ENDBRANCH  15  19
ENDBRANCH  14  15
ENDBRANCH  13  14
ENDBRANCH   7  13
ENDBRANCH   1  10
BRANCH   4  22
ATOM     22  C   UNL     1       3.692   5.499  17.697  0.00  0.00    +0.000 A 
ATOM     23  N   UNL     1       4.689   5.766  16.877  0.00  0.00    +0.000 NA
ATOM     24  C   UNL     1       5.120   4.552  16.354  0.00  0.00    +0.000 A 
ATOM     25  C   UNL     1       4.318   3.542  16.852  0.00  0.00    +0.000 A 
ATOM     26  N   UNL     1       3.426   4.149  17.688  0.00  0.00    +0.000 N 
ATOM     27  H   UNL     1       2.679   3.695  18.195  0.00  0.00    +0.000 HD
BRANCH  24  28
ATOM     28  C   UNL     1       6.280   4.439  15.407  0.00  0.00    +0.000 C 
ATOM     29  F   UNL     1       7.487   4.417  16.030  0.00  0.00    +0.000 F 
ATOM     30  F   UNL     1       6.204   3.304  14.660  0.00  0.00    +0.000 F 
ATOM     31  F   UNL     1       6.311   5.476  14.527  0.00  0.00    +0.000 F 
ENDBRANCH  24  28
ENDBRANCH   4  22
TORSDOF 8
ENDMDL
MODEL 4
REMARK VINA RESULT:      -7.8      6.949     11.291
REMARK  Name = 
REMARK  8 active torsions:
REMARK  status: ('A' for Active; 'I' for Inactive)
REMARK    1  A    between atoms: C_2  and  O_3
REMARK    2  A    between atoms: C_2  and  C_4
REMARK    3  A    between atoms: C_4  and  C_5
REMARK    4  A    between atoms: C_5  and  O_6
REMARK    5  A    between atoms: O_6  and  C_7
REMARK    6  A    between atoms: C_10  and  C_11
REMARK    7  A    between atoms: C_14  and  C_15
REMARK    8  A    between atoms: C_17  and  C_18
REMARK                            x       y       z     vdW  Elec       q    Type
REMARK                         _______ _______ _______ _____ _____    ______ ____
ROOT
ATOM      1  C   UNL     1       0.633   9.227  20.968  0.00  0.00    +0.000 A 
ATOM      2  C   UNL     1       0.056   8.901  22.197  0.00  0.00    +0.000 A 
ATOM      3  C   UNL     1      -0.696   9.855  22.879  0.00  0.00    +0.000 A 
ATOM      4  C   UNL     1      -0.873  11.121  22.330  0.00  0.00    +0.000 A 
ATOM      5  C   UNL     1      -0.243  11.371  21.115  0.00  0.00    +0.000 A 
ATOM      6  N   UNL     1       0.493  10.463  20.427  0.00  0.00    +0.000 NA
ENDROOT
BRANCH   1  10
ATOM      7  C   UNL     1       2.981   6.441  18.662  0.00  0.00    +0.000 A 
ATOM      8  C   UNL     1       2.623   7.682  18.135  0.00  0.00    +0.000 A 
ATOM      9  C   UNL     1       1.867   8.580  18.887  0.00  0.00    +0.000 A 
ATOM     10  C   UNL     1       1.394   8.249  20.165  0.00  0.00    +0.000 A 
ATOM     11  C   UNL     1       1.696   6.961  20.647  0.00  0.00    +0.000 A 
ATOM     12  C   UNL     1       2.472   6.061  19.901  0.00  0.00    +0.000 A 
BRANCH   7  13
ATOM     13  O   UNL     1       3.854   5.571  18.049  0.00  0.00    +0.000 OA
BRANCH  13  14
ATOM     14  C   UNL     1       4.807   6.248  17.212  0.00  0.00    +0.000 C 
BRANCH  14  15
ATOM     15  C   UNL     1       6.213   5.919  17.637  0.00  0.00    +0.000 C 
ATOM     16  C   UNL     1       7.337   6.924  17.403  0.00  0.00    +0.000 C 
ATOM     17  C   UNL     1       7.194   5.753  16.479  0.00  0.00    +0.000 C 
BRANCH  15  19
ATOM     18  O   UNL     1       6.843   5.418  19.880  0.00  0.00    +0.000 OA
ATOM     19  C   UNL     1       6.348   5.038  18.834  0.00  0.00    +0.000 C 
BRANCH  19  20
ATOM     20  O   UNL     1       5.843   3.797  18.641  0.00  0.00    +0.000 OA
ATOM     21  H   UNL     1       4.873   3.781  18.786  0.00  0.00    +0.000 HD
ENDBRANCH  19  20
ENDBRANCH  15  19
ENDBRANCH  14  15
ENDBRANCH  13  14
ENDBRANCH   7  13
ENDBRANCH   1  10
BRANCH   4  22
ATOM     22  C   UNL     1      -1.668  12.124  23.031  0.00  0.00    +0.000 A 
ATOM     23  N   UNL     1      -1.232  13.287  23.472  0.00  0.00    +0.000 NA
ATOM     24  C   UNL     1      -2.312  13.926  24.069  0.00  0.00    +0.000 A 
ATOM     25  C   UNL     1      -3.411  13.088  24.015  0.00  0.00    +0.000 A 
ATOM     26  N   UNL     1      -2.992  11.962  23.366  0.00  0.00    +0.000 N 
ATOM     27  H   UNL     1      -3.547  11.137  23.185  0.00  0.00    +0.000 HD
BRANCH  24  28
ATOM     28  C   UNL     1      -2.220  15.306  24.654  0.00  0.00    +0.000 C 
ATOM     29  F   UNL     1      -2.621  15.372  25.950  0.00  0.00    +0.000 F 
ATOM     30  F   UNL     1      -0.944  15.778  24.614  0.00  0.00    +0.000 F 
ATOM     31  F   UNL     1      -2.981  16.196  23.962  0.00  0.00    +0.000 F 
ENDBRANCH  24  28
ENDBRANCH   4  22
TORSDOF 8
ENDMDL
MODEL 5
REMARK VINA RESULT:      -7.8      0.591      1.124
REMARK  Name = 
REMARK  8 active torsions:
REMARK  status: ('A' for Active; 'I' for Inactive)
REMARK    1  A    between atoms: C_2  and  O_3
REMARK    2  A    between atoms: C_2  and  C_4
REMARK    3  A    between atoms: C_4  and  C_5
REMARK    4  A    between atoms: C_5  and  O_6
REMARK    5  A    between atoms: O_6  and  C_7
REMARK    6  A    between atoms: C_10  and  C_11
REMARK    7  A    between atoms: C_14  and  C_15
REMARK    8  A    between atoms: C_17  and  C_18
REMARK                            x       y       z     vdW  Elec       q    Type
REMARK                         _______ _______ _______ _____ _____    ______ ____
ROOT
ATOM      1  C   UNL     1       1.284   8.163  20.295  0.00  0.00    +0.000 A 
ATOM      2  C   UNL     1       1.512   6.879  20.795  0.00  0.00    +0.000 A 
ATOM      3  C   UNL     1       2.259   5.971  20.049  0.00  0.00    +0.000 A 
ATOM      4  C   UNL     1       2.778   6.349  18.814  0.00  0.00    +0.000 A 
ATOM      5  C   UNL     1       2.483   7.636  18.378  0.00  0.00    +0.000 A 
ATOM      6  N   UNL     1       1.761   8.543  19.083  0.00  0.00    +0.000 NA
ENDROOT
BRANCH   1  10
ATOM      7  C   UNL     1      -0.987  11.116  22.464  0.00  0.00    +0.000 A 
ATOM      8  C   UNL     1      -0.656  11.311  21.123  0.00  0.00    +0.000 A 
ATOM      9  C   UNL     1       0.074  10.351  20.426  0.00  0.00    +0.000 A 
ATOM     10  C   UNL     1       0.551   9.192  21.057  0.00  0.00    +0.000 A 
ATOM     11  C   UNL     1       0.278   9.052  22.431  0.00  0.00    +0.000 A 
ATOM     12  C   UNL     1      -0.474  10.007  23.132  0.00  0.00    +0.000 A 
BRANCH   7  13
ATOM     13  O   UNL     1      -1.836  11.936  23.172  0.00  0.00    +0.000 OA
BRANCH  13  14
ATOM     14  C   UNL     1      -2.533  12.866  22.326  0.00  0.00    +0.000 C 
BRANCH  14  15
ATOM     15  C   UNL     1      -3.947  13.061  22.806  0.00  0.00    +0.000 C 
ATOM     16  C   UNL     1      -5.117  12.804  21.860  0.00  0.00    +0.000 C 
ATOM     17  C   UNL     1      -4.684  14.213  22.128  0.00  0.00    +0.000 C 
BRANCH  15  19
ATOM     18  O   UNL     1      -4.796  11.815  24.651  0.00  0.00    +0.000 OA
ATOM     19  C   UNL     1      -4.191  12.795  24.253  0.00  0.00    +0.000 C 
BRANCH  19  20
ATOM     20  O   UNL     1      -3.653  13.735  25.065  0.00  0.00    +0.000 OA
ATOM     21  H   UNL     1      -4.340  14.158  25.623  0.00  0.00    +0.000 HD
ENDBRANCH  19  20
ENDBRANCH  15  19
ENDBRANCH  14  15
ENDBRANCH  13  14
ENDBRANCH   7  13
ENDBRANCH   1  10
BRANCH   4  22
ATOM     22  C   UNL     1       3.571   5.408  18.029  0.00  0.00    +0.000 A 
ATOM     23  N   UNL     1       4.535   5.724  17.188  0.00  0.00    +0.000 NA
ATOM     24  C   UNL     1       5.024   4.532  16.665  0.00  0.00    +0.000 A 
ATOM     25  C   UNL     1       4.291   3.483  17.187  0.00  0.00    +0.000 A 
ATOM     26  N   UNL     1       3.382   4.046  18.036  0.00  0.00    +0.000 N 
ATOM     27  H   UNL     1       2.672   3.555  18.561  0.00  0.00    +0.000 HD
BRANCH  24  28
ATOM     28  C   UNL     1       6.171   4.478  15.696  0.00  0.00    +0.000 C 
ATOM     29  F   UNL     1       6.129   3.401  14.870  0.00  0.00    +0.000 F 
ATOM     30  F   UNL     1       6.200   5.582  14.900  0.00  0.00    +0.000 F 
ATOM     31  F   UNL     1       7.369   4.436  16.338  0.00  0.00    +0.000 F 
ENDBRANCH  24  28
ENDBRANCH   4  22
TORSDOF 8
ENDMDL
MODEL 6
REMARK VINA RESULT:      -7.8      6.985     11.457
REMARK  Name = 
REMARK  8 active torsions:
REMARK  status: ('A' for Active; 'I' for Inactive)
REMARK    1  A    between atoms: C_2  and  O_3
REMARK    2  A    between atoms: C_2  and  C_4
REMARK    3  A    between atoms: C_4  and  C_5
REMARK    4  A    between atoms: C_5  and  O_6
REMARK    5  A    between atoms: O_6  and  C_7
REMARK    6  A    between atoms: C_10  and  C_11
REMARK    7  A    between atoms: C_14  and  C_15
REMARK    8  A    between atoms: C_17  and  C_18
REMARK                            x       y       z     vdW  Elec       q    Type
REMARK                         _______ _______ _______ _____ _____    ______ ____
ROOT
ATOM      1  C   UNL     1       1.066   8.766  20.720  0.00  0.00    +0.000 A 
ATOM      2  C   UNL     1       0.672   8.592  22.049  0.00  0.00    +0.000 A 
ATOM      3  C   UNL     1      -0.068   9.587  22.684  0.00  0.00    +0.000 A 
ATOM      4  C   UNL     1      -0.415  10.743  21.990  0.00  0.00    +0.000 A 
ATOM      5  C   UNL     1       0.039  10.847  20.679  0.00  0.00    +0.000 A 
ATOM      6  N   UNL     1       0.759   9.895  20.034  0.00  0.00    +0.000 NA
ENDROOT
BRANCH   1  10
ATOM      7  C   UNL     1       3.344   5.805  18.567  0.00  0.00    +0.000 A 
ATOM      8  C   UNL     1       3.053   7.042  17.991  0.00  0.00    +0.000 A 
ATOM      9  C   UNL     1       2.320   7.997  18.694  0.00  0.00    +0.000 A 
ATOM     10  C   UNL     1       1.802   7.729  19.970  0.00  0.00    +0.000 A 
ATOM     11  C   UNL     1       2.035   6.446  20.501  0.00  0.00    +0.000 A 
ATOM     12  C   UNL     1       2.789   5.489  19.805  0.00  0.00    +0.000 A 
BRANCH   7  13
ATOM     13  O   UNL     1       4.192   4.878  18.006  0.00  0.00    +0.000 OA
BRANCH  13  14
ATOM     14  C   UNL     1       4.405   5.108  16.602  0.00  0.00    +0.000 C 
BRANCH  14  15
ATOM     15  C   UNL     1       5.834   4.813  16.229  0.00  0.00    +0.000 C 
ATOM     16  C   UNL     1       6.316   5.055  14.802  0.00  0.00    +0.000 C 
ATOM     17  C   UNL     1       5.997   3.660  15.242  0.00  0.00    +0.000 C 
BRANCH  15  19
ATOM     18  O   UNL     1       7.630   5.922  17.336  0.00  0.00    +0.000 OA
ATOM     19  C   UNL     1       6.845   4.990  17.312  0.00  0.00    +0.000 C 
BRANCH  19  20
ATOM     20  O   UNL     1       6.779   4.031  18.264  0.00  0.00    +0.000 OA
ATOM     21  H   UNL     1       6.400   4.382  19.098  0.00  0.00    +0.000 HD
ENDBRANCH  19  20
ENDBRANCH  15  19
ENDBRANCH  14  15
ENDBRANCH  13  14
ENDBRANCH   7  13
ENDBRANCH   1  10
BRANCH   4  22
ATOM     22  C   UNL     1      -1.199  11.786  22.642  0.00  0.00    +0.000 A 
ATOM     23  N   UNL     1      -2.408  11.643  23.147  0.00  0.00    +0.000 NA
ATOM     24  C   UNL     1      -2.777  12.876  23.673  0.00  0.00    +0.000 A 
ATOM     25  C   UNL     1      -1.764  13.785  23.429  0.00  0.00    +0.000 A 
ATOM     26  N   UNL     1      -0.785  13.090  22.780  0.00  0.00    +0.000 N 
ATOM     27  H   UNL     1       0.086  13.470  22.433  0.00  0.00    +0.000 HD
BRANCH  24  28
ATOM     28  C   UNL     1      -4.083  13.102  24.380  0.00  0.00    +0.000 C 
ATOM     29  F   UNL     1      -4.081  12.671  25.668  0.00  0.00    +0.000 F 
ATOM     30  F   UNL     1      -4.410  14.423  24.408  0.00  0.00    +0.000 F 
ATOM     31  F   UNL     1      -5.109  12.465  23.754  0.00  0.00    +0.000 F 
ENDBRANCH  24  28
ENDBRANCH   4  22
TORSDOF 8
ENDMDL
MODEL 7
REMARK VINA RESULT:      -7.7      7.032     11.262
REMARK  Name = 
REMARK  8 active torsions:
REMARK  status: ('A' for Active; 'I' for Inactive)
REMARK    1  A    between atoms: C_2  and  O_3
REMARK    2  A    between atoms: C_2  and  C_4
REMARK    3  A    between atoms: C_4  and  C_5
REMARK    4  A    between atoms: C_5  and  O_6
REMARK    5  A    between atoms: O_6  and  C_7
REMARK    6  A    between atoms: C_10  and  C_11
REMARK    7  A    between atoms: C_14  and  C_15
REMARK    8  A    between atoms: C_17  and  C_18
REMARK                            x       y       z     vdW  Elec       q    Type
REMARK                         _______ _______ _______ _____ _____    ______ ____
ROOT
ATOM      1  C   UNL     1       0.852   9.170  20.414  0.00  0.00    +0.000 A 
ATOM      2  C   UNL     1       0.328   8.986  21.695  0.00  0.00    +0.000 A 
ATOM      3  C   UNL     1      -0.490   9.967  22.253  0.00  0.00    +0.000 A 
ATOM      4  C   UNL     1      -0.783  11.119  21.530  0.00  0.00    +0.000 A 
ATOM      5  C   UNL     1      -0.199  11.235  20.272  0.00  0.00    +0.000 A 
ATOM      6  N   UNL     1       0.598  10.297  19.703  0.00  0.00    +0.000 NA
ENDROOT
BRANCH   1  10
ATOM      7  C   UNL     1       3.139   6.110  18.416  0.00  0.00    +0.000 A 
ATOM      8  C   UNL     1       2.721   5.943  19.736  0.00  0.00    +0.000 A 
ATOM      9  C   UNL     1       1.978   6.934  20.376  0.00  0.00    +0.000 A 
ATOM     10  C   UNL     1       1.678   8.149  19.741  0.00  0.00    +0.000 A 
ATOM     11  C   UNL     1       2.178   8.333  18.438  0.00  0.00    +0.000 A 
ATOM     12  C   UNL     1       2.909   7.330  17.784  0.00  0.00    +0.000 A 
BRANCH   7  13
ATOM     13  O   UNL     1       3.733   5.119  17.668  0.00  0.00    +0.000 OA
BRANCH  13  14
ATOM     14  C   UNL     1       4.757   5.628  16.796  0.00  0.00    +0.000 C 
BRANCH  14  15
ATOM     15  C   UNL     1       6.075   5.711  17.520  0.00  0.00    +0.000 C 
ATOM     16  C   UNL     1       6.862   7.018  17.525  0.00  0.00    +0.000 C 
ATOM     17  C   UNL     1       7.279   5.913  16.603  0.00  0.00    +0.000 C 
BRANCH  15  19
ATOM     18  O   UNL     1       6.647   5.257  19.787  0.00  0.00    +0.000 OA
ATOM     19  C   UNL     1       6.217   4.844  18.726  0.00  0.00    +0.000 C 
BRANCH  19  20
ATOM     20  O   UNL     1       5.798   3.574  18.520  0.00  0.00    +0.000 OA
ATOM     21  H   UNL     1       4.839   3.545  18.313  0.00  0.00    +0.000 HD
ENDBRANCH  19  20
ENDBRANCH  15  19
ENDBRANCH  14  15
ENDBRANCH  13  14
ENDBRANCH   7  13
ENDBRANCH   1  10
BRANCH   4  22
ATOM     22  C   UNL     1      -1.646  12.147  22.101  0.00  0.00    +0.000 A 
ATOM     23  N   UNL     1      -2.346  12.039  23.212  0.00  0.00    +0.000 NA
ATOM     24  C   UNL     1      -3.017  13.245  23.388  0.00  0.00    +0.000 A 
ATOM     25  C   UNL     1      -2.734  14.073  22.318  0.00  0.00    +0.000 A 
ATOM     26  N   UNL     1      -1.877  13.371  21.518  0.00  0.00    +0.000 N 
ATOM     27  H   UNL     1      -1.497  13.682  20.634  0.00  0.00    +0.000 HD
BRANCH  24  28
ATOM     28  C   UNL     1      -3.890  13.525  24.578  0.00  0.00    +0.000 C 
ATOM     29  F   UNL     1      -4.337  12.402  25.197  0.00  0.00    +0.000 F 
ATOM     30  F   UNL     1      -3.228  14.254  25.518  0.00  0.00    +0.000 F 
ATOM     31  F   UNL     1      -4.989  14.249  24.235  0.00  0.00    +0.000 F 
ENDBRANCH  24  28
ENDBRANCH   4  22
TORSDOF 8
ENDMDL
MODEL 8
REMARK VINA RESULT:      -7.7      7.074     11.480
REMARK  Name = 
REMARK  8 active torsions:
REMARK  status: ('A' for Active; 'I' for Inactive)
REMARK    1  A    between atoms: C_2  and  O_3
REMARK    2  A    between atoms: C_2  and  C_4
REMARK    3  A    between atoms: C_4  and  C_5
REMARK    4  A    between atoms: C_5  and  O_6
REMARK    5  A    between atoms: O_6  and  C_7
REMARK    6  A    between atoms: C_10  and  C_11
REMARK    7  A    between atoms: C_14  and  C_15
REMARK    8  A    between atoms: C_17  and  C_18
REMARK                            x       y       z     vdW  Elec       q    Type
REMARK                         _______ _______ _______ _____ _____    ______ ____
ROOT
ATOM      1  C   UNL     1       1.127   8.893  20.489  0.00  0.00    +0.000 A 
ATOM      2  C   UNL     1       0.425   8.558  21.649  0.00  0.00    +0.000 A 
ATOM      3  C   UNL     1      -0.303   9.537  22.321  0.00  0.00    +0.000 A 
ATOM      4  C   UNL     1      -0.332  10.839  21.830  0.00  0.00    +0.000 A 
ATOM      5  C   UNL     1       0.414  11.093  20.684  0.00  0.00    +0.000 A 
ATOM      6  N   UNL     1       1.130  10.161  20.007  0.00  0.00    +0.000 NA
ENDROOT
BRANCH   1  10
ATOM      7  C   UNL     1       3.429   6.045  18.213  0.00  0.00    +0.000 A 
ATOM      8  C   UNL     1       3.098   7.289  17.676  0.00  0.00    +0.000 A 
ATOM      9  C   UNL     1       2.357   8.208  18.418  0.00  0.00    +0.000 A 
ATOM     10  C   UNL     1       1.871   7.894  19.697  0.00  0.00    +0.000 A 
ATOM     11  C   UNL     1       2.146   6.604  20.189  0.00  0.00    +0.000 A 
ATOM     12  C   UNL     1       2.908   5.684  19.453  0.00  0.00    +0.000 A 
BRANCH   7  13
ATOM     13  O   UNL     1       4.287   5.154  17.611  0.00  0.00    +0.000 OA
BRANCH  13  14
ATOM     14  C   UNL     1       5.408   4.820  18.447  0.00  0.00    +0.000 C 
BRANCH  14  15
ATOM     15  C   UNL     1       6.704   5.102  17.734  0.00  0.00    +0.000 C 
ATOM     16  C   UNL     1       8.027   5.006  18.488  0.00  0.00    +0.000 C 
ATOM     17  C   UNL     1       7.427   6.354  18.225  0.00  0.00    +0.000 C 
BRANCH  15  19
ATOM     18  O   UNL     1       7.256   5.489  15.449  0.00  0.00    +0.000 OA
ATOM     19  C   UNL     1       6.740   4.765  16.281  0.00  0.00    +0.000 C 
BRANCH  19  20
ATOM     20  O   UNL     1       6.167   3.572  15.997  0.00  0.00    +0.000 OA
ATOM     21  H   UNL     1       5.210   3.577  16.212  0.00  0.00    +0.000 HD
ENDBRANCH  19  20
ENDBRANCH  15  19
ENDBRANCH  14  15
ENDBRANCH  13  14
ENDBRANCH   7  13
ENDBRANCH   1  10
BRANCH   4  22
ATOM     22  C   UNL     1      -1.101  11.870  22.520  0.00  0.00    +0.000 A 
ATOM     23  N   UNL     1      -2.270  11.701  23.104  0.00  0.00    +0.000 NA
ATOM     24  C   UNL     1      -2.638  12.931  23.639  0.00  0.00    +0.000 A 
ATOM     25  C   UNL     1      -1.668  13.863  23.319  0.00  0.00    +0.000 A 
ATOM     26  N   UNL     1      -0.714  13.186  22.615  0.00  0.00    +0.000 N 
ATOM     27  H   UNL     1       0.121  13.584  22.208  0.00  0.00    +0.000 HD
BRANCH  24  28
ATOM     28  C   UNL     1      -3.900  13.131  24.428  0.00  0.00    +0.000 C 
ATOM     29  F   UNL     1      -4.917  13.655  23.696  0.00  0.00    +0.000 F 
ATOM     30  F   UNL     1      -4.353  11.957  24.946  0.00  0.00    +0.000 F 
ATOM     31  F   UNL     1      -3.705  13.966  25.484  0.00  0.00    +0.000 F 
ENDBRANCH  24  28
ENDBRANCH   4  22
TORSDOF 8
ENDMDL
MODEL 9
REMARK VINA RESULT:      -7.7      1.161      1.617
REMARK  Name = 
REMARK  8 active torsions:
REMARK  status: ('A' for Active; 'I' for Inactive)
REMARK    1  A    between atoms: C_2  and  O_3
REMARK    2  A    between atoms: C_2  and  C_4
REMARK    3  A    between atoms: C_4  and  C_5
REMARK    4  A    between atoms: C_5  and  O_6
REMARK    5  A    between atoms: O_6  and  C_7
REMARK    6  A    between atoms: C_10  and  C_11
REMARK    7  A    between atoms: C_14  and  C_15
REMARK    8  A    between atoms: C_17  and  C_18
REMARK                            x       y       z     vdW  Elec       q    Type
REMARK                         _______ _______ _______ _____ _____    ______ ____
ROOT
ATOM      1  C   UNL     1       1.359   8.944  19.388  0.00  0.00    +0.000 A 
ATOM      2  C   UNL     1       1.835   9.049  18.079  0.00  0.00    +0.000 A 
ATOM      3  C   UNL     1       2.612   8.025  17.544  0.00  0.00    +0.000 A 
ATOM      4  C   UNL     1       2.904   6.902  18.312  0.00  0.00    +0.000 A 
ATOM      5  C   UNL     1       2.413   6.888  19.613  0.00  0.00    +0.000 A 
ATOM      6  N   UNL     1       1.652   7.869  20.161  0.00  0.00    +0.000 NA
ENDROOT
BRANCH   1  10
ATOM      7  C   UNL     1      -1.315  11.844  21.129  0.00  0.00    +0.000 A 
ATOM      8  C   UNL     1      -1.027  11.865  19.764  0.00  0.00    +0.000 A 
ATOM      9  C   UNL     1      -0.165  10.922  19.206  0.00  0.00    +0.000 A 
ATOM     10  C   UNL     1       0.484   9.964  19.998  0.00  0.00    +0.000 A 
ATOM     11  C   UNL     1       0.246  10.010  21.385  0.00  0.00    +0.000 A 
ATOM     12  C   UNL     1      -0.636  10.945  21.948  0.00  0.00    +0.000 A 
BRANCH   7  13
ATOM     13  O   UNL     1      -2.272  12.634  21.723  0.00  0.00    +0.000 OA
BRANCH  13  14
ATOM     14  C   UNL     1      -2.666  12.141  23.015  0.00  0.00    +0.000 C 
BRANCH  14  15
ATOM     15  C   UNL     1      -3.899  12.856  23.502  0.00  0.00    +0.000 C 
ATOM     16  C   UNL     1      -3.821  13.765  24.724  0.00  0.00    +0.000 C 
ATOM     17  C   UNL     1      -4.394  12.388  24.868  0.00  0.00    +0.000 C 
BRANCH  15  19
ATOM     18  O   UNL     1      -5.341  14.358  22.343  0.00  0.00    +0.000 OA
ATOM     19  C   UNL     1      -4.896  13.230  22.457  0.00  0.00    +0.000 C 
BRANCH  19  20
ATOM     20  O   UNL     1      -5.227  12.199  21.644  0.00  0.00    +0.000 OA
ATOM     21  H   UNL     1      -6.166  11.943  21.759  0.00  0.00    +0.000 HD
ENDBRANCH  19  20
ENDBRANCH  15  19
ENDBRANCH  14  15
ENDBRANCH  13  14
ENDBRANCH   7  13
ENDBRANCH   1  10
BRANCH   4  22
ATOM     22  C   UNL     1       3.708   5.819  17.757  0.00  0.00    +0.000 A 
ATOM     23  N   UNL     1       4.718   5.955  16.921  0.00  0.00    +0.000 NA
ATOM     24  C   UNL     1       5.200   4.679  16.654  0.00  0.00    +0.000 A 
ATOM     25  C   UNL     1       4.416   3.758  17.324  0.00  0.00    +0.000 A 
ATOM     26  N   UNL     1       3.484   4.485  18.007  0.00  0.00    +0.000 N 
ATOM     27  H   UNL     1       2.738   4.112  18.577  0.00  0.00    +0.000 HD
BRANCH  24  28
ATOM     28  C   UNL     1       6.389   4.425  15.771  0.00  0.00    +0.000 C 
ATOM     29  F   UNL     1       6.612   5.414  14.868  0.00  0.00    +0.000 F 
ATOM     30  F   UNL     1       7.530   4.295  16.501  0.00  0.00    +0.000 F 
ATOM     31  F   UNL     1       6.251   3.271  15.065  0.00  0.00    +0.000 F 
ENDBRANCH  24  28
ENDBRANCH   4  22
TORSDOF 8
ENDMDL
