MODEL 1
REMARK VINA RESULT:      -8.4      0.000      0.000
REMARK  Name = 
REMARK  4 active torsions:
REMARK  status: ('A' for Active; 'I' for Inactive)
REMARK    1  A    between atoms: C_1  and  C_2
REMARK    2  A    between atoms: C_7  and  N_8
REMARK    3  A    between atoms: C_15  and  C_16
REMARK    4  A    between atoms: C_20  and  N_21
REMARK                            x       y       z     vdW  Elec       q    Type
REMARK                         _______ _______ _______ _____ _____    ______ ____
ROOT
ATOM      1  N   UNL     1       0.914  10.478  20.191  0.00  0.00    +0.000 N 
ATOM      2  C   UNL     1       0.563   9.768  21.334  0.00  0.00    +0.000 C 
ATOM      3  O   UNL     1      -0.154  10.180  22.242  0.00  0.00    +0.000 OA
ATOM      4  N   UNL     1       1.013   8.484  21.421  0.00  0.00    +0.000 N 
ATOM      5  C   UNL     1       1.640   7.747  20.466  0.00  0.00    +0.000 C 
ATOM      6  O   UNL     1       2.011   6.608  20.717  0.00  0.00    +0.000 OA
ATOM      7  C   UNL     1       1.789   8.428  19.164  0.00  0.00    +0.000 C 
ATOM      8  C   UNL     1       2.290   7.831  18.063  0.00  0.00    +0.000 C 
ATOM      9  C   UNL     1       1.371   9.860  19.024  0.00  0.00    +0.000 C 
ATOM     10  O   UNL     1       1.462  10.417  17.929  0.00  0.00    +0.000 OA
ATOM     11  H   UNL     1       0.802   8.004  22.284  0.00  0.00    +0.000 HD
ENDROOT
BRANCH   1  18
ATOM     12  C   UNL     1      -1.765  11.373  19.232  0.00  0.00    +0.000 C 
ATOM     13  C   UNL     1      -0.668  12.320  19.645  0.00  0.00    +0.000 A 
ATOM     14  C   UNL     1      -0.921  13.700  19.549  0.00  0.00    +0.000 A 
ATOM     15  C   UNL     1       0.017  14.632  19.986  0.00  0.00    +0.000 A 
ATOM     16  C   UNL     1       1.217  14.199  20.540  0.00  0.00    +0.000 A 
ATOM     17  C   UNL     1       1.491  12.831  20.637  0.00  0.00    +0.000 A 
ATOM     18  C   UNL     1       0.572  11.877  20.167  0.00  0.00    +0.000 A 
ENDBRANCH   1  18
BRANCH   8  19
ATOM     19  C   UNL     1       2.717   6.477  17.995  0.00  0.00    +0.000 A 
ATOM     20  C   UNL     1       1.945   5.322  17.995  0.00  0.00    +0.000 A 
ATOM     21  C   UNL     1       2.822   4.239  17.814  0.00  0.00    +0.000 A 
ATOM     22 BR   UNL     1       2.263   2.449  17.777  0.00  0.00    +0.000 Br
ATOM     23  C   UNL     1       4.097   4.746  17.720  0.00  0.00    +0.000 A 
ATOM     24  O   UNL     1       4.038   6.105  17.845  0.00  0.00    +0.000 OA
BRANCH  23  25
ATOM     25  N   UNL     1       5.310   4.173  17.526  0.00  0.00    +0.000 N 
ATOM     26  C   UNL     1       6.469   4.549  18.343  0.00  0.00    +0.000 C 
ATOM     27  C   UNL     1       7.480   5.375  17.538  0.00  0.00    +0.000 C 
ATOM     28  O   UNL     1       7.847   4.720  16.312  0.00  0.00    +0.000 OA
ATOM     29  C   UNL     1       6.682   4.512  15.499  0.00  0.00    +0.000 C 
ATOM     30  C   UNL     1       5.651   3.619  16.208  0.00  0.00    +0.000 C 
ENDBRANCH  23  25
ENDBRANCH   8  19
TORSDOF 3
ENDMDL
MODEL 2
REMARK VINA RESULT:      -8.3      1.481      2.120
REMARK  Name = 
REMARK  4 active torsions:
REMARK  status: ('A' for Active; 'I' for Inactive)
REMARK    1  A    between atoms: C_1  and  C_2
REMARK    2  A    between atoms: C_7  and  N_8
REMARK    3  A    between atoms: C_15  and  C_16
REMARK    4  A    between atoms: C_20  and  N_21
REMARK                            x       y       z     vdW  Elec       q    Type
REMARK                         _______ _______ _______ _____ _____    ______ ____
ROOT
ATOM      1  N   UNL     1       0.740  10.302  19.680  0.00  0.00    +0.000 N 
ATOM      2  C   UNL     1       1.467  10.725  18.573  0.00  0.00    +0.000 C 
ATOM      3  O   UNL     1       1.577  11.887  18.188  0.00  0.00    +0.000 OA
ATOM      4  N   UNL     1       2.162   9.770  17.893  0.00  0.00    +0.000 N 
ATOM      5  C   UNL     1       2.362   8.471  18.240  0.00  0.00    +0.000 C 
ATOM      6  O   UNL     1       2.990   7.729  17.496  0.00  0.00    +0.000 OA
ATOM      7  C   UNL     1       1.790   8.089  19.547  0.00  0.00    +0.000 C 
ATOM      8  C   UNL     1       1.968   6.878  20.113  0.00  0.00    +0.000 C 
ATOM      9  C   UNL     1       0.963   9.076  20.312  0.00  0.00    +0.000 C 
ATOM     10  O   UNL     1       0.517   8.770  21.419  0.00  0.00    +0.000 OA
ATOM     11  H   UNL     1       2.634  10.084  17.057  0.00  0.00    +0.000 HD
ENDROOT
BRANCH   1  18
ATOM     12  C   UNL     1      -2.030  10.763  18.674  0.00  0.00    +0.000 C 
ATOM     13  C   UNL     1      -1.405  11.559  19.791  0.00  0.00    +0.000 A 
ATOM     14  C   UNL     1      -2.169  12.588  20.371  0.00  0.00    +0.000 A 
ATOM     15  C   UNL     1      -1.685  13.313  21.458  0.00  0.00    +0.000 A 
ATOM     16  C   UNL     1      -0.438  13.009  21.993  0.00  0.00    +0.000 A 
ATOM     17  C   UNL     1       0.340  11.995  21.425  0.00  0.00    +0.000 A 
ATOM     18  C   UNL     1      -0.116  11.279  20.305  0.00  0.00    +0.000 A 
ENDBRANCH   1  18
BRANCH   8  19
ATOM     19  C   UNL     1       2.737   5.822  19.552  0.00  0.00    +0.000 A 
ATOM     20  C   UNL     1       2.325   4.546  19.188  0.00  0.00    +0.000 A 
ATOM     21  C   UNL     1       3.428   3.910  18.591  0.00  0.00    +0.000 A 
ATOM     22 BR   UNL     1       3.386   2.146  17.959  0.00  0.00    +0.000 Br
ATOM     23  C   UNL     1       4.480   4.795  18.612  0.00  0.00    +0.000 A 
ATOM     24  O   UNL     1       4.068   5.952  19.210  0.00  0.00    +0.000 OA
BRANCH  23  25
ATOM     25  N   UNL     1       5.757   4.725  18.163  0.00  0.00    +0.000 N 
ATOM     26  C   UNL     1       6.817   5.548  18.756  0.00  0.00    +0.000 C 
ATOM     27  C   UNL     1       7.257   6.669  17.806  0.00  0.00    +0.000 C 
ATOM     28  O   UNL     1       7.602   6.161  16.506  0.00  0.00    +0.000 OA
ATOM     29  C   UNL     1       6.472   5.492  15.926  0.00  0.00    +0.000 C 
ATOM     30  C   UNL     1       6.022   4.297  16.783  0.00  0.00    +0.000 C 
ENDBRANCH  23  25
ENDBRANCH   8  19
TORSDOF 3
ENDMDL
MODEL 3
REMARK VINA RESULT:      -8.2      1.857      2.843
REMARK  Name = 
REMARK  4 active torsions:
REMARK  status: ('A' for Active; 'I' for Inactive)
REMARK    1  A    between atoms: C_1  and  C_2
REMARK    2  A    between atoms: C_7  and  N_8
REMARK    3  A    between atoms: C_15  and  C_16
REMARK    4  A    between atoms: C_20  and  N_21
REMARK                            x       y       z     vdW  Elec       q    Type
REMARK                         _______ _______ _______ _____ _____    ______ ____
ROOT
ATOM      1  N   UNL     1       0.791  10.007  19.771  0.00  0.00    +0.000 N 
ATOM      2  C   UNL     1       0.500   9.130  20.810  0.00  0.00    +0.000 C 
ATOM      3  O   UNL     1      -0.391   9.276  21.643  0.00  0.00    +0.000 OA
ATOM      4  N   UNL     1       1.235   7.983  20.870  0.00  0.00    +0.000 N 
ATOM      5  C   UNL     1       2.122   7.506  19.957  0.00  0.00    +0.000 C 
ATOM      6  O   UNL     1       2.728   6.466  20.179  0.00  0.00    +0.000 OA
ATOM      7  C   UNL     1       2.244   8.324  18.733  0.00  0.00    +0.000 C 
ATOM      8  C   UNL     1       2.993   7.966  17.670  0.00  0.00    +0.000 C 
ATOM      9  C   UNL     1       1.510   9.626  18.635  0.00  0.00    +0.000 C 
ATOM     10  O   UNL     1       1.583  10.290  17.600  0.00  0.00    +0.000 OA
ATOM     11  H   UNL     1       1.052   7.388  21.665  0.00  0.00    +0.000 HD
ENDROOT
BRANCH   1  18
ATOM     12  C   UNL     1      -1.856  10.367  18.446  0.00  0.00    +0.000 C 
ATOM     13  C   UNL     1      -1.095  11.488  19.108  0.00  0.00    +0.000 A 
ATOM     14  C   UNL     1      -1.661  12.775  19.075  0.00  0.00    +0.000 A 
ATOM     15  C   UNL     1      -1.052  13.842  19.731  0.00  0.00    +0.000 A 
ATOM     16  C   UNL     1       0.124  13.635  20.445  0.00  0.00    +0.000 A 
ATOM     17  C   UNL     1       0.706  12.364  20.483  0.00  0.00    +0.000 A 
ATOM     18  C   UNL     1       0.126  11.284  19.795  0.00  0.00    +0.000 A 
ENDBRANCH   1  18
BRANCH   8  19
ATOM     19  C   UNL     1       3.740   6.761  17.569  0.00  0.00    +0.000 A 
ATOM     20  C   UNL     1       5.084   6.597  17.259  0.00  0.00    +0.000 A 
ATOM     21  C   UNL     1       5.371   5.226  17.381  0.00  0.00    +0.000 A 
ATOM     22 BR   UNL     1       7.059   4.487  17.031  0.00  0.00    +0.000 Br
ATOM     23  C   UNL     1       4.209   4.588  17.747  0.00  0.00    +0.000 A 
ATOM     24  O   UNL     1       3.212   5.516  17.846  0.00  0.00    +0.000 OA
BRANCH  23  25
ATOM     25  N   UNL     1       3.909   3.294  18.017  0.00  0.00    +0.000 N 
ATOM     26  C   UNL     1       2.779   2.623  17.365  0.00  0.00    +0.000 C 
ATOM     27  C   UNL     1       1.620   2.394  18.344  0.00  0.00    +0.000 C 
ATOM     28  O   UNL     1       2.057   1.724  19.538  0.00  0.00    +0.000 OA
ATOM     29  C   UNL     1       3.061   2.507  20.201  0.00  0.00    +0.000 C 
ATOM     30  C   UNL     1       4.297   2.711  19.309  0.00  0.00    +0.000 C 
ENDBRANCH  23  25
ENDBRANCH   8  19
TORSDOF 3
ENDMDL
MODEL 4
REMARK VINA RESULT:      -8.2      2.740      8.787
REMARK  Name = 
REMARK  4 active torsions:
REMARK  status: ('A' for Active; 'I' for Inactive)
REMARK    1  A    between atoms: C_1  and  C_2
REMARK    2  A    between atoms: C_7  and  N_8
REMARK    3  A    between atoms: C_15  and  C_16
REMARK    4  A    between atoms: C_20  and  N_21
REMARK                            x       y       z     vdW  Elec       q    Type
REMARK                         _______ _______ _______ _____ _____    ______ ____
ROOT
ATOM      1  N   UNL     1       4.075   6.128  17.935  0.00  0.00    +0.000 N 
ATOM      2  C   UNL     1       3.922   5.698  19.248  0.00  0.00    +0.000 C 
ATOM      3  O   UNL     1       4.620   4.860  19.815  0.00  0.00    +0.000 OA
ATOM      4  N   UNL     1       2.946   6.303  19.983  0.00  0.00    +0.000 N 
ATOM      5  C   UNL     1       2.193   7.384  19.649  0.00  0.00    +0.000 C 
ATOM      6  O   UNL     1       1.329   7.788  20.415  0.00  0.00    +0.000 OA
ATOM      7  C   UNL     1       2.533   7.991  18.345  0.00  0.00    +0.000 C 
ATOM      8  C   UNL     1       1.971   9.127  17.883  0.00  0.00    +0.000 C 
ATOM      9  C   UNL     1       3.552   7.335  17.465  0.00  0.00    +0.000 C 
ATOM     10  O   UNL     1       3.863   7.861  16.395  0.00  0.00    +0.000 OA
ATOM     11  H   UNL     1       2.809   5.937  20.914  0.00  0.00    +0.000 HD
ENDROOT
BRANCH   1  18
ATOM     12  C   UNL     1       6.958   6.883  17.823  0.00  0.00    +0.000 C 
ATOM     13  C   UNL     1       6.353   5.779  16.995  0.00  0.00    +0.000 A 
ATOM     14  C   UNL     1       7.195   5.086  16.106  0.00  0.00    +0.000 A 
ATOM     15  C   UNL     1       6.722   4.005  15.367  0.00  0.00    +0.000 A 
ATOM     16  C   UNL     1       5.404   3.589  15.515  0.00  0.00    +0.000 A 
ATOM     17  C   UNL     1       4.548   4.269  16.387  0.00  0.00    +0.000 A 
ATOM     18  C   UNL     1       4.998   5.385  17.114  0.00  0.00    +0.000 A 
ENDBRANCH   1  18
BRANCH   8  19
ATOM     19  C   UNL     1       1.005   9.900  18.582  0.00  0.00    +0.000 A 
ATOM     20  C   UNL     1      -0.301  10.198  18.213  0.00  0.00    +0.000 A 
ATOM     21  C   UNL     1      -0.879  10.908  19.279  0.00  0.00    +0.000 A 
ATOM     22 BR   UNL     1      -2.634  11.568  19.251  0.00  0.00    +0.000 Br
ATOM     23  C   UNL     1       0.076  11.038  20.260  0.00  0.00    +0.000 A 
ATOM     24  O   UNL     1       1.227  10.440  19.832  0.00  0.00    +0.000 OA
BRANCH  23  25
ATOM     25  N   UNL     1       0.067  11.605  21.491  0.00  0.00    +0.000 N 
ATOM     26  C   UNL     1      -0.559  10.930  22.634  0.00  0.00    +0.000 C 
ATOM     27  C   UNL     1      -1.866  11.617  23.047  0.00  0.00    +0.000 C 
ATOM     28  O   UNL     1      -1.682  13.027  23.260  0.00  0.00    +0.000 OA
ATOM     29  C   UNL     1      -1.205  13.647  22.056  0.00  0.00    +0.000 C 
ATOM     30  C   UNL     1       0.151  13.066  21.622  0.00  0.00    +0.000 C 
ENDBRANCH  23  25
ENDBRANCH   8  19
TORSDOF 3
ENDMDL
MODEL 5
REMARK VINA RESULT:      -8.2      0.702      1.395
REMARK  Name = 
REMARK  4 active torsions:
REMARK  status: ('A' for Active; 'I' for Inactive)
REMARK    1  A    between atoms: C_1  and  C_2
REMARK    2  A    between atoms: C_7  and  N_8
REMARK    3  A    between atoms: C_15  and  C_16
REMARK    4  A    between atoms: C_20  and  N_21
REMARK                            x       y       z     vdW  Elec       q    Type
REMARK                         _______ _______ _______ _____ _____    ______ ____
ROOT
ATOM      1  N   UNL     1       0.584  10.385  20.337  0.00  0.00    +0.000 N 
ATOM      2  C   UNL     1       0.704   9.758  21.572  0.00  0.00    +0.000 C 
ATOM      3  O   UNL     1       0.197  10.142  22.624  0.00  0.00    +0.000 OA
ATOM      4  N   UNL     1       1.399   8.585  21.601  0.00  0.00    +0.000 N 
ATOM      5  C   UNL     1       1.870   7.863  20.550  0.00  0.00    +0.000 C 
ATOM      6  O   UNL     1       2.508   6.838  20.749  0.00  0.00    +0.000 OA
ATOM      7  C   UNL     1       1.522   8.411  19.223  0.00  0.00    +0.000 C 
ATOM      8  C   UNL     1       1.808   7.788  18.061  0.00  0.00    +0.000 C 
ATOM      9  C   UNL     1       0.814   9.727  19.126  0.00  0.00    +0.000 C 
ATOM     10  O   UNL     1       0.492  10.166  18.021  0.00  0.00    +0.000 OA
ATOM     11  H   UNL     1       1.529   8.176  22.515  0.00  0.00    +0.000 HD
ENDROOT
BRANCH   1  18
ATOM     12  C   UNL     1       2.286  12.833  20.409  0.00  0.00    +0.000 C 
ATOM     13  C   UNL     1       0.779  12.863  20.440  0.00  0.00    +0.000 A 
ATOM     14  C   UNL     1       0.150  14.118  20.530  0.00  0.00    +0.000 A 
ATOM     15  C   UNL     1      -1.238  14.227  20.485  0.00  0.00    +0.000 A 
ATOM     16  C   UNL     1      -2.018  13.086  20.334  0.00  0.00    +0.000 A 
ATOM     17  C   UNL     1      -1.411  11.829  20.251  0.00  0.00    +0.000 A 
ATOM     18  C   UNL     1      -0.014  11.696  20.332  0.00  0.00    +0.000 A 
ENDBRANCH   1  18
BRANCH   8  19
ATOM     19  C   UNL     1       2.453   6.526  17.952  0.00  0.00    +0.000 A 
ATOM     20  C   UNL     1       1.890   5.256  17.998  0.00  0.00    +0.000 A 
ATOM     21  C   UNL     1       2.924   4.337  17.745  0.00  0.00    +0.000 A 
ATOM     22 BR   UNL     1       2.675   2.479  17.734  0.00  0.00    +0.000 Br
ATOM     23  C   UNL     1       4.083   5.053  17.564  0.00  0.00    +0.000 A 
ATOM     24  O   UNL     1       3.803   6.383  17.705  0.00  0.00    +0.000 OA
BRANCH  23  25
ATOM     25  N   UNL     1       5.359   4.694  17.279  0.00  0.00    +0.000 N 
ATOM     26  C   UNL     1       6.497   5.341  17.940  0.00  0.00    +0.000 C 
ATOM     27  C   UNL     1       7.255   6.265  16.978  0.00  0.00    +0.000 C 
ATOM     28  O   UNL     1       7.623   5.585  15.766  0.00  0.00    +0.000 OA
ATOM     29  C   UNL     1       6.447   5.103  15.098  0.00  0.00    +0.000 C 
ATOM     30  C   UNL     1       5.673   4.101  15.972  0.00  0.00    +0.000 C 
ENDBRANCH  23  25
ENDBRANCH   8  19
TORSDOF 3
ENDMDL
MODEL 6
REMARK VINA RESULT:      -8.2      1.573      2.453
REMARK  Name = 
REMARK  4 active torsions:
REMARK  status: ('A' for Active; 'I' for Inactive)
REMARK    1  A    between atoms: C_1  and  C_2
REMARK    2  A    between atoms: C_7  and  N_8
REMARK    3  A    between atoms: C_15  and  C_16
REMARK    4  A    between atoms: C_20  and  N_21
REMARK                            x       y       z     vdW  Elec       q    Type
REMARK                         _______ _______ _______ _____ _____    ______ ____
ROOT
ATOM      1  N   UNL     1       0.295  10.976  19.809  0.00  0.00    +0.000 N 
ATOM      2  C   UNL     1       0.871  11.572  18.693  0.00  0.00    +0.000 C 
ATOM      3  O   UNL     1       0.839  12.770  18.422  0.00  0.00    +0.000 OA
ATOM      4  N   UNL     1       1.578  10.758  17.858  0.00  0.00    +0.000 N 
ATOM      5  C   UNL     1       1.925   9.458  18.049  0.00  0.00    +0.000 C 
ATOM      6  O   UNL     1       2.540   8.855  17.180  0.00  0.00    +0.000 OA
ATOM      7  C   UNL     1       1.519   8.899  19.355  0.00  0.00    +0.000 C 
ATOM      8  C   UNL     1       1.858   7.662  19.774  0.00  0.00    +0.000 C 
ATOM      9  C   UNL     1       0.687   9.724  20.288  0.00  0.00    +0.000 C 
ATOM     10  O   UNL     1       0.380   9.271  21.392  0.00  0.00    +0.000 OA
ATOM     11  H   UNL     1       1.937  11.195  17.021  0.00  0.00    +0.000 HD
ENDROOT
BRANCH   1  18
ATOM     12  C   UNL     1      -2.530  11.444  18.977  0.00  0.00    +0.000 C 
ATOM     13  C   UNL     1      -1.899  12.090  20.183  0.00  0.00    +0.000 A 
ATOM     14  C   UNL     1      -2.684  12.978  20.940  0.00  0.00    +0.000 A 
ATOM     15  C   UNL     1      -2.191  13.551  22.110  0.00  0.00    +0.000 A 
ATOM     16  C   UNL     1      -0.911  13.233  22.550  0.00  0.00    +0.000 A 
ATOM     17  C   UNL     1      -0.112  12.359  21.807  0.00  0.00    +0.000 A 
ATOM     18  C   UNL     1      -0.578  11.800  20.605  0.00  0.00    +0.000 A 
ENDBRANCH   1  18
BRANCH   8  19
ATOM     19  C   UNL     1       2.659   6.745  19.040  0.00  0.00    +0.000 A 
ATOM     20  C   UNL     1       2.332   5.470  18.597  0.00  0.00    +0.000 A 
ATOM     21  C   UNL     1       3.420   5.006  17.836  0.00  0.00    +0.000 A 
ATOM     22 BR   UNL     1       3.478   3.308  17.043  0.00  0.00    +0.000 Br
ATOM     23  C   UNL     1       4.380   5.991  17.839  0.00  0.00    +0.000 A 
ATOM     24  O   UNL     1       3.926   7.043  18.583  0.00  0.00    +0.000 OA
BRANCH  23  25
ATOM     25  N   UNL     1       5.602   6.094  17.262  0.00  0.00    +0.000 N 
ATOM     26  C   UNL     1       5.809   5.746  15.852  0.00  0.00    +0.000 C 
ATOM     27  C   UNL     1       6.593   4.437  15.704  0.00  0.00    +0.000 C 
ATOM     28  O   UNL     1       7.815   4.459  16.461  0.00  0.00    +0.000 OA
ATOM     29  C   UNL     1       7.526   4.659  17.853  0.00  0.00    +0.000 C 
ATOM     30  C   UNL     1       6.810   5.999  18.093  0.00  0.00    +0.000 C 
ENDBRANCH  23  25
ENDBRANCH   8  19
TORSDOF 3
ENDMDL
MODEL 7
REMARK VINA RESULT:      -8.1      1.852      3.097
REMARK  Name = 
REMARK  4 active torsions:
REMARK  status: ('A' for Active; 'I' for Inactive)
REMARK    1  A    between atoms: C_1  and  C_2
REMARK    2  A    between atoms: C_7  and  N_8
REMARK    3  A    between atoms: C_15  and  C_16
REMARK    4  A    between atoms: C_20  and  N_21
REMARK                            x       y       z     vdW  Elec       q    Type
REMARK                         _______ _______ _______ _____ _____    ______ ____
ROOT
ATOM      1  N   UNL     1       0.428  10.175  20.034  0.00  0.00    +0.000 N 
ATOM      2  C   UNL     1       0.301   9.344  21.141  0.00  0.00    +0.000 C 
ATOM      3  O   UNL     1      -0.500   9.492  22.061  0.00  0.00    +0.000 OA
ATOM      4  N   UNL     1       1.101   8.240  21.175  0.00  0.00    +0.000 N 
ATOM      5  C   UNL     1       1.907   7.757  20.193  0.00  0.00    +0.000 C 
ATOM      6  O   UNL     1       2.590   6.762  20.397  0.00  0.00    +0.000 OA
ATOM      7  C   UNL     1       1.849   8.510  18.924  0.00  0.00    +0.000 C 
ATOM      8  C   UNL     1       2.495   8.132  17.802  0.00  0.00    +0.000 C 
ATOM      9  C   UNL     1       1.038   9.767  18.845  0.00  0.00    +0.000 C 
ATOM     10  O   UNL     1       0.960  10.376  17.776  0.00  0.00    +0.000 OA
ATOM     11  H   UNL     1       1.039   7.681  22.014  0.00  0.00    +0.000 HD
ENDROOT
BRANCH   1  18
ATOM     12  C   UNL     1       1.815  12.730  20.699  0.00  0.00    +0.000 C 
ATOM     13  C   UNL     1       0.331  12.625  20.455  0.00  0.00    +0.000 A 
ATOM     14  C   UNL     1      -0.438  13.797  20.572  0.00  0.00    +0.000 A 
ATOM     15  C   UNL     1      -1.801  13.790  20.286  0.00  0.00    +0.000 A 
ATOM     16  C   UNL     1      -2.414  12.615  19.863  0.00  0.00    +0.000 A 
ATOM     17  C   UNL     1      -1.668  11.438  19.749  0.00  0.00    +0.000 A 
ATOM     18  C   UNL     1      -0.300  11.418  20.069  0.00  0.00    +0.000 A 
ENDBRANCH   1  18
BRANCH   8  19
ATOM     19  C   UNL     1       3.292   6.961  17.678  0.00  0.00    +0.000 A 
ATOM     20  C   UNL     1       4.648   6.861  17.391  0.00  0.00    +0.000 A 
ATOM     21  C   UNL     1       4.987   5.499  17.475  0.00  0.00    +0.000 A 
ATOM     22 BR   UNL     1       6.710   4.839  17.136  0.00  0.00    +0.000 Br
ATOM     23  C   UNL     1       3.845   4.804  17.796  0.00  0.00    +0.000 A 
ATOM     24  O   UNL     1       2.810   5.688  17.905  0.00  0.00    +0.000 OA
BRANCH  23  25
ATOM     25  N   UNL     1       3.593   3.491  18.019  0.00  0.00    +0.000 N 
ATOM     26  C   UNL     1       2.415   2.834  17.439  0.00  0.00    +0.000 C 
ATOM     27  C   UNL     1       1.360   2.526  18.508  0.00  0.00    +0.000 C 
ATOM     28  O   UNL     1       1.919   1.800  19.616  0.00  0.00    +0.000 OA
ATOM     29  C   UNL     1       2.970   2.566  20.224  0.00  0.00    +0.000 C 
ATOM     30  C   UNL     1       4.112   2.845  19.232  0.00  0.00    +0.000 C 
ENDBRANCH  23  25
ENDBRANCH   8  19
TORSDOF 3
ENDMDL
MODEL 8
REMARK VINA RESULT:      -8.0      1.632      2.336
REMARK  Name = 
REMARK  4 active torsions:
REMARK  status: ('A' for Active; 'I' for Inactive)
REMARK    1  A    between atoms: C_1  and  C_2
REMARK    2  A    between atoms: C_7  and  N_8
REMARK    3  A    between atoms: C_15  and  C_16
REMARK    4  A    between atoms: C_20  and  N_21
REMARK                            x       y       z     vdW  Elec       q    Type
REMARK                         _______ _______ _______ _____ _____    ______ ____
ROOT
ATOM      1  N   UNL     1       0.503  11.113  19.801  0.00  0.00    +0.000 N 
ATOM      2  C   UNL     1       1.091  11.561  18.623  0.00  0.00    +0.000 C 
ATOM      3  O   UNL     1       1.162  12.732  18.257  0.00  0.00    +0.000 OA
ATOM      4  N   UNL     1       1.686  10.620  17.837  0.00  0.00    +0.000 N 
ATOM      5  C   UNL     1       1.916   9.311  18.123  0.00  0.00    +0.000 C 
ATOM      6  O   UNL     1       2.439   8.585  17.288  0.00  0.00    +0.000 OA
ATOM      7  C   UNL     1       1.509   8.898  19.481  0.00  0.00    +0.000 C 
ATOM      8  C   UNL     1       1.745   7.671  19.990  0.00  0.00    +0.000 C 
ATOM      9  C   UNL     1       0.793   9.870  20.368  0.00  0.00    +0.000 C 
ATOM     10  O   UNL     1       0.486   9.537  21.515  0.00  0.00    +0.000 OA
ATOM     11  H   UNL     1       2.053  10.954  16.957  0.00  0.00    +0.000 HD
ENDROOT
BRANCH   1  18
ATOM     12  C   UNL     1      -2.384  11.567  19.207  0.00  0.00    +0.000 C 
ATOM     13  C   UNL     1      -1.610  12.355  20.232  0.00  0.00    +0.000 A 
ATOM     14  C   UNL     1      -2.287  13.374  20.927  0.00  0.00    +0.000 A 
ATOM     15  C   UNL     1      -1.656  14.090  21.941  0.00  0.00    +0.000 A 
ATOM     16  C   UNL     1      -0.343  13.789  22.288  0.00  0.00    +0.000 A 
ATOM     17  C   UNL     1       0.350  12.786  21.604  0.00  0.00    +0.000 A 
ATOM     18  C   UNL     1      -0.258  12.078  20.553  0.00  0.00    +0.000 A 
ENDBRANCH   1  18
BRANCH   8  19
ATOM     19  C   UNL     1       2.428   6.626  19.310  0.00  0.00    +0.000 A 
ATOM     20  C   UNL     1       1.909   5.451  18.781  0.00  0.00    +0.000 A 
ATOM     21  C   UNL     1       2.964   4.793  18.124  0.00  0.00    +0.000 A 
ATOM     22 BR   UNL     1       2.777   3.133  17.272  0.00  0.00    +0.000 Br
ATOM     23  C   UNL     1       4.092   5.565  18.272  0.00  0.00    +0.000 A 
ATOM     24  O   UNL     1       3.773   6.672  19.006  0.00  0.00    +0.000 OA
BRANCH  23  25
ATOM     25  N   UNL     1       5.369   5.431  17.836  0.00  0.00    +0.000 N 
ATOM     26  C   UNL     1       6.392   4.788  18.668  0.00  0.00    +0.000 C 
ATOM     27  C   UNL     1       7.398   5.809  19.213  0.00  0.00    +0.000 C 
ATOM     28  O   UNL     1       7.955   6.620  18.165  0.00  0.00    +0.000 OA
ATOM     29  C   UNL     1       6.909   7.332  17.487  0.00  0.00    +0.000 C 
ATOM     30  C   UNL     1       5.900   6.369  16.838  0.00  0.00    +0.000 C 
ENDBRANCH  23  25
ENDBRANCH   8  19
TORSDOF 3
ENDMDL
MODEL 9
REMARK VINA RESULT:      -8.0      2.812      8.777
REMARK  Name = 
REMARK  4 active torsions:
REMARK  status: ('A' for Active; 'I' for Inactive)
REMARK    1  A    between atoms: C_1  and  C_2
REMARK    2  A    between atoms: C_7  and  N_8
REMARK    3  A    between atoms: C_15  and  C_16
REMARK    4  A    between atoms: C_20  and  N_21
REMARK                            x       y       z     vdW  Elec       q    Type
REMARK                         _______ _______ _______ _____ _____    ______ ____
ROOT
ATOM      1  N   UNL     1       3.756   6.373  18.161  0.00  0.00    +0.000 N 
ATOM      2  C   UNL     1       3.612   5.960  19.481  0.00  0.00    +0.000 C 
ATOM      3  O   UNL     1       4.311   5.126  20.052  0.00  0.00    +0.000 OA
ATOM      4  N   UNL     1       2.643   6.577  20.215  0.00  0.00    +0.000 N 
ATOM      5  C   UNL     1       1.890   7.656  19.874  0.00  0.00    +0.000 C 
ATOM      6  O   UNL     1       1.034   8.072  20.642  0.00  0.00    +0.000 OA
ATOM      7  C   UNL     1       2.222   8.246  18.561  0.00  0.00    +0.000 C 
ATOM      8  C   UNL     1       1.661   9.378  18.089  0.00  0.00    +0.000 C 
ATOM      9  C   UNL     1       3.233   7.576  17.681  0.00  0.00    +0.000 C 
ATOM     10  O   UNL     1       3.537   8.088  16.602  0.00  0.00    +0.000 OA
ATOM     11  H   UNL     1       2.511   6.222  21.152  0.00  0.00    +0.000 HD
ENDROOT
BRANCH   1  18
ATOM     12  C   UNL     1       2.941   3.753  16.994  0.00  0.00    +0.000 C 
ATOM     13  C   UNL     1       4.321   4.339  16.843  0.00  0.00    +0.000 A 
ATOM     14  C   UNL     1       5.278   3.594  16.131  0.00  0.00    +0.000 A 
ATOM     15  C   UNL     1       6.549   4.108  15.886  0.00  0.00    +0.000 A 
ATOM     16  C   UNL     1       6.879   5.382  16.336  0.00  0.00    +0.000 A 
ATOM     17  C   UNL     1       5.945   6.135  17.054  0.00  0.00    +0.000 A 
ATOM     18  C   UNL     1       4.670   5.618  17.342  0.00  0.00    +0.000 A 
ENDBRANCH   1  18
BRANCH   8  19
ATOM     19  C   UNL     1       0.702  10.163  18.786  0.00  0.00    +0.000 A 
ATOM     20  C   UNL     1      -0.594  10.487  18.407  0.00  0.00    +0.000 A 
ATOM     21  C   UNL     1      -1.170  11.199  19.475  0.00  0.00    +0.000 A 
ATOM     22 BR   UNL     1      -2.912  11.891  19.436  0.00  0.00    +0.000 Br
ATOM     23  C   UNL     1      -0.222  11.303  20.465  0.00  0.00    +0.000 A 
ATOM     24  O   UNL     1       0.922  10.688  20.043  0.00  0.00    +0.000 OA
BRANCH  23  25
ATOM     25  N   UNL     1      -0.232  11.859  21.702  0.00  0.00    +0.000 N 
ATOM     26  C   UNL     1      -0.928  11.213  22.820  0.00  0.00    +0.000 C 
ATOM     27  C   UNL     1      -2.204  11.974  23.203  0.00  0.00    +0.000 C 
ATOM     28  O   UNL     1      -1.942  13.368  23.435  0.00  0.00    +0.000 OA
ATOM     29  C   UNL     1      -1.395  13.969  22.251  0.00  0.00    +0.000 C 
ATOM     30  C   UNL     1      -0.064  13.311  21.849  0.00  0.00    +0.000 C 
ENDBRANCH  23  25
ENDBRANCH   8  19
TORSDOF 3
ENDMDL
