MODEL 1
REMARK VINA RESULT:      -8.5      0.000      0.000
REMARK  Name = 
REMARK  6 active torsions:
REMARK  status: ('A' for Active; 'I' for Inactive)
REMARK    1  A    between atoms: O_1  and  C_2
REMARK    2  A    between atoms: C_5  and  C_6
REMARK    3  A    between atoms: C_10  and  C_11
REMARK    4  A    between atoms: N_14  and  C_15
REMARK    5  A    between atoms: C_22  and  O_23
REMARK    6  A    between atoms: C_24  and  O_25
REMARK                            x       y       z     vdW  Elec       q    Type
REMARK                         _______ _______ _______ _____ _____    ______ ____
ROOT
ATOM      1  C   UNL     1       3.641   3.110  17.833  0.00  0.00    +0.000 A 
ATOM      2  N   UNL     1       3.645   1.752  17.815  0.00  0.00    +0.000 NA
ATOM      3  N   UNL     1       2.653   1.388  18.628  0.00  0.00    +0.000 N 
ATOM      4  C   UNL     1       1.992   2.435  19.176  0.00  0.00    +0.000 A 
ATOM      5  C   UNL     1       2.607   3.583  18.707  0.00  0.00    +0.000 A 
ATOM      6  H   UNL     1       2.512   0.398  18.801  0.00  0.00    +0.000 HD
ENDROOT
BRANCH   1  10
ATOM      7  C   UNL     1       6.799   4.966  15.551  0.00  0.00    +0.000 A 
ATOM      8  C   UNL     1       5.717   4.373  14.903  0.00  0.00    +0.000 A 
ATOM      9  C   UNL     1       4.674   3.787  15.642  0.00  0.00    +0.000 A 
ATOM     10  C   UNL     1       4.700   3.774  17.044  0.00  0.00    +0.000 A 
ATOM     11  C   UNL     1       5.821   4.369  17.671  0.00  0.00    +0.000 A 
ATOM     12  C   UNL     1       6.848   4.968  16.937  0.00  0.00    +0.000 A 
BRANCH   7  13
ATOM     13  O   UNL     1       7.820   5.526  14.840  0.00  0.00    +0.000 OA
ATOM     14  H   UNL     1       8.183   4.867  14.229  0.00  0.00    +0.000 HD
ENDBRANCH   7  13
BRANCH  11  15
ATOM     15  O   UNL     1       6.003   4.371  19.040  0.00  0.00    +0.000 OA
ATOM     16  H   UNL     1       5.835   5.301  19.316  0.00  0.00    +0.000 HD
ENDBRANCH  11  15
BRANCH  12  17
ATOM     17  O   UNL     1       7.911   5.521  17.603  0.00  0.00    +0.000 OA
ATOM     18  H   UNL     1       8.658   4.922  17.406  0.00  0.00    +0.000 HD
ENDBRANCH  12  17
ENDBRANCH   1  10
BRANCH   5  19
ATOM     19  C   UNL     1       2.340   4.907  19.294  0.00  0.00    +0.000 A 
ATOM     20  C   UNL     1       1.580   4.960  20.484  0.00  0.00    +0.000 A 
ATOM     21  C   UNL     1       1.650   6.263  20.876  0.00  0.00    +0.000 A 
ATOM     22  N   UNL     1       2.015   6.964  19.752  0.00  0.00    +0.000 N 
ATOM     23  N   UNL     1       2.658   6.139  18.852  0.00  0.00    +0.000 NA
BRANCH  22  24
ATOM     24  C   UNL     1       1.669   8.325  19.519  0.00  0.00    +0.000 A 
ATOM     25  C   UNL     1       1.036   9.115  20.476  0.00  0.00    +0.000 A 
ATOM     26  C   UNL     1       0.734  10.455  20.174  0.00  0.00    +0.000 A 
ATOM     27  C   UNL     1       1.093  11.018  18.943  0.00  0.00    +0.000 A 
ATOM     28  C   UNL     1       1.753  10.246  17.997  0.00  0.00    +0.000 A 
ATOM     29  C   UNL     1       2.025   8.909  18.285  0.00  0.00    +0.000 A 
ENDBRANCH  22  24
ENDBRANCH   5  19
TORSDOF 6
ENDMDL
MODEL 2
REMARK VINA RESULT:      -8.2      2.601      4.760
REMARK  Name = 
REMARK  6 active torsions:
REMARK  status: ('A' for Active; 'I' for Inactive)
REMARK    1  A    between atoms: O_1  and  C_2
REMARK    2  A    between atoms: C_5  and  C_6
REMARK    3  A    between atoms: C_10  and  C_11
REMARK    4  A    between atoms: N_14  and  C_15
REMARK    5  A    between atoms: C_22  and  O_23
REMARK    6  A    between atoms: C_24  and  O_25
REMARK                            x       y       z     vdW  Elec       q    Type
REMARK                         _______ _______ _______ _____ _____    ______ ____
ROOT
ATOM      1  C   UNL     1       3.679   5.594  18.207  0.00  0.00    +0.000 A 
ATOM      2  N   UNL     1       4.528   5.093  17.274  0.00  0.00    +0.000 NA
ATOM      3  N   UNL     1       4.818   6.121  16.476  0.00  0.00    +0.000 N 
ATOM      4  C   UNL     1       4.208   7.274  16.838  0.00  0.00    +0.000 A 
ATOM      5  C   UNL     1       3.435   6.984  17.950  0.00  0.00    +0.000 A 
ATOM      6  H   UNL     1       5.408   5.951  15.668  0.00  0.00    +0.000 HD
ENDROOT
BRANCH   1  10
ATOM      7  C   UNL     1       2.201   2.823  21.167  0.00  0.00    +0.000 A 
ATOM      8  C   UNL     1       1.358   3.794  20.630  0.00  0.00    +0.000 A 
ATOM      9  C   UNL     1       1.828   4.685  19.648  0.00  0.00    +0.000 A 
ATOM     10  C   UNL     1       3.153   4.627  19.195  0.00  0.00    +0.000 A 
ATOM     11  C   UNL     1       3.988   3.640  19.773  0.00  0.00    +0.000 A 
ATOM     12  C   UNL     1       3.516   2.743  20.735  0.00  0.00    +0.000 A 
BRANCH   7  13
ATOM     13  O   UNL     1       1.754   1.963  22.129  0.00  0.00    +0.000 OA
ATOM     14  H   UNL     1       0.791   2.038  22.202  0.00  0.00    +0.000 HD
ENDBRANCH   7  13
BRANCH  11  15
ATOM     15  O   UNL     1       5.328   3.513  19.463  0.00  0.00    +0.000 OA
ATOM     16  H   UNL     1       5.645   4.437  19.334  0.00  0.00    +0.000 HD
ENDBRANCH  11  15
BRANCH  12  17
ATOM     17  O   UNL     1       4.375   1.815  21.262  0.00  0.00    +0.000 OA
ATOM     18  H   UNL     1       5.132   1.808  20.645  0.00  0.00    +0.000 HD
ENDBRANCH  12  17
ENDBRANCH   1  10
BRANCH   5  19
ATOM     19  C   UNL     1       2.421   7.920  18.461  0.00  0.00    +0.000 A 
ATOM     20  C   UNL     1       2.222   9.128  17.756  0.00  0.00    +0.000 A 
ATOM     21  C   UNL     1       1.128   9.690  18.342  0.00  0.00    +0.000 A 
ATOM     22  N   UNL     1       1.017   9.081  19.569  0.00  0.00    +0.000 N 
ATOM     23  N   UNL     1       1.647   7.854  19.562  0.00  0.00    +0.000 NA
BRANCH  22  24
ATOM     24  C   UNL     1       0.429   9.699  20.709  0.00  0.00    +0.000 A 
ATOM     25  C   UNL     1      -0.235  10.921  20.645  0.00  0.00    +0.000 A 
ATOM     26  C   UNL     1      -0.798  11.463  21.815  0.00  0.00    +0.000 A 
ATOM     27  C   UNL     1      -0.736  10.775  23.033  0.00  0.00    +0.000 A 
ATOM     28  C   UNL     1      -0.105   9.541  23.098  0.00  0.00    +0.000 A 
ATOM     29  C   UNL     1       0.481   9.019  21.945  0.00  0.00    +0.000 A 
ENDBRANCH  22  24
ENDBRANCH   5  19
TORSDOF 6
ENDMDL
MODEL 3
REMARK VINA RESULT:      -8.1      2.506      4.342
REMARK  Name = 
REMARK  6 active torsions:
REMARK  status: ('A' for Active; 'I' for Inactive)
REMARK    1  A    between atoms: O_1  and  C_2
REMARK    2  A    between atoms: C_5  and  C_6
REMARK    3  A    between atoms: C_10  and  C_11
REMARK    4  A    between atoms: N_14  and  C_15
REMARK    5  A    between atoms: C_22  and  O_23
REMARK    6  A    between atoms: C_24  and  O_25
REMARK                            x       y       z     vdW  Elec       q    Type
REMARK                         _______ _______ _______ _____ _____    ______ ____
ROOT
ATOM      1  C   UNL     1       4.224   5.737  17.361  0.00  0.00    +0.000 A 
ATOM      2  N   UNL     1       5.270   5.572  16.511  0.00  0.00    +0.000 NA
ATOM      3  N   UNL     1       5.679   6.806  16.215  0.00  0.00    +0.000 N 
ATOM      4  C   UNL     1       4.962   7.774  16.830  0.00  0.00    +0.000 A 
ATOM      5  C   UNL     1       3.986   7.135  17.576  0.00  0.00    +0.000 A 
ATOM      6  H   UNL     1       6.432   6.913  15.542  0.00  0.00    +0.000 HD
ENDROOT
BRANCH   1  10
ATOM      7  C   UNL     1       2.251   2.159  18.749  0.00  0.00    +0.000 A 
ATOM      8  C   UNL     1       1.508   3.207  18.207  0.00  0.00    +0.000 A 
ATOM      9  C   UNL     1       2.149   4.365  17.732  0.00  0.00    +0.000 A 
ATOM     10  C   UNL     1       3.542   4.501  17.802  0.00  0.00    +0.000 A 
ATOM     11  C   UNL     1       4.265   3.427  18.374  0.00  0.00    +0.000 A 
ATOM     12  C   UNL     1       3.631   2.268  18.829  0.00  0.00    +0.000 A 
BRANCH   7  13
ATOM     13  O   UNL     1       1.635   1.037  19.223  0.00  0.00    +0.000 OA
ATOM     14  H   UNL     1       2.287   0.482  19.677  0.00  0.00    +0.000 HD
ENDBRANCH   7  13
BRANCH  11  15
ATOM     15  O   UNL     1       5.633   3.456  18.561  0.00  0.00    +0.000 OA
ATOM     16  H   UNL     1       5.755   3.807  19.472  0.00  0.00    +0.000 HD
ENDBRANCH  11  15
BRANCH  12  17
ATOM     17  O   UNL     1       4.385   1.266  19.381  0.00  0.00    +0.000 OA
ATOM     18  H   UNL     1       4.184   0.482  18.832  0.00  0.00    +0.000 HD
ENDBRANCH  12  17
ENDBRANCH   1  10
BRANCH   5  19
ATOM     19  C   UNL     1       2.851   7.864  18.165  0.00  0.00    +0.000 A 
ATOM     20  C   UNL     1       2.347   8.981  17.461  0.00  0.00    +0.000 A 
ATOM     21  C   UNL     1       1.217   9.330  18.138  0.00  0.00    +0.000 A 
ATOM     22  N   UNL     1       1.344   8.757  19.381  0.00  0.00    +0.000 N 
ATOM     23  N   UNL     1       2.209   7.682  19.335  0.00  0.00    +0.000 NA
BRANCH  22  24
ATOM     24  C   UNL     1       0.746   9.283  20.561  0.00  0.00    +0.000 A 
ATOM     25  C   UNL     1       1.010   8.773  21.830  0.00  0.00    +0.000 A 
ATOM     26  C   UNL     1       0.386   9.353  22.950  0.00  0.00    +0.000 A 
ATOM     27  C   UNL     1      -0.465  10.457  22.813  0.00  0.00    +0.000 A 
ATOM     28  C   UNL     1      -0.707  10.990  21.555  0.00  0.00    +0.000 A 
ATOM     29  C   UNL     1      -0.113  10.396  20.442  0.00  0.00    +0.000 A 
ENDBRANCH  22  24
ENDBRANCH   5  19
TORSDOF 6
ENDMDL
MODEL 4
REMARK VINA RESULT:      -8.1      3.809      7.394
REMARK  Name = 
REMARK  6 active torsions:
REMARK  status: ('A' for Active; 'I' for Inactive)
REMARK    1  A    between atoms: O_1  and  C_2
REMARK    2  A    between atoms: C_5  and  C_6
REMARK    3  A    between atoms: C_10  and  C_11
REMARK    4  A    between atoms: N_14  and  C_15
REMARK    5  A    between atoms: C_22  and  O_23
REMARK    6  A    between atoms: C_24  and  O_25
REMARK                            x       y       z     vdW  Elec       q    Type
REMARK                         _______ _______ _______ _____ _____    ______ ____
ROOT
ATOM      1  C   UNL     1       5.524   4.698  18.463  0.00  0.00    +0.000 A 
ATOM      2  N   UNL     1       6.004   4.924  19.712  0.00  0.00    +0.000 NA
ATOM      3  N   UNL     1       7.250   5.362  19.535  0.00  0.00    +0.000 N 
ATOM      4  C   UNL     1       7.614   5.442  18.234  0.00  0.00    +0.000 A 
ATOM      5  C   UNL     1       6.532   5.002  17.490  0.00  0.00    +0.000 A 
ATOM      6  H   UNL     1       7.817   5.545  20.357  0.00  0.00    +0.000 HD
ENDROOT
BRANCH   1  10
ATOM      7  C   UNL     1       1.522   3.088  18.334  0.00  0.00    +0.000 A 
ATOM      8  C   UNL     1       1.777   4.378  17.871  0.00  0.00    +0.000 A 
ATOM      9  C   UNL     1       3.083   4.899  17.890  0.00  0.00    +0.000 A 
ATOM     10  C   UNL     1       4.156   4.142  18.382  0.00  0.00    +0.000 A 
ATOM     11  C   UNL     1       3.860   2.843  18.860  0.00  0.00    +0.000 A 
ATOM     12  C   UNL     1       2.565   2.319  18.825  0.00  0.00    +0.000 A 
BRANCH   7  13
ATOM     13  O   UNL     1       0.254   2.580  18.330  0.00  0.00    +0.000 OA
ATOM     14  H   UNL     1      -0.022   2.419  17.415  0.00  0.00    +0.000 HD
ENDBRANCH   7  13
BRANCH  11  15
ATOM     15  O   UNL     1       4.810   2.016  19.427  0.00  0.00    +0.000 OA
ATOM     16  H   UNL     1       5.523   1.951  18.751  0.00  0.00    +0.000 HD
ENDBRANCH  11  15
BRANCH  12  17
ATOM     17  O   UNL     1       2.342   1.057  19.309  0.00  0.00    +0.000 OA
ATOM     18  H   UNL     1       2.208   0.510  18.510  0.00  0.00    +0.000 HD
ENDBRANCH  12  17
ENDBRANCH   1  10
BRANCH   5  19
ATOM     19  C   UNL     1       6.646   4.691  16.055  0.00  0.00    +0.000 A 
ATOM     20  C   UNL     1       7.212   5.673  15.210  0.00  0.00    +0.000 A 
ATOM     21  C   UNL     1       7.350   5.049  14.007  0.00  0.00    +0.000 A 
ATOM     22  N   UNL     1       6.498   3.972  14.054  0.00  0.00    +0.000 N 
ATOM     23  N   UNL     1       6.241   3.611  15.360  0.00  0.00    +0.000 NA
BRANCH  22  24
ATOM     24  C   UNL     1       5.886   3.395  12.904  0.00  0.00    +0.000 A 
ATOM     25  C   UNL     1       6.440   2.317  12.218  0.00  0.00    +0.000 A 
ATOM     26  C   UNL     1       5.770   1.797  11.095  0.00  0.00    +0.000 A 
ATOM     27  C   UNL     1       4.539   2.320  10.680  0.00  0.00    +0.000 A 
ATOM     28  C   UNL     1       3.966   3.373  11.379  0.00  0.00    +0.000 A 
ATOM     29  C   UNL     1       4.644   3.908  12.473  0.00  0.00    +0.000 A 
ENDBRANCH  22  24
ENDBRANCH   5  19
TORSDOF 6
ENDMDL
MODEL 5
REMARK VINA RESULT:      -8.0      2.976      6.652
REMARK  Name = 
REMARK  6 active torsions:
REMARK  status: ('A' for Active; 'I' for Inactive)
REMARK    1  A    between atoms: O_1  and  C_2
REMARK    2  A    between atoms: C_5  and  C_6
REMARK    3  A    between atoms: C_10  and  C_11
REMARK    4  A    between atoms: N_14  and  C_15
REMARK    5  A    between atoms: C_22  and  O_23
REMARK    6  A    between atoms: C_24  and  O_25
REMARK                            x       y       z     vdW  Elec       q    Type
REMARK                         _______ _______ _______ _____ _____    ______ ____
ROOT
ATOM      1  C   UNL     1       3.231   4.971  19.415  0.00  0.00    +0.000 A 
ATOM      2  N   UNL     1       2.425   4.308  20.284  0.00  0.00    +0.000 NA
ATOM      3  N   UNL     1       2.999   3.117  20.455  0.00  0.00    +0.000 N 
ATOM      4  C   UNL     1       4.142   2.963  19.749  0.00  0.00    +0.000 A 
ATOM      5  C   UNL     1       4.332   4.134  19.036  0.00  0.00    +0.000 A 
ATOM      6  H   UNL     1       2.524   2.435  21.038  0.00  0.00    +0.000 HD
ENDROOT
BRANCH   1  10
ATOM      7  C   UNL     1       1.994   8.950  18.290  0.00  0.00    +0.000 A 
ATOM      8  C   UNL     1       2.661   8.135  17.376  0.00  0.00    +0.000 A 
ATOM      9  C   UNL     1       3.046   6.830  17.731  0.00  0.00    +0.000 A 
ATOM     10  C   UNL     1       2.780   6.319  19.009  0.00  0.00    +0.000 A 
ATOM     11  C   UNL     1       2.117   7.178  19.919  0.00  0.00    +0.000 A 
ATOM     12  C   UNL     1       1.719   8.469  19.561  0.00  0.00    +0.000 A 
BRANCH   7  13
ATOM     13  O   UNL     1       1.629  10.222  17.957  0.00  0.00    +0.000 OA
ATOM     14  H   UNL     1       0.666  10.260  17.848  0.00  0.00    +0.000 HD
ENDBRANCH   7  13
BRANCH  11  15
ATOM     15  O   UNL     1       1.850   6.826  21.227  0.00  0.00    +0.000 OA
ATOM     16  H   UNL     1       2.438   7.402  21.768  0.00  0.00    +0.000 HD
ENDBRANCH  11  15
BRANCH  12  17
ATOM     17  O   UNL     1       1.087   9.255  20.489  0.00  0.00    +0.000 OA
ATOM     18  H   UNL     1       0.470   8.647  20.941  0.00  0.00    +0.000 HD
ENDBRANCH  12  17
ENDBRANCH   1  10
BRANCH   5  19
ATOM     19  C   UNL     1       5.322   4.237  17.952  0.00  0.00    +0.000 A 
ATOM     20  C   UNL     1       6.434   5.087  18.151  0.00  0.00    +0.000 A 
ATOM     21  C   UNL     1       7.246   4.843  17.084  0.00  0.00    +0.000 A 
ATOM     22  N   UNL     1       6.438   4.264  16.135  0.00  0.00    +0.000 N 
ATOM     23  N   UNL     1       5.335   3.682  16.725  0.00  0.00    +0.000 NA
BRANCH  22  24
ATOM     24  C   UNL     1       6.669   4.360  14.733  0.00  0.00    +0.000 A 
ATOM     25  C   UNL     1       7.633   5.202  14.185  0.00  0.00    +0.000 A 
ATOM     26  C   UNL     1       7.807   5.235  12.789  0.00  0.00    +0.000 A 
ATOM     27  C   UNL     1       7.054   4.408  11.947  0.00  0.00    +0.000 A 
ATOM     28  C   UNL     1       6.114   3.543  12.488  0.00  0.00    +0.000 A 
ATOM     29  C   UNL     1       5.920   3.533  13.869  0.00  0.00    +0.000 A 
ENDBRANCH  22  24
ENDBRANCH   5  19
TORSDOF 6
ENDMDL
MODEL 6
REMARK VINA RESULT:      -7.9      1.516      2.254
REMARK  Name = 
REMARK  6 active torsions:
REMARK  status: ('A' for Active; 'I' for Inactive)
REMARK    1  A    between atoms: O_1  and  C_2
REMARK    2  A    between atoms: C_5  and  C_6
REMARK    3  A    between atoms: C_10  and  C_11
REMARK    4  A    between atoms: N_14  and  C_15
REMARK    5  A    between atoms: C_22  and  O_23
REMARK    6  A    between atoms: C_24  and  O_25
REMARK                            x       y       z     vdW  Elec       q    Type
REMARK                         _______ _______ _______ _____ _____    ______ ____
ROOT
ATOM      1  C   UNL     1       3.860   3.918  19.392  0.00  0.00    +0.000 A 
ATOM      2  N   UNL     1       4.152   2.738  19.996  0.00  0.00    +0.000 NA
ATOM      3  N   UNL     1       3.270   2.625  20.989  0.00  0.00    +0.000 N 
ATOM      4  C   UNL     1       2.410   3.666  21.068  0.00  0.00    +0.000 A 
ATOM      5  C   UNL     1       2.761   4.550  20.062  0.00  0.00    +0.000 A 
ATOM      6  H   UNL     1       3.346   1.824  21.610  0.00  0.00    +0.000 HD
ENDROOT
BRANCH   1  10
ATOM      7  C   UNL     1       6.507   4.994  16.158  0.00  0.00    +0.000 A 
ATOM      8  C   UNL     1       5.302   4.345  15.895  0.00  0.00    +0.000 A 
ATOM      9  C   UNL     1       4.425   4.013  16.943  0.00  0.00    +0.000 A 
ATOM     10  C   UNL     1       4.744   4.314  18.275  0.00  0.00    +0.000 A 
ATOM     11  C   UNL     1       5.983   4.957  18.509  0.00  0.00    +0.000 A 
ATOM     12  C   UNL     1       6.846   5.303  17.466  0.00  0.00    +0.000 A 
BRANCH   7  13
ATOM     13  O   UNL     1       7.369   5.308  15.146  0.00  0.00    +0.000 OA
ATOM     14  H   UNL     1       6.860   5.551  14.358  0.00  0.00    +0.000 HD
ENDBRANCH   7  13
BRANCH  11  15
ATOM     15  O   UNL     1       6.448   5.254  19.776  0.00  0.00    +0.000 OA
ATOM     16  H   UNL     1       6.638   4.379  20.185  0.00  0.00    +0.000 HD
ENDBRANCH  11  15
BRANCH  12  17
ATOM     17  O   UNL     1       8.035   5.918  17.759  0.00  0.00    +0.000 OA
ATOM     18  H   UNL     1       8.714   5.327  17.377  0.00  0.00    +0.000 HD
ENDBRANCH  12  17
ENDBRANCH   1  10
BRANCH   5  19
ATOM     19  C   UNL     1       2.226   5.920  20.005  0.00  0.00    +0.000 A 
ATOM     20  C   UNL     1       2.877   6.849  19.161  0.00  0.00    +0.000 A 
ATOM     21  C   UNL     1       2.071   7.947  19.177  0.00  0.00    +0.000 A 
ATOM     22  N   UNL     1       1.293   7.814  20.302  0.00  0.00    +0.000 N 
ATOM     23  N   UNL     1       1.212   6.491  20.684  0.00  0.00    +0.000 NA
BRANCH  22  24
ATOM     24  C   UNL     1       0.749   8.915  21.023  0.00  0.00    +0.000 A 
ATOM     25  C   UNL     1       0.725  10.211  20.514  0.00  0.00    +0.000 A 
ATOM     26  C   UNL     1       0.162  11.244  21.285  0.00  0.00    +0.000 A 
ATOM     27  C   UNL     1      -0.410  10.985  22.537  0.00  0.00    +0.000 A 
ATOM     28  C   UNL     1      -0.420   9.690  23.036  0.00  0.00    +0.000 A 
ATOM     29  C   UNL     1       0.167   8.671  22.286  0.00  0.00    +0.000 A 
ENDBRANCH  22  24
ENDBRANCH   5  19
TORSDOF 6
ENDMDL
MODEL 7
REMARK VINA RESULT:      -7.9      3.565      7.337
REMARK  Name = 
REMARK  6 active torsions:
REMARK  status: ('A' for Active; 'I' for Inactive)
REMARK    1  A    between atoms: O_1  and  C_2
REMARK    2  A    between atoms: C_5  and  C_6
REMARK    3  A    between atoms: C_10  and  C_11
REMARK    4  A    between atoms: N_14  and  C_15
REMARK    5  A    between atoms: C_22  and  O_23
REMARK    6  A    between atoms: C_24  and  O_25
REMARK                            x       y       z     vdW  Elec       q    Type
REMARK                         _______ _______ _______ _____ _____    ______ ____
ROOT
ATOM      1  C   UNL     1       5.989   5.223  19.094  0.00  0.00    +0.000 A 
ATOM      2  N   UNL     1       6.800   5.195  20.182  0.00  0.00    +0.000 NA
ATOM      3  N   UNL     1       8.019   5.470  19.716  0.00  0.00    +0.000 N 
ATOM      4  C   UNL     1       8.051   5.682  18.380  0.00  0.00    +0.000 A 
ATOM      5  C   UNL     1       6.757   5.514  17.919  0.00  0.00    +0.000 A 
ATOM      6  H   UNL     1       8.798   5.449  20.367  0.00  0.00    +0.000 HD
ENDROOT
BRANCH   1  10
ATOM      7  C   UNL     1       1.867   4.224  19.896  0.00  0.00    +0.000 A 
ATOM      8  C   UNL     1       2.249   5.554  19.727  0.00  0.00    +0.000 A 
ATOM      9  C   UNL     1       3.586   5.883  19.443  0.00  0.00    +0.000 A 
ATOM     10  C   UNL     1       4.568   4.888  19.334  0.00  0.00    +0.000 A 
ATOM     11  C   UNL     1       4.150   3.549  19.527  0.00  0.00    +0.000 A 
ATOM     12  C   UNL     1       2.818   3.221  19.792  0.00  0.00    +0.000 A 
BRANCH   7  13
ATOM     13  O   UNL     1       0.573   3.899  20.184  0.00  0.00    +0.000 OA
ATOM     14  H   UNL     1      -0.010   4.614  19.887  0.00  0.00    +0.000 HD
ENDBRANCH   7  13
BRANCH  11  15
ATOM     15  O   UNL     1       5.024   2.479  19.509  0.00  0.00    +0.000 OA
ATOM     16  H   UNL     1       4.446   1.684  19.447  0.00  0.00    +0.000 HD
ENDBRANCH  11  15
BRANCH  12  17
ATOM     17  O   UNL     1       2.478   1.907  19.977  0.00  0.00    +0.000 OA
ATOM     18  H   UNL     1       1.822   1.926  20.701  0.00  0.00    +0.000 HD
ENDBRANCH  12  17
ENDBRANCH   1  10
BRANCH   5  19
ATOM     19  C   UNL     1       6.448   5.400  16.484  0.00  0.00    +0.000 A 
ATOM     20  C   UNL     1       5.297   6.063  16.001  0.00  0.00    +0.000 A 
ATOM     21  C   UNL     1       5.370   5.932  14.647  0.00  0.00    +0.000 A 
ATOM     22  N   UNL     1       6.229   4.882  14.427  0.00  0.00    +0.000 N 
ATOM     23  N   UNL     1       7.064   4.701  15.511  0.00  0.00    +0.000 NA
BRANCH  22  24
ATOM     24  C   UNL     1       6.173   4.039  13.281  0.00  0.00    +0.000 A 
ATOM     25  C   UNL     1       7.314   3.549  12.651  0.00  0.00    +0.000 A 
ATOM     26  C   UNL     1       7.176   2.713  11.527  0.00  0.00    +0.000 A 
ATOM     27  C   UNL     1       5.912   2.336  11.057  0.00  0.00    +0.000 A 
ATOM     28  C   UNL     1       4.771   2.794  11.700  0.00  0.00    +0.000 A 
ATOM     29  C   UNL     1       4.907   3.647  12.794  0.00  0.00    +0.000 A 
ENDBRANCH  22  24
ENDBRANCH   5  19
TORSDOF 6
ENDMDL
MODEL 8
REMARK VINA RESULT:      -7.9      3.295      5.334
REMARK  Name = 
REMARK  6 active torsions:
REMARK  status: ('A' for Active; 'I' for Inactive)
REMARK    1  A    between atoms: O_1  and  C_2
REMARK    2  A    between atoms: C_5  and  C_6
REMARK    3  A    between atoms: C_10  and  C_11
REMARK    4  A    between atoms: N_14  and  C_15
REMARK    5  A    between atoms: C_22  and  O_23
REMARK    6  A    between atoms: C_24  and  O_25
REMARK                            x       y       z     vdW  Elec       q    Type
REMARK                         _______ _______ _______ _____ _____    ______ ____
ROOT
ATOM      1  C   UNL     1       3.242   6.027  18.200  0.00  0.00    +0.000 A 
ATOM      2  N   UNL     1       4.184   5.489  17.384  0.00  0.00    +0.000 NA
ATOM      3  N   UNL     1       4.612   6.501  16.628  0.00  0.00    +0.000 N 
ATOM      4  C   UNL     1       4.005   7.678  16.909  0.00  0.00    +0.000 A 
ATOM      5  C   UNL     1       3.087   7.423  17.913  0.00  0.00    +0.000 A 
ATOM      6  H   UNL     1       5.293   6.304  15.902  0.00  0.00    +0.000 HD
ENDROOT
BRANCH   1  10
ATOM      7  C   UNL     1       1.314   3.202  20.832  0.00  0.00    +0.000 A 
ATOM      8  C   UNL     1       2.176   4.169  21.347  0.00  0.00    +0.000 A 
ATOM      9  C   UNL     1       2.788   5.106  20.497  0.00  0.00    +0.000 A 
ATOM     10  C   UNL     1       2.559   5.086  19.114  0.00  0.00    +0.000 A 
ATOM     11  C   UNL     1       1.692   4.081  18.621  0.00  0.00    +0.000 A 
ATOM     12  C   UNL     1       1.069   3.161  19.468  0.00  0.00    +0.000 A 
BRANCH   7  13
ATOM     13  O   UNL     1       0.725   2.281  21.650  0.00  0.00    +0.000 OA
ATOM     14  H   UNL     1      -0.212   2.200  21.417  0.00  0.00    +0.000 HD
ENDBRANCH   7  13
BRANCH  11  15
ATOM     15  O   UNL     1       1.429   3.908  17.276  0.00  0.00    +0.000 OA
ATOM     16  H   UNL     1       1.585   2.950  17.110  0.00  0.00    +0.000 HD
ENDBRANCH  11  15
BRANCH  12  17
ATOM     17  O   UNL     1       0.247   2.206  18.929  0.00  0.00    +0.000 OA
ATOM     18  H   UNL     1       0.110   2.498  18.006  0.00  0.00    +0.000 HD
ENDBRANCH  12  17
ENDBRANCH   1  10
BRANCH   5  19
ATOM     19  C   UNL     1       2.052   8.400  18.291  0.00  0.00    +0.000 A 
ATOM     20  C   UNL     1       1.776   8.570  19.667  0.00  0.00    +0.000 A 
ATOM     21  C   UNL     1       0.930   9.638  19.715  0.00  0.00    +0.000 A 
ATOM     22  N   UNL     1       0.408   9.749  18.449  0.00  0.00    +0.000 N 
ATOM     23  N   UNL     1       1.245   9.159  17.524  0.00  0.00    +0.000 NA
BRANCH  22  24
ATOM     24  C   UNL     1      -0.874  10.300  18.166  0.00  0.00    +0.000 A 
ATOM     25  C   UNL     1      -1.665   9.861  17.106  0.00  0.00    +0.000 A 
ATOM     26  C   UNL     1      -2.925  10.451  16.896  0.00  0.00    +0.000 A 
ATOM     27  C   UNL     1      -3.412  11.443  17.756  0.00  0.00    +0.000 A 
ATOM     28  C   UNL     1      -2.643  11.862  18.832  0.00  0.00    +0.000 A 
ATOM     29  C   UNL     1      -1.381  11.300  19.022  0.00  0.00    +0.000 A 
ENDBRANCH  22  24
ENDBRANCH   5  19
TORSDOF 6
ENDMDL
MODEL 9
REMARK VINA RESULT:      -7.9      3.102      6.739
REMARK  Name = 
REMARK  6 active torsions:
REMARK  status: ('A' for Active; 'I' for Inactive)
REMARK    1  A    between atoms: O_1  and  C_2
REMARK    2  A    between atoms: C_5  and  C_6
REMARK    3  A    between atoms: C_10  and  C_11
REMARK    4  A    between atoms: N_14  and  C_15
REMARK    5  A    between atoms: C_22  and  O_23
REMARK    6  A    between atoms: C_24  and  O_25
REMARK                            x       y       z     vdW  Elec       q    Type
REMARK                         _______ _______ _______ _____ _____    ______ ____
ROOT
ATOM      1  C   UNL     1       2.954   5.492  19.543  0.00  0.00    +0.000 A 
ATOM      2  N   UNL     1       2.178   4.819  20.431  0.00  0.00    +0.000 NA
ATOM      3  N   UNL     1       2.773   3.637  20.591  0.00  0.00    +0.000 N 
ATOM      4  C   UNL     1       3.902   3.498  19.859  0.00  0.00    +0.000 A 
ATOM      5  C   UNL     1       4.059   4.671  19.140  0.00  0.00    +0.000 A 
ATOM      6  H   UNL     1       2.321   2.949  21.185  0.00  0.00    +0.000 HD
ENDROOT
BRANCH   1  10
ATOM      7  C   UNL     1       1.638   9.449  18.432  0.00  0.00    +0.000 A 
ATOM      8  C   UNL     1       2.219   8.608  17.484  0.00  0.00    +0.000 A 
ATOM      9  C   UNL     1       2.628   7.310  17.835  0.00  0.00    +0.000 A 
ATOM     10  C   UNL     1       2.475   6.833  19.144  0.00  0.00    +0.000 A 
ATOM     11  C   UNL     1       1.898   7.717  20.087  0.00  0.00    +0.000 A 
ATOM     12  C   UNL     1       1.475   9.001  19.734  0.00  0.00    +0.000 A 
BRANCH   7  13
ATOM     13  O   UNL     1       1.250  10.715  18.101  0.00  0.00    +0.000 OA
ATOM     14  H   UNL     1       1.750  11.352  18.634  0.00  0.00    +0.000 HD
ENDBRANCH   7  13
BRANCH  11  15
ATOM     15  O   UNL     1       1.747   7.399  21.423  0.00  0.00    +0.000 OA
ATOM     16  H   UNL     1       1.065   8.026  21.756  0.00  0.00    +0.000 HD
ENDBRANCH  11  15
BRANCH  12  17
ATOM     17  O   UNL     1       0.931   9.814  20.695  0.00  0.00    +0.000 OA
ATOM     18  H   UNL     1       1.263   9.448  21.538  0.00  0.00    +0.000 HD
ENDBRANCH  12  17
ENDBRANCH   1  10
BRANCH   5  19
ATOM     19  C   UNL     1       5.022   4.785  18.033  0.00  0.00    +0.000 A 
ATOM     20  C   UNL     1       5.833   5.942  17.981  0.00  0.00    +0.000 A 
ATOM     21  C   UNL     1       6.725   5.689  16.983  0.00  0.00    +0.000 A 
ATOM     22  N   UNL     1       6.159   4.686  16.232  0.00  0.00    +0.000 N 
ATOM     23  N   UNL     1       5.246   3.974  16.982  0.00  0.00    +0.000 NA
BRANCH  22  24
ATOM     24  C   UNL     1       6.411   4.498  14.843  0.00  0.00    +0.000 A 
ATOM     25  C   UNL     1       5.632   3.665  14.043  0.00  0.00    +0.000 A 
ATOM     26  C   UNL     1       5.940   3.537  12.677  0.00  0.00    +0.000 A 
ATOM     27  C   UNL     1       6.990   4.262  12.100  0.00  0.00    +0.000 A 
ATOM     28  C   UNL     1       7.749   5.118  12.884  0.00  0.00    +0.000 A 
ATOM     29  C   UNL     1       7.465   5.221  14.245  0.00  0.00    +0.000 A 
ENDBRANCH  22  24
ENDBRANCH   5  19
TORSDOF 6
ENDMDL
