MODEL 1
REMARK VINA RESULT:      -7.7      0.000      0.000
REMARK  Name = 
REMARK  13 active torsions:
REMARK  status: ('A' for Active; 'I' for Inactive)
REMARK    1  A    between atoms: C_1  and  C_2
REMARK    2  A    between atoms: C_2  and  O_3
REMARK    3  A    between atoms: O_3  and  C_4
REMARK    4  A    between atoms: N_6  and  C_7
REMARK    5  A    between atoms: C_7  and  C_8
REMARK    6  A    between atoms: C_7  and  C_17
REMARK    7  A    between atoms: C_8  and  C_9
REMARK    8  A    between atoms: C_9  and  C_10
REMARK    9  A    between atoms: C_10  and  C_11
REMARK   10  A    between atoms: C_11  and  N_12
REMARK   11  A    between atoms: N_12  and  S_13
REMARK   12  A    between atoms: S_13  and  N_14
REMARK   13  A    between atoms: C_22  and  C_23
REMARK                            x       y       z     vdW  Elec       q    Type
REMARK                         _______ _______ _______ _____ _____    ______ ____
ROOT
ATOM      1  C   UNL     1       4.023   5.173  19.282  0.00  0.00    +0.000 C 
ENDROOT
BRANCH   1   2
ATOM      2  C   UNL     1       2.931   6.211  19.638  0.00  0.00    +0.000 C 
ATOM      3  O   UNL     1       2.155   6.028  20.572  0.00  0.00    +0.000 OA
ATOM      4  N   UNL     1       2.887   7.286  18.780  0.00  0.00    +0.000 N 
ATOM      5  C   UNL     1       2.033   8.324  19.002  0.00  0.00    +0.000 A 
ATOM      6  N   UNL     1       1.397   8.630  20.101  0.00  0.00    +0.000 NA
ATOM      7  C   UNL     1       0.608   9.746  19.890  0.00  0.00    +0.000 A 
ATOM      8  C   UNL     1       0.653  10.239  18.598  0.00  0.00    +0.000 A 
ATOM      9  S   UNL     1       1.790   9.348  17.666  0.00  0.00    +0.000 S 
ATOM     10  H   UNL     1       3.354   7.226  17.888  0.00  0.00    +0.000 HD
BRANCH   7  11
ATOM     11  C   UNL     1      -0.191  10.314  20.970  0.00  0.00    +0.000 A 
ATOM     12  C   UNL     1      -0.934  11.486  20.794  0.00  0.00    +0.000 A 
ATOM     13  C   UNL     1      -1.663  12.036  21.853  0.00  0.00    +0.000 A 
ATOM     14  C   UNL     1      -1.654  11.417  23.101  0.00  0.00    +0.000 A 
ATOM     15  C   UNL     1      -0.919  10.249  23.291  0.00  0.00    +0.000 A 
ATOM     16  C   UNL     1      -0.186   9.701  22.232  0.00  0.00    +0.000 A 
ENDBRANCH   7  11
ENDBRANCH   1   2
BRANCH   1  19
ATOM     17  C   UNL     1       4.000   2.701  19.339  0.00  0.00    +0.000 C 
ATOM     18  O   UNL     1       5.011   2.585  20.011  0.00  0.00    +0.000 OA
ATOM     19  N   UNL     1       3.425   3.877  18.973  0.00  0.00    +0.000 N 
ATOM     20  H   UNL     1       2.669   3.809  18.303  0.00  0.00    +0.000 HD
BRANCH  17  21
ATOM     21  O   UNL     1       3.300   1.692  18.776  0.00  0.00    +0.000 OA
BRANCH  21  23
ATOM     22  C   UNL     1       0.957   2.096  18.708  0.00  0.00    +0.000 C 
ATOM     23  C   UNL     1       2.242   2.110  17.899  0.00  0.00    +0.000 C 
ENDBRANCH  21  23
ENDBRANCH  17  21
ENDBRANCH   1  19
BRANCH   1  24
ATOM     24  C   UNL     1       4.932   5.630  18.117  0.00  0.00    +0.000 C 
BRANCH  24  25
ATOM     25  C   UNL     1       6.298   6.105  18.612  0.00  0.00    +0.000 C 
BRANCH  25  26
ATOM     26  C   UNL     1       7.468   5.165  18.330  0.00  0.00    +0.000 C 
BRANCH  26  27
ATOM     27  C   UNL     1       7.115   4.214  17.173  0.00  0.00    +0.000 C 
BRANCH  27  28
ATOM     28  N   UNL     1       7.723   4.717  15.925  0.00  0.00    +0.000 NA
ATOM     29  H   UNL     1       8.532   4.168  15.632  0.00  0.00    +0.000 HD
BRANCH  28  30
ATOM     30  S   UNL     1       6.743   4.945  14.597  0.00  0.00    +0.000 S 
ATOM     31  O   UNL     1       6.342   3.642  14.146  0.00  0.00    +0.000 OA
ATOM     32  O   UNL     1       5.816   6.002  14.894  0.00  0.00    +0.000 OA
BRANCH  30  33
ATOM     33  N   UNL     1       7.872   5.532  13.543  0.00  0.00    +0.000 NA
ATOM     34  H   UNL     1       7.466   6.138  12.834  0.00  0.00    +0.000 HD
ATOM     35  H   UNL     1       8.536   4.838  13.222  0.00  0.00    +0.000 HD
ENDBRANCH  30  33
ENDBRANCH  28  30
ENDBRANCH  27  28
ENDBRANCH  26  27
ENDBRANCH  25  26
ENDBRANCH  24  25
ENDBRANCH   1  24
TORSDOF 12
ENDMDL
MODEL 2
REMARK VINA RESULT:      -7.3      1.597      1.797
REMARK  Name = 
REMARK  13 active torsions:
REMARK  status: ('A' for Active; 'I' for Inactive)
REMARK    1  A    between atoms: C_1  and  C_2
REMARK    2  A    between atoms: C_2  and  O_3
REMARK    3  A    between atoms: O_3  and  C_4
REMARK    4  A    between atoms: N_6  and  C_7
REMARK    5  A    between atoms: C_7  and  C_8
REMARK    6  A    between atoms: C_7  and  C_17
REMARK    7  A    between atoms: C_8  and  C_9
REMARK    8  A    between atoms: C_9  and  C_10
REMARK    9  A    between atoms: C_10  and  C_11
REMARK   10  A    between atoms: C_11  and  N_12
REMARK   11  A    between atoms: N_12  and  S_13
REMARK   12  A    between atoms: S_13  and  N_14
REMARK   13  A    between atoms: C_22  and  C_23
REMARK                            x       y       z     vdW  Elec       q    Type
REMARK                         _______ _______ _______ _____ _____    ______ ____
ROOT
ATOM      1  C   UNL     1       4.370   5.253  18.641  0.00  0.00    +0.000 C 
ENDROOT
BRANCH   1   2
ATOM      2  C   UNL     1       3.256   6.201  19.148  0.00  0.00    +0.000 C 
ATOM      3  O   UNL     1       2.566   5.914  20.122  0.00  0.00    +0.000 OA
ATOM      4  N   UNL     1       3.088   7.324  18.371  0.00  0.00    +0.000 N 
ATOM      5  C   UNL     1       2.200   8.295  18.726  0.00  0.00    +0.000 A 
ATOM      6  N   UNL     1       1.637   8.493  19.888  0.00  0.00    +0.000 NA
ATOM      7  C   UNL     1       0.777   9.572  19.812  0.00  0.00    +0.000 A 
ATOM      8  C   UNL     1       0.694  10.149  18.557  0.00  0.00    +0.000 A 
ATOM      9  S   UNL     1       1.800   9.386  17.485  0.00  0.00    +0.000 S 
ATOM     10  H   UNL     1       3.486   7.348  17.444  0.00  0.00    +0.000 HD
BRANCH   7  11
ATOM     11  C   UNL     1       0.035  10.023  20.985  0.00  0.00    +0.000 A 
ATOM     12  C   UNL     1      -0.716  11.203  20.969  0.00  0.00    +0.000 A 
ATOM     13  C   UNL     1      -1.388  11.638  22.115  0.00  0.00    +0.000 A 
ATOM     14  C   UNL     1      -1.313  10.895  23.291  0.00  0.00    +0.000 A 
ATOM     15  C   UNL     1      -0.569   9.718  23.323  0.00  0.00    +0.000 A 
ATOM     16  C   UNL     1       0.107   9.284  22.176  0.00  0.00    +0.000 A 
ENDBRANCH   7  11
ENDBRANCH   1   2
BRANCH   1  19
ATOM     17  C   UNL     1       4.212   2.818  19.048  0.00  0.00    +0.000 C 
ATOM     18  O   UNL     1       4.968   2.806  20.005  0.00  0.00    +0.000 OA
ATOM     19  N   UNL     1       3.831   3.925  18.357  0.00  0.00    +0.000 N 
ATOM     20  H   UNL     1       3.309   3.756  17.506  0.00  0.00    +0.000 HD
BRANCH  17  21
ATOM     21  O   UNL     1       3.666   1.736  18.451  0.00  0.00    +0.000 OA
BRANCH  21  23
ATOM     22  C   UNL     1       1.549   1.949  19.514  0.00  0.00    +0.000 C 
ATOM     23  C   UNL     1       2.262   1.845  18.177  0.00  0.00    +0.000 C 
ENDBRANCH  21  23
ENDBRANCH  17  21
ENDBRANCH   1  19
BRANCH   1  24
ATOM     24  C   UNL     1       5.111   5.802  17.400  0.00  0.00    +0.000 C 
BRANCH  24  25
ATOM     25  C   UNL     1       4.887   4.926  16.168  0.00  0.00    +0.000 C 
BRANCH  25  26
ATOM     26  C   UNL     1       5.711   5.292  14.936  0.00  0.00    +0.000 C 
BRANCH  26  27
ATOM     27  C   UNL     1       6.763   4.204  14.662  0.00  0.00    +0.000 C 
BRANCH  27  28
ATOM     28  N   UNL     1       6.159   3.136  13.840  0.00  0.00    +0.000 NA
ATOM     29  H   UNL     1       5.240   2.850  14.179  0.00  0.00    +0.000 HD
BRANCH  28  30
ATOM     30  S   UNL     1       6.055   3.362  12.192  0.00  0.00    +0.000 S 
ATOM     31  O   UNL     1       4.683   3.668  11.899  0.00  0.00    +0.000 OA
ATOM     32  O   UNL     1       7.158   4.185  11.778  0.00  0.00    +0.000 OA
BRANCH  30  33
ATOM     33  N   UNL     1       6.356   1.814  11.702  0.00  0.00    +0.000 NA
ATOM     34  H   UNL     1       7.055   1.766  10.964  0.00  0.00    +0.000 HD
ATOM     35  H   UNL     1       5.522   1.253  11.575  0.00  0.00    +0.000 HD
ENDBRANCH  30  33
ENDBRANCH  28  30
ENDBRANCH  27  28
ENDBRANCH  26  27
ENDBRANCH  25  26
ENDBRANCH  24  25
ENDBRANCH   1  24
TORSDOF 12
ENDMDL
MODEL 3
REMARK VINA RESULT:      -7.2      2.835      8.243
REMARK  Name = 
REMARK  13 active torsions:
REMARK  status: ('A' for Active; 'I' for Inactive)
REMARK    1  A    between atoms: C_1  and  C_2
REMARK    2  A    between atoms: C_2  and  O_3
REMARK    3  A    between atoms: O_3  and  C_4
REMARK    4  A    between atoms: N_6  and  C_7
REMARK    5  A    between atoms: C_7  and  C_8
REMARK    6  A    between atoms: C_7  and  C_17
REMARK    7  A    between atoms: C_8  and  C_9
REMARK    8  A    between atoms: C_9  and  C_10
REMARK    9  A    between atoms: C_10  and  C_11
REMARK   10  A    between atoms: C_11  and  N_12
REMARK   11  A    between atoms: N_12  and  S_13
REMARK   12  A    between atoms: S_13  and  N_14
REMARK   13  A    between atoms: C_22  and  C_23
REMARK                            x       y       z     vdW  Elec       q    Type
REMARK                         _______ _______ _______ _____ _____    ______ ____
ROOT
ATOM      1  C   UNL     1       2.425   6.873  19.941  0.00  0.00    +0.000 C 
ENDROOT
BRANCH   1   2
ATOM      2  C   UNL     1       3.242   6.200  18.812  0.00  0.00    +0.000 C 
ATOM      3  O   UNL     1       2.692   5.709  17.830  0.00  0.00    +0.000 OA
ATOM      4  N   UNL     1       4.595   6.154  19.059  0.00  0.00    +0.000 N 
ATOM      5  C   UNL     1       5.460   5.663  18.128  0.00  0.00    +0.000 A 
ATOM      6  N   UNL     1       5.253   5.463  16.854  0.00  0.00    +0.000 NA
ATOM      7  C   UNL     1       6.386   4.923  16.275  0.00  0.00    +0.000 A 
ATOM      8  C   UNL     1       7.427   4.701  17.159  0.00  0.00    +0.000 A 
ATOM      9  S   UNL     1       7.007   5.282  18.721  0.00  0.00    +0.000 S 
ATOM     10  H   UNL     1       4.933   6.315  19.996  0.00  0.00    +0.000 HD
BRANCH   7  11
ATOM     11  C   UNL     1       6.429   4.625  14.847  0.00  0.00    +0.000 A 
ATOM     12  C   UNL     1       5.487   3.785  14.245  0.00  0.00    +0.000 A 
ATOM     13  C   UNL     1       5.568   3.481  12.883  0.00  0.00    +0.000 A 
ATOM     14  C   UNL     1       6.596   4.015  12.109  0.00  0.00    +0.000 A 
ATOM     15  C   UNL     1       7.541   4.854  12.695  0.00  0.00    +0.000 A 
ATOM     16  C   UNL     1       7.462   5.156  14.059  0.00  0.00    +0.000 A 
ENDBRANCH   7  11
ENDBRANCH   1   2
BRANCH   1  19
ATOM     17  C   UNL     1       1.193   8.998  20.232  0.00  0.00    +0.000 C 
ATOM     18  O   UNL     1       1.392   9.092  21.431  0.00  0.00    +0.000 OA
ATOM     19  N   UNL     1       1.670   8.013  19.426  0.00  0.00    +0.000 N 
ATOM     20  H   UNL     1       1.305   8.000  18.481  0.00  0.00    +0.000 HD
BRANCH  17  21
ATOM     21  O   UNL     1       0.410   9.812  19.489  0.00  0.00    +0.000 OA
BRANCH  21  23
ATOM     22  C   UNL     1       1.547  11.851  19.033  0.00  0.00    +0.000 C 
ATOM     23  C   UNL     1       1.098  10.523  18.449  0.00  0.00    +0.000 C 
ENDBRANCH  21  23
ENDBRANCH  17  21
ENDBRANCH   1  19
BRANCH   1  24
ATOM     24  C   UNL     1       1.476   5.891  20.667  0.00  0.00    +0.000 C 
BRANCH  24  25
ATOM     25  C   UNL     1       1.807   4.435  20.342  0.00  0.00    +0.000 C 
BRANCH  25  26
ATOM     26  C   UNL     1       0.673   3.619  19.725  0.00  0.00    +0.000 C 
BRANCH  26  27
ATOM     27  C   UNL     1       1.240   2.378  19.016  0.00  0.00    +0.000 C 
BRANCH  27  28
ATOM     28  N   UNL     1       2.498   1.972  19.673  0.00  0.00    +0.000 NA
ATOM     29  H   UNL     1       2.466   1.015  20.030  0.00  0.00    +0.000 HD
BRANCH  28  30
ATOM     30  S   UNL     1       3.930   2.165  18.843  0.00  0.00    +0.000 S 
ATOM     31  O   UNL     1       3.591   2.655  17.536  0.00  0.00    +0.000 OA
ATOM     32  O   UNL     1       4.874   2.811  19.712  0.00  0.00    +0.000 OA
BRANCH  30  33
ATOM     33  N   UNL     1       4.362   0.577  18.704  0.00  0.00    +0.000 NA
ATOM     34  H   UNL     1       4.617   0.323  17.752  0.00  0.00    +0.000 HD
ATOM     35  H   UNL     1       3.748  -0.062  19.195  0.00  0.00    +0.000 HD
ENDBRANCH  30  33
ENDBRANCH  28  30
ENDBRANCH  27  28
ENDBRANCH  26  27
ENDBRANCH  25  26
ENDBRANCH  24  25
ENDBRANCH   1  24
TORSDOF 12
ENDMDL
MODEL 4
REMARK VINA RESULT:      -7.2      4.657     10.433
REMARK  Name = 
REMARK  13 active torsions:
REMARK  status: ('A' for Active; 'I' for Inactive)
REMARK    1  A    between atoms: C_1  and  C_2
REMARK    2  A    between atoms: C_2  and  O_3
REMARK    3  A    between atoms: O_3  and  C_4
REMARK    4  A    between atoms: N_6  and  C_7
REMARK    5  A    between atoms: C_7  and  C_8
REMARK    6  A    between atoms: C_7  and  C_17
REMARK    7  A    between atoms: C_8  and  C_9
REMARK    8  A    between atoms: C_9  and  C_10
REMARK    9  A    between atoms: C_10  and  C_11
REMARK   10  A    between atoms: C_11  and  N_12
REMARK   11  A    between atoms: N_12  and  S_13
REMARK   12  A    between atoms: S_13  and  N_14
REMARK   13  A    between atoms: C_22  and  C_23
REMARK                            x       y       z     vdW  Elec       q    Type
REMARK                         _______ _______ _______ _____ _____    ______ ____
ROOT
ATOM      1  C   UNL     1       0.476  10.332  19.034  0.00  0.00    +0.000 C 
ENDROOT
BRANCH   1   2
ATOM      2  C   UNL     1       1.404   9.194  18.544  0.00  0.00    +0.000 C 
ATOM      3  O   UNL     1       1.880   9.199  17.412  0.00  0.00    +0.000 OA
ATOM      4  N   UNL     1       1.570   8.181  19.461  0.00  0.00    +0.000 N 
ATOM      5  C   UNL     1       2.419   7.144  19.212  0.00  0.00    +0.000 A 
ATOM      6  N   UNL     1       3.368   7.069  18.318  0.00  0.00    +0.000 NA
ATOM      7  C   UNL     1       3.972   5.828  18.380  0.00  0.00    +0.000 A 
ATOM      8  C   UNL     1       3.426   4.974  19.323  0.00  0.00    +0.000 A 
ATOM      9  S   UNL     1       2.204   5.789  20.216  0.00  0.00    +0.000 S 
ATOM     10  H   UNL     1       0.932   8.108  20.239  0.00  0.00    +0.000 HD
BRANCH   7  11
ATOM     11  C   UNL     1       5.086   5.491  17.500  0.00  0.00    +0.000 A 
ATOM     12  C   UNL     1       4.972   5.576  16.109  0.00  0.00    +0.000 A 
ATOM     13  C   UNL     1       6.039   5.212  15.281  0.00  0.00    +0.000 A 
ATOM     14  C   UNL     1       7.231   4.757  15.840  0.00  0.00    +0.000 A 
ATOM     15  C   UNL     1       7.359   4.668  17.224  0.00  0.00    +0.000 A 
ATOM     16  C   UNL     1       6.291   5.029  18.052  0.00  0.00    +0.000 A 
ENDBRANCH   7  11
ENDBRANCH   1   2
BRANCH   1  19
ATOM     17  C   UNL     1      -1.151  11.793  17.879  0.00  0.00    +0.000 C 
ATOM     18  O   UNL     1      -0.768  12.831  18.392  0.00  0.00    +0.000 OA
ATOM     19  N   UNL     1      -0.607  10.564  18.081  0.00  0.00    +0.000 N 
ATOM     20  H   UNL     1      -1.121   9.784  17.691  0.00  0.00    +0.000 HD
BRANCH  17  21
ATOM     21  O   UNL     1      -2.224  11.654  17.069  0.00  0.00    +0.000 OA
BRANCH  21  23
ATOM     22  C   UNL     1      -2.848  10.272  15.236  0.00  0.00    +0.000 C 
ATOM     23  C   UNL     1      -2.546  10.298  16.725  0.00  0.00    +0.000 C 
ENDBRANCH  21  23
ENDBRANCH  17  21
ENDBRANCH   1  19
BRANCH   1  24
ATOM     24  C   UNL     1      -0.103  10.073  20.444  0.00  0.00    +0.000 C 
BRANCH  24  25
ATOM     25  C   UNL     1       0.014  11.303  21.344  0.00  0.00    +0.000 C 
BRANCH  25  26
ATOM     26  C   UNL     1      -0.771  11.245  22.652  0.00  0.00    +0.000 C 
BRANCH  26  27
ATOM     27  C   UNL     1      -1.986  12.187  22.581  0.00  0.00    +0.000 C 
BRANCH  27  28
ATOM     28  N   UNL     1      -2.968  11.796  23.612  0.00  0.00    +0.000 NA
ATOM     29  H   UNL     1      -2.539  11.649  24.528  0.00  0.00    +0.000 HD
BRANCH  28  30
ATOM     30  S   UNL     1      -4.323  12.743  23.822  0.00  0.00    +0.000 S 
ATOM     31  O   UNL     1      -5.155  12.073  24.782  0.00  0.00    +0.000 OA
ATOM     32  O   UNL     1      -3.904  14.111  23.952  0.00  0.00    +0.000 OA
BRANCH  30  33
ATOM     33  N   UNL     1      -5.002  12.552  22.328  0.00  0.00    +0.000 NA
ATOM     34  H   UNL     1      -4.306  12.443  21.594  0.00  0.00    +0.000 HD
ATOM     35  H   UNL     1      -5.767  13.188  22.139  0.00  0.00    +0.000 HD
ENDBRANCH  30  33
ENDBRANCH  28  30
ENDBRANCH  27  28
ENDBRANCH  26  27
ENDBRANCH  25  26
ENDBRANCH  24  25
ENDBRANCH   1  24
TORSDOF 12
ENDMDL
MODEL 5
REMARK VINA RESULT:      -7.2      2.797      5.082
REMARK  Name = 
REMARK  13 active torsions:
REMARK  status: ('A' for Active; 'I' for Inactive)
REMARK    1  A    between atoms: C_1  and  C_2
REMARK    2  A    between atoms: C_2  and  O_3
REMARK    3  A    between atoms: O_3  and  C_4
REMARK    4  A    between atoms: N_6  and  C_7
REMARK    5  A    between atoms: C_7  and  C_8
REMARK    6  A    between atoms: C_7  and  C_17
REMARK    7  A    between atoms: C_8  and  C_9
REMARK    8  A    between atoms: C_9  and  C_10
REMARK    9  A    between atoms: C_10  and  C_11
REMARK   10  A    between atoms: C_11  and  N_12
REMARK   11  A    between atoms: N_12  and  S_13
REMARK   12  A    between atoms: S_13  and  N_14
REMARK   13  A    between atoms: C_22  and  C_23
REMARK                            x       y       z     vdW  Elec       q    Type
REMARK                         _______ _______ _______ _____ _____    ______ ____
ROOT
ATOM      1  C   UNL     1       3.303   6.397  17.440  0.00  0.00    +0.000 C 
ENDROOT
BRANCH   1   2
ATOM      2  C   UNL     1       2.780   7.717  18.057  0.00  0.00    +0.000 C 
ATOM      3  O   UNL     1       2.991   8.802  17.521  0.00  0.00    +0.000 OA
ATOM      4  N   UNL     1       2.139   7.550  19.263  0.00  0.00    +0.000 N 
ATOM      5  C   UNL     1       1.555   8.605  19.897  0.00  0.00    +0.000 A 
ATOM      6  N   UNL     1       1.238   9.773  19.406  0.00  0.00    +0.000 NA
ATOM      7  C   UNL     1       0.689  10.565  20.397  0.00  0.00    +0.000 A 
ATOM      8  C   UNL     1       0.635   9.963  21.642  0.00  0.00    +0.000 A 
ATOM      9  S   UNL     1       1.185   8.338  21.536  0.00  0.00    +0.000 S 
ATOM     10  H   UNL     1       2.256   6.685  19.770  0.00  0.00    +0.000 HD
BRANCH   7  11
ATOM     11  C   UNL     1       0.225  11.917  20.105  0.00  0.00    +0.000 A 
ATOM     12  C   UNL     1      -0.125  12.808  21.125  0.00  0.00    +0.000 A 
ATOM     13  C   UNL     1      -0.604  14.086  20.824  0.00  0.00    +0.000 A 
ATOM     14  C   UNL     1      -0.738  14.485  19.496  0.00  0.00    +0.000 A 
ATOM     15  C   UNL     1      -0.393  13.609  18.470  0.00  0.00    +0.000 A 
ATOM     16  C   UNL     1       0.083  12.328  18.771  0.00  0.00    +0.000 A 
ENDBRANCH   7  11
ENDBRANCH   1   2
BRANCH   1  19
ATOM     17  C   UNL     1       5.607   6.459  16.544  0.00  0.00    +0.000 C 
ATOM     18  O   UNL     1       5.288   6.775  15.410  0.00  0.00    +0.000 OA
ATOM     19  N   UNL     1       4.752   6.294  17.588  0.00  0.00    +0.000 N 
ATOM     20  H   UNL     1       5.154   5.898  18.429  0.00  0.00    +0.000 HD
BRANCH  17  21
ATOM     21  O   UNL     1       6.854   6.146  16.962  0.00  0.00    +0.000 OA
BRANCH  21  23
ATOM     22  C   UNL     1       7.852   5.843  19.099  0.00  0.00    +0.000 C 
ATOM     23  C   UNL     1       6.905   5.242  18.076  0.00  0.00    +0.000 C 
ENDBRANCH  21  23
ENDBRANCH  17  21
ENDBRANCH   1  19
BRANCH   1  24
ATOM     24  C   UNL     1       2.617   5.143  18.031  0.00  0.00    +0.000 C 
BRANCH  24  25
ATOM     25  C   UNL     1       3.024   3.869  17.291  0.00  0.00    +0.000 C 
BRANCH  25  26
ATOM     26  C   UNL     1       3.973   2.940  18.044  0.00  0.00    +0.000 C 
BRANCH  26  27
ATOM     27  C   UNL     1       3.952   3.268  19.547  0.00  0.00    +0.000 C 
BRANCH  27  28
ATOM     28  N   UNL     1       2.865   2.510  20.197  0.00  0.00    +0.000 NA
ATOM     29  H   UNL     1       3.206   1.695  20.709  0.00  0.00    +0.000 HD
BRANCH  28  30
ATOM     30  S   UNL     1       1.800   3.331  21.182  0.00  0.00    +0.000 S 
ATOM     31  O   UNL     1       1.585   2.509  22.340  0.00  0.00    +0.000 OA
ATOM     32  O   UNL     1       2.214   4.705  21.250  0.00  0.00    +0.000 OA
BRANCH  30  33
ATOM     33  N   UNL     1       0.453   3.245  20.230  0.00  0.00    +0.000 NA
ATOM     34  H   UNL     1      -0.404   3.423  20.748  0.00  0.00    +0.000 HD
ATOM     35  H   UNL     1       0.446   2.455  19.596  0.00  0.00    +0.000 HD
ENDBRANCH  30  33
ENDBRANCH  28  30
ENDBRANCH  27  28
ENDBRANCH  26  27
ENDBRANCH  25  26
ENDBRANCH  24  25
ENDBRANCH   1  24
TORSDOF 12
ENDMDL
MODEL 6
REMARK VINA RESULT:      -7.2      1.352      1.705
REMARK  Name = 
REMARK  13 active torsions:
REMARK  status: ('A' for Active; 'I' for Inactive)
REMARK    1  A    between atoms: C_1  and  C_2
REMARK    2  A    between atoms: C_2  and  O_3
REMARK    3  A    between atoms: O_3  and  C_4
REMARK    4  A    between atoms: N_6  and  C_7
REMARK    5  A    between atoms: C_7  and  C_8
REMARK    6  A    between atoms: C_7  and  C_17
REMARK    7  A    between atoms: C_8  and  C_9
REMARK    8  A    between atoms: C_9  and  C_10
REMARK    9  A    between atoms: C_10  and  C_11
REMARK   10  A    between atoms: C_11  and  N_12
REMARK   11  A    between atoms: N_12  and  S_13
REMARK   12  A    between atoms: S_13  and  N_14
REMARK   13  A    between atoms: C_22  and  C_23
REMARK                            x       y       z     vdW  Elec       q    Type
REMARK                         _______ _______ _______ _____ _____    ______ ____
ROOT
ATOM      1  C   UNL     1       3.163   5.421  20.012  0.00  0.00    +0.000 C 
ENDROOT
BRANCH   1   2
ATOM      2  C   UNL     1       2.161   6.593  20.147  0.00  0.00    +0.000 C 
ATOM      3  O   UNL     1       1.198   6.527  20.908  0.00  0.00    +0.000 OA
ATOM      4  N   UNL     1       2.420   7.646  19.301  0.00  0.00    +0.000 N 
ATOM      5  C   UNL     1       1.676   8.786  19.352  0.00  0.00    +0.000 A 
ATOM      6  N   UNL     1       0.878   9.192  20.304  0.00  0.00    +0.000 NA
ATOM      7  C   UNL     1       0.292  10.391  19.943  0.00  0.00    +0.000 A 
ATOM      8  C   UNL     1       0.652  10.846  18.687  0.00  0.00    +0.000 A 
ATOM      9  S   UNL     1       1.831   9.802  17.997  0.00  0.00    +0.000 S 
ATOM     10  H   UNL     1       3.044   7.510  18.519  0.00  0.00    +0.000 HD
BRANCH   7  11
ATOM     11  C   UNL     1      -0.628  11.076  20.845  0.00  0.00    +0.000 A 
ATOM     12  C   UNL     1      -0.659  10.794  22.214  0.00  0.00    +0.000 A 
ATOM     13  C   UNL     1      -1.574  11.434  23.055  0.00  0.00    +0.000 A 
ATOM     14  C   UNL     1      -2.470  12.363  22.531  0.00  0.00    +0.000 A 
ATOM     15  C   UNL     1      -2.451  12.655  21.170  0.00  0.00    +0.000 A 
ATOM     16  C   UNL     1      -1.536  12.012  20.327  0.00  0.00    +0.000 A 
ENDBRANCH   7  11
ENDBRANCH   1   2
BRANCH   1  19
ATOM     17  C   UNL     1       2.309   3.331  21.020  0.00  0.00    +0.000 C 
ATOM     18  O   UNL     1       2.661   3.591  22.158  0.00  0.00    +0.000 OA
ATOM     19  N   UNL     1       2.460   4.143  19.940  0.00  0.00    +0.000 N 
ATOM     20  H   UNL     1       2.240   3.729  19.043  0.00  0.00    +0.000 HD
BRANCH  17  21
ATOM     21  O   UNL     1       1.765   2.166  20.602  0.00  0.00    +0.000 OA
BRANCH  21  23
ATOM     22  C   UNL     1       0.528   2.141  18.571  0.00  0.00    +0.000 C 
ATOM     23  C   UNL     1       1.893   1.913  19.195  0.00  0.00    +0.000 C 
ENDBRANCH  21  23
ENDBRANCH  17  21
ENDBRANCH   1  19
BRANCH   1  24
ATOM     24  C   UNL     1       4.111   5.576  18.799  0.00  0.00    +0.000 C 
BRANCH  24  25
ATOM     25  C   UNL     1       5.575   5.380  19.191  0.00  0.00    +0.000 C 
BRANCH  25  26
ATOM     26  C   UNL     1       6.604   5.843  18.162  0.00  0.00    +0.000 C 
BRANCH  26  27
ATOM     27  C   UNL     1       7.399   4.637  17.632  0.00  0.00    +0.000 C 
BRANCH  27  28
ATOM     28  N   UNL     1       6.654   4.009  16.523  0.00  0.00    +0.000 NA
ATOM     29  H   UNL     1       5.742   3.652  16.814  0.00  0.00    +0.000 HD
BRANCH  28  30
ATOM     30  S   UNL     1       6.444   4.873  15.114  0.00  0.00    +0.000 S 
ATOM     31  O   UNL     1       5.186   5.556  15.226  0.00  0.00    +0.000 OA
ATOM     32  O   UNL     1       7.681   5.535  14.801  0.00  0.00    +0.000 OA
BRANCH  30  33
ATOM     33  N   UNL     1       6.257   3.611  14.065  0.00  0.00    +0.000 NA
ATOM     34  H   UNL     1       7.138   3.153  13.843  0.00  0.00    +0.000 HD
ATOM     35  H   UNL     1       5.639   3.810  13.287  0.00  0.00    +0.000 HD
ENDBRANCH  30  33
ENDBRANCH  28  30
ENDBRANCH  27  28
ENDBRANCH  26  27
ENDBRANCH  25  26
ENDBRANCH  24  25
ENDBRANCH   1  24
TORSDOF 12
ENDMDL
MODEL 7
REMARK VINA RESULT:      -7.2      1.438      1.908
REMARK  Name = 
REMARK  13 active torsions:
REMARK  status: ('A' for Active; 'I' for Inactive)
REMARK    1  A    between atoms: C_1  and  C_2
REMARK    2  A    between atoms: C_2  and  O_3
REMARK    3  A    between atoms: O_3  and  C_4
REMARK    4  A    between atoms: N_6  and  C_7
REMARK    5  A    between atoms: C_7  and  C_8
REMARK    6  A    between atoms: C_7  and  C_17
REMARK    7  A    between atoms: C_8  and  C_9
REMARK    8  A    between atoms: C_9  and  C_10
REMARK    9  A    between atoms: C_10  and  C_11
REMARK   10  A    between atoms: C_11  and  N_12
REMARK   11  A    between atoms: N_12  and  S_13
REMARK   12  A    between atoms: S_13  and  N_14
REMARK   13  A    between atoms: C_22  and  C_23
REMARK                            x       y       z     vdW  Elec       q    Type
REMARK                         _______ _______ _______ _____ _____    ______ ____
ROOT
ATOM      1  C   UNL     1       2.806   5.531  20.184  0.00  0.00    +0.000 C 
ENDROOT
BRANCH   1   2
ATOM      2  C   UNL     1       1.842   6.737  20.303  0.00  0.00    +0.000 C 
ATOM      3  O   UNL     1       0.881   6.714  21.068  0.00  0.00    +0.000 OA
ATOM      4  N   UNL     1       2.132   7.766  19.438  0.00  0.00    +0.000 N 
ATOM      5  C   UNL     1       1.424   8.930  19.473  0.00  0.00    +0.000 A 
ATOM      6  N   UNL     1       0.644   9.377  20.421  0.00  0.00    +0.000 NA
ATOM      7  C   UNL     1       0.095  10.588  20.042  0.00  0.00    +0.000 A 
ATOM      8  C   UNL     1       0.464  11.011  18.778  0.00  0.00    +0.000 A 
ATOM      9  S   UNL     1       1.606   9.918  18.101  0.00  0.00    +0.000 S 
ATOM     10  H   UNL     1       2.747   7.597  18.657  0.00  0.00    +0.000 HD
BRANCH   7  11
ATOM     11  C   UNL     1      -0.799  11.318  20.936  0.00  0.00    +0.000 A 
ATOM     12  C   UNL     1      -0.823  11.070  22.312  0.00  0.00    +0.000 A 
ATOM     13  C   UNL     1      -1.714  11.752  23.146  0.00  0.00    +0.000 A 
ATOM     14  C   UNL     1      -2.592  12.690  22.608  0.00  0.00    +0.000 A 
ATOM     15  C   UNL     1      -2.580  12.948  21.239  0.00  0.00    +0.000 A 
ATOM     16  C   UNL     1      -1.690  12.263  20.404  0.00  0.00    +0.000 A 
ENDBRANCH   7  11
ENDBRANCH   1   2
BRANCH   1  19
ATOM     17  C   UNL     1       1.951   3.302  20.828  0.00  0.00    +0.000 C 
ATOM     18  O   UNL     1       2.370   3.336  21.972  0.00  0.00    +0.000 OA
ATOM     19  N   UNL     1       2.066   4.301  19.913  0.00  0.00    +0.000 N 
ATOM     20  H   UNL     1       1.788   4.068  18.968  0.00  0.00    +0.000 HD
BRANCH  17  21
ATOM     21  O   UNL     1       1.355   2.246  20.230  0.00  0.00    +0.000 OA
BRANCH  21  23
ATOM     22  C   UNL     1       2.964   1.849  18.524  0.00  0.00    +0.000 C 
ATOM     23  C   UNL     1       1.512   2.195  18.804  0.00  0.00    +0.000 C 
ENDBRANCH  21  23
ENDBRANCH  17  21
ENDBRANCH   1  19
BRANCH   1  24
ATOM     24  C   UNL     1       3.901   5.740  19.113  0.00  0.00    +0.000 C 
BRANCH  24  25
ATOM     25  C   UNL     1       5.210   5.046  19.493  0.00  0.00    +0.000 C 
BRANCH  25  26
ATOM     26  C   UNL     1       5.991   4.427  18.336  0.00  0.00    +0.000 C 
BRANCH  26  27
ATOM     27  C   UNL     1       6.759   5.519  17.572  0.00  0.00    +0.000 C 
BRANCH  27  28
ATOM     28  N   UNL     1       7.512   4.902  16.463  0.00  0.00    +0.000 NA
ATOM     29  H   UNL     1       7.821   3.952  16.677  0.00  0.00    +0.000 HD
BRANCH  28  30
ATOM     30  S   UNL     1       6.829   4.893  14.943  0.00  0.00    +0.000 S 
ATOM     31  O   UNL     1       7.806   5.438  14.043  0.00  0.00    +0.000 OA
ATOM     32  O   UNL     1       6.186   3.623  14.743  0.00  0.00    +0.000 OA
BRANCH  30  33
ATOM     33  N   UNL     1       5.655   6.031  15.183  0.00  0.00    +0.000 NA
ATOM     34  H   UNL     1       5.172   5.912  16.070  0.00  0.00    +0.000 HD
ATOM     35  H   UNL     1       5.077   6.203  14.370  0.00  0.00    +0.000 HD
ENDBRANCH  30  33
ENDBRANCH  28  30
ENDBRANCH  27  28
ENDBRANCH  26  27
ENDBRANCH  25  26
ENDBRANCH  24  25
ENDBRANCH   1  24
TORSDOF 12
ENDMDL
MODEL 8
REMARK VINA RESULT:      -7.1      2.905      8.247
REMARK  Name = 
REMARK  13 active torsions:
REMARK  status: ('A' for Active; 'I' for Inactive)
REMARK    1  A    between atoms: C_1  and  C_2
REMARK    2  A    between atoms: C_2  and  O_3
REMARK    3  A    between atoms: O_3  and  C_4
REMARK    4  A    between atoms: N_6  and  C_7
REMARK    5  A    between atoms: C_7  and  C_8
REMARK    6  A    between atoms: C_7  and  C_17
REMARK    7  A    between atoms: C_8  and  C_9
REMARK    8  A    between atoms: C_9  and  C_10
REMARK    9  A    between atoms: C_10  and  C_11
REMARK   10  A    between atoms: C_11  and  N_12
REMARK   11  A    between atoms: N_12  and  S_13
REMARK   12  A    between atoms: S_13  and  N_14
REMARK   13  A    between atoms: C_22  and  C_23
REMARK                            x       y       z     vdW  Elec       q    Type
REMARK                         _______ _______ _______ _____ _____    ______ ____
ROOT
ATOM      1  C   UNL     1       2.380   7.107  19.696  0.00  0.00    +0.000 C 
ENDROOT
BRANCH   1   2
ATOM      2  C   UNL     1       3.241   6.396  18.623  0.00  0.00    +0.000 C 
ATOM      3  O   UNL     1       2.744   5.963  17.587  0.00  0.00    +0.000 OA
ATOM      4  N   UNL     1       4.561   6.247  18.981  0.00  0.00    +0.000 N 
ATOM      5  C   UNL     1       5.465   5.711  18.114  0.00  0.00    +0.000 A 
ATOM      6  N   UNL     1       5.354   5.549  16.823  0.00  0.00    +0.000 NA
ATOM      7  C   UNL     1       6.491   4.939  16.329  0.00  0.00    +0.000 A 
ATOM      8  C   UNL     1       7.435   4.625  17.291  0.00  0.00    +0.000 A 
ATOM      9  S   UNL     1       6.925   5.207  18.826  0.00  0.00    +0.000 S 
ATOM     10  H   UNL     1       4.828   6.366  19.947  0.00  0.00    +0.000 HD
BRANCH   7  11
ATOM     11  C   UNL     1       6.635   4.663  14.903  0.00  0.00    +0.000 A 
ATOM     12  C   UNL     1       7.597   5.313  14.124  0.00  0.00    +0.000 A 
ATOM     13  C   UNL     1       7.693   5.064  12.751  0.00  0.00    +0.000 A 
ATOM     14  C   UNL     1       6.823   4.161  12.144  0.00  0.00    +0.000 A 
ATOM     15  C   UNL     1       5.859   3.507  12.907  0.00  0.00    +0.000 A 
ATOM     16  C   UNL     1       5.761   3.758  14.281  0.00  0.00    +0.000 A 
ENDBRANCH   7  11
ENDBRANCH   1   2
BRANCH   1  19
ATOM     17  C   UNL     1       1.136   9.230  19.942  0.00  0.00    +0.000 C 
ATOM     18  O   UNL     1       1.018   9.162  21.154  0.00  0.00    +0.000 OA
ATOM     19  N   UNL     1       1.796   8.335  19.161  0.00  0.00    +0.000 N 
ATOM     20  H   UNL     1       1.690   8.457  18.162  0.00  0.00    +0.000 HD
BRANCH  17  21
ATOM     21  O   UNL     1       0.581  10.165  19.140  0.00  0.00    +0.000 OA
BRANCH  21  23
ATOM     22  C   UNL     1      -1.700  10.188  18.466  0.00  0.00    +0.000 C 
ATOM     23  C   UNL     1      -0.721  10.611  19.548  0.00  0.00    +0.000 C 
ENDBRANCH  21  23
ENDBRANCH  17  21
ENDBRANCH   1  19
BRANCH   1  24
ATOM     24  C   UNL     1       1.271   6.200  20.277  0.00  0.00    +0.000 C 
BRANCH  24  25
ATOM     25  C   UNL     1       1.642   4.719  20.191  0.00  0.00    +0.000 C 
BRANCH  25  26
ATOM     26  C   UNL     1       2.394   4.154  21.394  0.00  0.00    +0.000 C 
BRANCH  26  27
ATOM     27  C   UNL     1       2.467   2.620  21.298  0.00  0.00    +0.000 C 
BRANCH  27  28
ATOM     28  N   UNL     1       2.449   2.219  19.877  0.00  0.00    +0.000 NA
ATOM     29  H   UNL     1       1.762   2.740  19.330  0.00  0.00    +0.000 HD
BRANCH  28  30
ATOM     30  S   UNL     1       3.885   2.211  19.032  0.00  0.00    +0.000 S 
ATOM     31  O   UNL     1       3.652   2.924  17.807  0.00  0.00    +0.000 OA
ATOM     32  O   UNL     1       4.948   2.528  19.945  0.00  0.00    +0.000 OA
BRANCH  30  33
ATOM     33  N   UNL     1       3.969   0.599  18.684  0.00  0.00    +0.000 NA
ATOM     34  H   UNL     1       4.746   0.138  19.152  0.00  0.00    +0.000 HD
ATOM     35  H   UNL     1       3.835   0.381  17.704  0.00  0.00    +0.000 HD
ENDBRANCH  30  33
ENDBRANCH  28  30
ENDBRANCH  27  28
ENDBRANCH  26  27
ENDBRANCH  25  26
ENDBRANCH  24  25
ENDBRANCH   1  24
TORSDOF 12
ENDMDL
MODEL 9
REMARK VINA RESULT:      -7.1      2.524      4.772
REMARK  Name = 
REMARK  13 active torsions:
REMARK  status: ('A' for Active; 'I' for Inactive)
REMARK    1  A    between atoms: C_1  and  C_2
REMARK    2  A    between atoms: C_2  and  O_3
REMARK    3  A    between atoms: O_3  and  C_4
REMARK    4  A    between atoms: N_6  and  C_7
REMARK    5  A    between atoms: C_7  and  C_8
REMARK    6  A    between atoms: C_7  and  C_17
REMARK    7  A    between atoms: C_8  and  C_9
REMARK    8  A    between atoms: C_9  and  C_10
REMARK    9  A    between atoms: C_10  and  C_11
REMARK   10  A    between atoms: C_11  and  N_12
REMARK   11  A    between atoms: N_12  and  S_13
REMARK   12  A    between atoms: S_13  and  N_14
REMARK   13  A    between atoms: C_22  and  C_23
REMARK                            x       y       z     vdW  Elec       q    Type
REMARK                         _______ _______ _______ _____ _____    ______ ____
ROOT
ATOM      1  C   UNL     1       3.157   6.589  17.652  0.00  0.00    +0.000 C 
ENDROOT
BRANCH   1   2
ATOM      2  C   UNL     1       2.623   7.926  18.220  0.00  0.00    +0.000 C 
ATOM      3  O   UNL     1       2.809   8.990  17.635  0.00  0.00    +0.000 OA
ATOM      4  N   UNL     1       2.002   7.801  19.442  0.00  0.00    +0.000 N 
ATOM      5  C   UNL     1       1.410   8.873  20.039  0.00  0.00    +0.000 A 
ATOM      6  N   UNL     1       1.068  10.014  19.503  0.00  0.00    +0.000 NA
ATOM      7  C   UNL     1       0.521  10.838  20.468  0.00  0.00    +0.000 A 
ATOM      8  C   UNL     1       0.494  10.290  21.738  0.00  0.00    +0.000 A 
ATOM      9  S   UNL     1       1.068   8.670  21.692  0.00  0.00    +0.000 S 
ATOM     10  H   UNL     1       2.140   6.960  19.982  0.00  0.00    +0.000 HD
BRANCH   7  11
ATOM     11  C   UNL     1       0.032  12.170  20.127  0.00  0.00    +0.000 A 
ATOM     12  C   UNL     1      -0.878  12.849  20.943  0.00  0.00    +0.000 A 
ATOM     13  C   UNL     1      -1.365  14.108  20.579  0.00  0.00    +0.000 A 
ATOM     14  C   UNL     1      -0.944  14.700  19.390  0.00  0.00    +0.000 A 
ATOM     15  C   UNL     1      -0.038  14.036  18.566  0.00  0.00    +0.000 A 
ATOM     16  C   UNL     1       0.446  12.774  18.929  0.00  0.00    +0.000 A 
ENDBRANCH   7  11
ENDBRANCH   1   2
BRANCH   1  19
ATOM     17  C   UNL     1       5.288   6.770  16.409  0.00  0.00    +0.000 C 
ATOM     18  O   UNL     1       4.778   6.996  15.325  0.00  0.00    +0.000 OA
ATOM     19  N   UNL     1       4.616   6.603  17.579  0.00  0.00    +0.000 N 
ATOM     20  H   UNL     1       5.171   6.288  18.366  0.00  0.00    +0.000 HD
BRANCH  17  21
ATOM     21  O   UNL     1       6.605   6.576  16.644  0.00  0.00    +0.000 OA
BRANCH  21  23
ATOM     22  C   UNL     1       7.757   4.963  17.959  0.00  0.00    +0.000 C 
ATOM     23  C   UNL     1       6.930   6.236  18.000  0.00  0.00    +0.000 C 
ENDBRANCH  21  23
ENDBRANCH  17  21
ENDBRANCH   1  19
BRANCH   1  24
ATOM     24  C   UNL     1       2.677   5.358  18.455  0.00  0.00    +0.000 C 
BRANCH  24  25
ATOM     25  C   UNL     1       1.969   4.337  17.564  0.00  0.00    +0.000 C 
BRANCH  25  26
ATOM     26  C   UNL     1       2.819   3.155  17.105  0.00  0.00    +0.000 C 
BRANCH  26  27
ATOM     27  C   UNL     1       2.605   1.955  18.043  0.00  0.00    +0.000 C 
BRANCH  27  28
ATOM     28  N   UNL     1       3.907   1.523  18.590  0.00  0.00    +0.000 NA
ATOM     29  H   UNL     1       4.670   1.631  17.920  0.00  0.00    +0.000 HD
BRANCH  28  30
ATOM     30  S   UNL     1       4.407   2.153  20.049  0.00  0.00    +0.000 S 
ATOM     31  O   UNL     1       3.241   2.693  20.691  0.00  0.00    +0.000 OA
ATOM     32  O   UNL     1       5.289   1.206  20.673  0.00  0.00    +0.000 OA
BRANCH  30  33
ATOM     33  N   UNL     1       5.317   3.412  19.487  0.00  0.00    +0.000 NA
ATOM     34  H   UNL     1       6.316   3.226  19.540  0.00  0.00    +0.000 HD
ATOM     35  H   UNL     1       5.006   4.321  19.808  0.00  0.00    +0.000 HD
ENDBRANCH  30  33
ENDBRANCH  28  30
ENDBRANCH  27  28
ENDBRANCH  26  27
ENDBRANCH  25  26
ENDBRANCH  24  25
ENDBRANCH   1  24
TORSDOF 12
ENDMDL
