MODEL 1
REMARK VINA RESULT:      -7.9      0.000      0.000
REMARK  Name = 
REMARK  5 active torsions:
REMARK  status: ('A' for Active; 'I' for Inactive)
REMARK    1  A    between atoms: C_1  and  C_2
REMARK    2  A    between atoms: C_5  and  C_6
REMARK    3  A    between atoms: C_6  and  C_8
REMARK    4  A    between atoms: C_9  and  C_10
REMARK    5  A    between atoms: C_15  and  O_16
REMARK                            x       y       z     vdW  Elec       q    Type
REMARK                         _______ _______ _______ _____ _____    ______ ____
ROOT
ATOM      1  C   UNL     1       4.200   5.378  18.265  0.00  0.00    +0.000 A 
ATOM      2  C   UNL     1       5.459   5.028  18.734  0.00  0.00    +0.000 A 
ATOM      3  C   UNL     1       6.748   5.756  18.797  0.00  0.00    +0.000 C 
ATOM      4  O   UNL     1       5.442   3.767  19.258  0.00  0.00    +0.000 OA
ATOM      5  C   UNL     1       4.179   3.279  19.108  0.00  0.00    +0.000 A 
ATOM      6  C   UNL     1       3.724   2.022  19.510  0.00  0.00    +0.000 A 
ATOM      7  C   UNL     1       2.374   1.724  19.264  0.00  0.00    +0.000 A 
ATOM      8  C   UNL     1       1.556   2.651  18.626  0.00  0.00    +0.000 A 
ATOM      9  C   UNL     1       2.036   3.885  18.207  0.00  0.00    +0.000 A 
ATOM     10  C   UNL     1       3.379   4.222  18.479  0.00  0.00    +0.000 A 
ENDROOT
BRANCH   1  11
ATOM     11  C   UNL     1       3.850   6.654  17.670  0.00  0.00    +0.000 C 
ATOM     12  O   UNL     1       4.348   7.046  16.620  0.00  0.00    +0.000 OA
BRANCH  11  17
ATOM     13  C   UNL     1       0.085  10.086  20.431  0.00  0.00    +0.000 C 
ATOM     14  C   UNL     1       1.036   9.178  19.711  0.00  0.00    +0.000 A 
ATOM     15  C   UNL     1       1.578   8.051  20.339  0.00  0.00    +0.000 A 
ATOM     16  C   UNL     1       2.476   7.226  19.660  0.00  0.00    +0.000 A 
ATOM     17  C   UNL     1       2.837   7.519  18.340  0.00  0.00    +0.000 A 
ATOM     18  C   UNL     1       2.252   8.617  17.694  0.00  0.00    +0.000 A 
ATOM     19  C   UNL     1       1.386   9.459  18.387  0.00  0.00    +0.000 A 
ENDBRANCH  11  17
ENDBRANCH   1  11
BRANCH   8  20
ATOM     20  O   UNL     1       0.235   2.412  18.373  0.00  0.00    +0.000 OA
ATOM     21  H   UNL     1      -0.014   2.873  17.554  0.00  0.00    +0.000 HD
ENDBRANCH   8  20
TORSDOF 3
ENDMDL
MODEL 2
REMARK VINA RESULT:      -7.8      1.917      3.899
REMARK  Name = 
REMARK  5 active torsions:
REMARK  status: ('A' for Active; 'I' for Inactive)
REMARK    1  A    between atoms: C_1  and  C_2
REMARK    2  A    between atoms: C_5  and  C_6
REMARK    3  A    between atoms: C_6  and  C_8
REMARK    4  A    between atoms: C_9  and  C_10
REMARK    5  A    between atoms: C_15  and  O_16
REMARK                            x       y       z     vdW  Elec       q    Type
REMARK                         _______ _______ _______ _____ _____    ______ ____
ROOT
ATOM      1  C   UNL     1       3.361   5.027  18.368  0.00  0.00    +0.000 A 
ATOM      2  C   UNL     1       2.724   3.931  17.802  0.00  0.00    +0.000 A 
ATOM      3  C   UNL     1       1.457   3.231  18.116  0.00  0.00    +0.000 C 
ATOM      4  O   UNL     1       3.433   3.466  16.731  0.00  0.00    +0.000 OA
ATOM      5  C   UNL     1       4.548   4.239  16.611  0.00  0.00    +0.000 A 
ATOM      6  C   UNL     1       5.546   4.108  15.644  0.00  0.00    +0.000 A 
ATOM      7  C   UNL     1       6.611   5.021  15.699  0.00  0.00    +0.000 A 
ATOM      8  C   UNL     1       6.655   5.989  16.698  0.00  0.00    +0.000 A 
ATOM      9  C   UNL     1       5.667   6.082  17.669  0.00  0.00    +0.000 A 
ATOM     10  C   UNL     1       4.566   5.201  17.611  0.00  0.00    +0.000 A 
ENDROOT
BRANCH   1  11
ATOM     11  C   UNL     1       2.875   5.787  19.505  0.00  0.00    +0.000 C 
ATOM     12  O   UNL     1       2.948   5.366  20.654  0.00  0.00    +0.000 OA
BRANCH  11  17
ATOM     13  C   UNL     1       0.732  11.122  18.787  0.00  0.00    +0.000 C 
ATOM     14  C   UNL     1       1.257   9.731  18.969  0.00  0.00    +0.000 A 
ATOM     15  C   UNL     1       1.150   9.070  20.198  0.00  0.00    +0.000 A 
ATOM     16  C   UNL     1       1.662   7.781  20.356  0.00  0.00    +0.000 A 
ATOM     17  C   UNL     1       2.281   7.136  19.280  0.00  0.00    +0.000 A 
ATOM     18  C   UNL     1       2.340   7.776  18.034  0.00  0.00    +0.000 A 
ATOM     19  C   UNL     1       1.863   9.077  17.891  0.00  0.00    +0.000 A 
ENDBRANCH  11  17
ENDBRANCH   1  11
BRANCH   8  20
ATOM     20  O   UNL     1       7.663   6.905  16.788  0.00  0.00    +0.000 OA
ATOM     21  H   UNL     1       7.366   7.737  16.383  0.00  0.00    +0.000 HD
ENDBRANCH   8  20
TORSDOF 3
ENDMDL
MODEL 3
REMARK VINA RESULT:      -7.8      1.924      4.029
REMARK  Name = 
REMARK  5 active torsions:
REMARK  status: ('A' for Active; 'I' for Inactive)
REMARK    1  A    between atoms: C_1  and  C_2
REMARK    2  A    between atoms: C_5  and  C_6
REMARK    3  A    between atoms: C_6  and  C_8
REMARK    4  A    between atoms: C_9  and  C_10
REMARK    5  A    between atoms: C_15  and  O_16
REMARK                            x       y       z     vdW  Elec       q    Type
REMARK                         _______ _______ _______ _____ _____    ______ ____
ROOT
ATOM      1  C   UNL     1       3.395   5.001  18.343  0.00  0.00    +0.000 A 
ATOM      2  C   UNL     1       2.748   3.927  17.748  0.00  0.00    +0.000 A 
ATOM      3  C   UNL     1       1.482   3.220  18.051  0.00  0.00    +0.000 C 
ATOM      4  O   UNL     1       3.444   3.495  16.654  0.00  0.00    +0.000 OA
ATOM      5  C   UNL     1       4.561   4.269  16.548  0.00  0.00    +0.000 A 
ATOM      6  C   UNL     1       5.548   4.167  15.567  0.00  0.00    +0.000 A 
ATOM      7  C   UNL     1       6.616   5.075  15.641  0.00  0.00    +0.000 A 
ATOM      8  C   UNL     1       6.674   6.009  16.671  0.00  0.00    +0.000 A 
ATOM      9  C   UNL     1       5.696   6.073  17.655  0.00  0.00    +0.000 A 
ATOM     10  C   UNL     1       4.592   5.197  17.579  0.00  0.00    +0.000 A 
ENDROOT
BRANCH   1  11
ATOM     11  C   UNL     1       2.922   5.724  19.509  0.00  0.00    +0.000 C 
ATOM     12  O   UNL     1       2.997   5.260  20.642  0.00  0.00    +0.000 OA
BRANCH  11  17
ATOM     13  C   UNL     1       0.500  10.925  18.697  0.00  0.00    +0.000 C 
ATOM     14  C   UNL     1       1.155   9.594  18.909  0.00  0.00    +0.000 A 
ATOM     15  C   UNL     1       1.793   8.924  17.859  0.00  0.00    +0.000 A 
ATOM     16  C   UNL     1       2.381   7.675  18.069  0.00  0.00    +0.000 A 
ATOM     17  C   UNL     1       2.343   7.087  19.338  0.00  0.00    +0.000 A 
ATOM     18  C   UNL     1       1.752   7.782  20.402  0.00  0.00    +0.000 A 
ATOM     19  C   UNL     1       1.132   9.010  20.180  0.00  0.00    +0.000 A 
ENDBRANCH  11  17
ENDBRANCH   1  11
BRANCH   8  20
ATOM     20  O   UNL     1       7.686   6.918  16.781  0.00  0.00    +0.000 OA
ATOM     21  H   UNL     1       8.026   6.898  17.692  0.00  0.00    +0.000 HD
ENDBRANCH   8  20
TORSDOF 3
ENDMDL
MODEL 4
REMARK VINA RESULT:      -7.8      0.106      1.085
REMARK  Name = 
REMARK  5 active torsions:
REMARK  status: ('A' for Active; 'I' for Inactive)
REMARK    1  A    between atoms: C_1  and  C_2
REMARK    2  A    between atoms: C_5  and  C_6
REMARK    3  A    between atoms: C_6  and  C_8
REMARK    4  A    between atoms: C_9  and  C_10
REMARK    5  A    between atoms: C_15  and  O_16
REMARK                            x       y       z     vdW  Elec       q    Type
REMARK                         _______ _______ _______ _____ _____    ______ ____
ROOT
ATOM      1  C   UNL     1       4.151   5.369  18.324  0.00  0.00    +0.000 A 
ATOM      2  C   UNL     1       5.404   5.023  18.810  0.00  0.00    +0.000 A 
ATOM      3  C   UNL     1       6.691   5.753  18.888  0.00  0.00    +0.000 C 
ATOM      4  O   UNL     1       5.383   3.762  19.335  0.00  0.00    +0.000 OA
ATOM      5  C   UNL     1       4.123   3.271  19.169  0.00  0.00    +0.000 A 
ATOM      6  C   UNL     1       3.665   2.014  19.566  0.00  0.00    +0.000 A 
ATOM      7  C   UNL     1       2.319   1.713  19.303  0.00  0.00    +0.000 A 
ATOM      8  C   UNL     1       1.507   2.638  18.653  0.00  0.00    +0.000 A 
ATOM      9  C   UNL     1       1.991   3.872  18.239  0.00  0.00    +0.000 A 
ATOM     10  C   UNL     1       3.330   4.212  18.528  0.00  0.00    +0.000 A 
ENDROOT
BRANCH   1  11
ATOM     11  C   UNL     1       3.806   6.644  17.723  0.00  0.00    +0.000 C 
ATOM     12  O   UNL     1       4.270   7.008  16.648  0.00  0.00    +0.000 OA
BRANCH  11  17
ATOM     13  C   UNL     1      -0.121  10.061  20.269  0.00  0.00    +0.000 C 
ATOM     14  C   UNL     1       0.917   9.199  19.617  0.00  0.00    +0.000 A 
ATOM     15  C   UNL     1       1.362   9.458  18.316  0.00  0.00    +0.000 A 
ATOM     16  C   UNL     1       2.316   8.633  17.717  0.00  0.00    +0.000 A 
ATOM     17  C   UNL     1       2.840   7.542  18.418  0.00  0.00    +0.000 A 
ATOM     18  C   UNL     1       2.434   7.314  19.741  0.00  0.00    +0.000 A 
ATOM     19  C   UNL     1       1.454   8.116  20.322  0.00  0.00    +0.000 A 
ENDBRANCH  11  17
ENDBRANCH   1  11
BRANCH   8  20
ATOM     20  O   UNL     1       0.191   2.396  18.384  0.00  0.00    +0.000 OA
ATOM     21  H   UNL     1      -0.351   3.039  18.873  0.00  0.00    +0.000 HD
ENDBRANCH   8  20
TORSDOF 3
ENDMDL
MODEL 5
REMARK VINA RESULT:      -7.8      1.873      3.972
REMARK  Name = 
REMARK  5 active torsions:
REMARK  status: ('A' for Active; 'I' for Inactive)
REMARK    1  A    between atoms: C_1  and  C_2
REMARK    2  A    between atoms: C_5  and  C_6
REMARK    3  A    between atoms: C_6  and  C_8
REMARK    4  A    between atoms: C_9  and  C_10
REMARK    5  A    between atoms: C_15  and  O_16
REMARK                            x       y       z     vdW  Elec       q    Type
REMARK                         _______ _______ _______ _____ _____    ______ ____
ROOT
ATOM      1  C   UNL     1       3.532   5.058  18.788  0.00  0.00    +0.000 A 
ATOM      2  C   UNL     1       3.023   4.266  17.769  0.00  0.00    +0.000 A 
ATOM      3  C   UNL     1       1.649   3.841  17.414  0.00  0.00    +0.000 C 
ATOM      4  O   UNL     1       4.026   3.848  16.941  0.00  0.00    +0.000 OA
ATOM      5  C   UNL     1       5.196   4.343  17.434  0.00  0.00    +0.000 A 
ATOM      6  C   UNL     1       6.468   4.157  16.890  0.00  0.00    +0.000 A 
ATOM      7  C   UNL     1       7.542   4.766  17.557  0.00  0.00    +0.000 A 
ATOM      8  C   UNL     1       7.322   5.498  18.720  0.00  0.00    +0.000 A 
ATOM      9  C   UNL     1       6.051   5.646  19.261  0.00  0.00    +0.000 A 
ATOM     10  C   UNL     1       4.951   5.076  18.586  0.00  0.00    +0.000 A 
ENDROOT
BRANCH   1  11
ATOM     11  C   UNL     1       2.746   5.693  19.830  0.00  0.00    +0.000 C 
ATOM     12  O   UNL     1       2.502   5.139  20.896  0.00  0.00    +0.000 OA
BRANCH  11  17
ATOM     13  C   UNL     1       0.580  10.975  18.836  0.00  0.00    +0.000 C 
ATOM     14  C   UNL     1       1.169   9.622  19.097  0.00  0.00    +0.000 A 
ATOM     15  C   UNL     1       1.865   8.929  18.100  0.00  0.00    +0.000 A 
ATOM     16  C   UNL     1       2.390   7.661  18.355  0.00  0.00    +0.000 A 
ATOM     17  C   UNL     1       2.230   7.075  19.615  0.00  0.00    +0.000 A 
ATOM     18  C   UNL     1       1.581   7.792  20.630  0.00  0.00    +0.000 A 
ATOM     19  C   UNL     1       1.024   9.041  20.361  0.00  0.00    +0.000 A 
ENDBRANCH  11  17
ENDBRANCH   1  11
BRANCH   8  20
ATOM     20  O   UNL     1       8.331   6.117  19.399  0.00  0.00    +0.000 OA
ATOM     21  H   UNL     1       8.067   7.035  19.583  0.00  0.00    +0.000 HD
ENDBRANCH   8  20
TORSDOF 3
ENDMDL
MODEL 6
REMARK VINA RESULT:      -7.7      3.594      4.795
REMARK  Name = 
REMARK  5 active torsions:
REMARK  status: ('A' for Active; 'I' for Inactive)
REMARK    1  A    between atoms: C_1  and  C_2
REMARK    2  A    between atoms: C_5  and  C_6
REMARK    3  A    between atoms: C_6  and  C_8
REMARK    4  A    between atoms: C_9  and  C_10
REMARK    5  A    between atoms: C_15  and  O_16
REMARK                            x       y       z     vdW  Elec       q    Type
REMARK                         _______ _______ _______ _____ _____    ______ ____
ROOT
ATOM      1  C   UNL     1       5.774   4.628  16.218  0.00  0.00    +0.000 A 
ATOM      2  C   UNL     1       6.825   5.454  16.593  0.00  0.00    +0.000 A 
ATOM      3  C   UNL     1       7.205   6.078  17.882  0.00  0.00    +0.000 C 
ATOM      4  O   UNL     1       7.658   5.679  15.534  0.00  0.00    +0.000 OA
ATOM      5  C   UNL     1       7.140   5.023  14.459  0.00  0.00    +0.000 A 
ATOM      6  C   UNL     1       7.679   4.986  13.172  0.00  0.00    +0.000 A 
ATOM      7  C   UNL     1       6.983   4.238  12.209  0.00  0.00    +0.000 A 
ATOM      8  C   UNL     1       5.797   3.592  12.546  0.00  0.00    +0.000 A 
ATOM      9  C   UNL     1       5.261   3.666  13.825  0.00  0.00    +0.000 A 
ATOM     10  C   UNL     1       5.965   4.379  14.820  0.00  0.00    +0.000 A 
ENDROOT
BRANCH   1  11
ATOM     11  C   UNL     1       4.717   4.163  17.097  0.00  0.00    +0.000 C 
ATOM     12  O   UNL     1       4.476   2.972  17.259  0.00  0.00    +0.000 OA
BRANCH  11  17
ATOM     13  C   UNL     1       1.727   8.044  20.191  0.00  0.00    +0.000 C 
ATOM     14  C   UNL     1       2.474   7.027  19.382  0.00  0.00    +0.000 A 
ATOM     15  C   UNL     1       2.696   5.734  19.869  0.00  0.00    +0.000 A 
ATOM     16  C   UNL     1       3.409   4.805  19.110  0.00  0.00    +0.000 A 
ATOM     17  C   UNL     1       3.903   5.159  17.850  0.00  0.00    +0.000 A 
ATOM     18  C   UNL     1       3.634   6.437  17.339  0.00  0.00    +0.000 A 
ATOM     19  C   UNL     1       2.955   7.374  18.115  0.00  0.00    +0.000 A 
ENDBRANCH  11  17
ENDBRANCH   1  11
BRANCH   8  20
ATOM     20  O   UNL     1       5.088   2.846  11.649  0.00  0.00    +0.000 OA
ATOM     21  H   UNL     1       4.248   3.299  11.460  0.00  0.00    +0.000 HD
ENDBRANCH   8  20
TORSDOF 3
ENDMDL
MODEL 7
REMARK VINA RESULT:      -7.7      1.880      3.873
REMARK  Name = 
REMARK  5 active torsions:
REMARK  status: ('A' for Active; 'I' for Inactive)
REMARK    1  A    between atoms: C_1  and  C_2
REMARK    2  A    between atoms: C_5  and  C_6
REMARK    3  A    between atoms: C_6  and  C_8
REMARK    4  A    between atoms: C_9  and  C_10
REMARK    5  A    between atoms: C_15  and  O_16
REMARK                            x       y       z     vdW  Elec       q    Type
REMARK                         _______ _______ _______ _____ _____    ______ ____
ROOT
ATOM      1  C   UNL     1       3.577   5.049  18.737  0.00  0.00    +0.000 A 
ATOM      2  C   UNL     1       3.092   4.229  17.727  0.00  0.00    +0.000 A 
ATOM      3  C   UNL     1       1.728   3.778  17.365  0.00  0.00    +0.000 C 
ATOM      4  O   UNL     1       4.110   3.808  16.920  0.00  0.00    +0.000 OA
ATOM      5  C   UNL     1       5.267   4.329  17.416  0.00  0.00    +0.000 A 
ATOM      6  C   UNL     1       6.548   4.150  16.891  0.00  0.00    +0.000 A 
ATOM      7  C   UNL     1       7.606   4.787  17.559  0.00  0.00    +0.000 A 
ATOM      8  C   UNL     1       7.361   5.539  18.704  0.00  0.00    +0.000 A 
ATOM      9  C   UNL     1       6.083   5.680  19.227  0.00  0.00    +0.000 A 
ATOM     10  C   UNL     1       4.998   5.082  18.550  0.00  0.00    +0.000 A 
ENDROOT
BRANCH   1  11
ATOM     11  C   UNL     1       2.771   5.693  19.756  0.00  0.00    +0.000 C 
ATOM     12  O   UNL     1       2.537   5.164  20.837  0.00  0.00    +0.000 OA
BRANCH  11  17
ATOM     13  C   UNL     1       0.786  11.071  18.912  0.00  0.00    +0.000 C 
ATOM     14  C   UNL     1       1.270   9.669  19.126  0.00  0.00    +0.000 A 
ATOM     15  C   UNL     1       1.103   9.024  20.357  0.00  0.00    +0.000 A 
ATOM     16  C   UNL     1       1.577   7.725  20.545  0.00  0.00    +0.000 A 
ATOM     17  C   UNL     1       2.218   7.053  19.498  0.00  0.00    +0.000 A 
ATOM     18  C   UNL     1       2.338   7.679  18.249  0.00  0.00    +0.000 A 
ATOM     19  C   UNL     1       1.898   8.990  18.077  0.00  0.00    +0.000 A 
ENDBRANCH  11  17
ENDBRANCH   1  11
BRANCH   8  20
ATOM     20  O   UNL     1       8.354   6.185  19.383  0.00  0.00    +0.000 OA
ATOM     21  H   UNL     1       8.466   7.073  19.001  0.00  0.00    +0.000 HD
ENDBRANCH   8  20
TORSDOF 3
ENDMDL
MODEL 8
REMARK VINA RESULT:      -7.7      2.977      5.389
REMARK  Name = 
REMARK  5 active torsions:
REMARK  status: ('A' for Active; 'I' for Inactive)
REMARK    1  A    between atoms: C_1  and  C_2
REMARK    2  A    between atoms: C_5  and  C_6
REMARK    3  A    between atoms: C_6  and  C_8
REMARK    4  A    between atoms: C_9  and  C_10
REMARK    5  A    between atoms: C_15  and  O_16
REMARK                            x       y       z     vdW  Elec       q    Type
REMARK                         _______ _______ _______ _____ _____    ______ ____
ROOT
ATOM      1  C   UNL     1       4.343   5.896  18.043  0.00  0.00    +0.000 A 
ATOM      2  C   UNL     1       3.204   6.665  18.245  0.00  0.00    +0.000 A 
ATOM      3  C   UNL     1       2.781   7.989  17.735  0.00  0.00    +0.000 C 
ATOM      4  O   UNL     1       2.321   6.009  19.055  0.00  0.00    +0.000 OA
ATOM      5  C   UNL     1       2.892   4.823  19.407  0.00  0.00    +0.000 A 
ATOM      6  C   UNL     1       2.329   3.844  20.227  0.00  0.00    +0.000 A 
ATOM      7  C   UNL     1       3.090   2.687  20.455  0.00  0.00    +0.000 A 
ATOM      8  C   UNL     1       4.358   2.560  19.895  0.00  0.00    +0.000 A 
ATOM      9  C   UNL     1       4.912   3.560  19.106  0.00  0.00    +0.000 A 
ATOM     10  C   UNL     1       4.149   4.714  18.830  0.00  0.00    +0.000 A 
ENDROOT
BRANCH   1  11
ATOM     11  C   UNL     1       5.473   6.271  17.214  0.00  0.00    +0.000 C 
ATOM     12  O   UNL     1       6.205   7.215  17.493  0.00  0.00    +0.000 OA
BRANCH  11  17
ATOM     13  C   UNL     1       6.503   3.333  12.327  0.00  0.00    +0.000 C 
ATOM     14  C   UNL     1       6.239   4.066  13.607  0.00  0.00    +0.000 A 
ATOM     15  C   UNL     1       4.971   4.059  14.199  0.00  0.00    +0.000 A 
ATOM     16  C   UNL     1       4.738   4.763  15.382  0.00  0.00    +0.000 A 
ATOM     17  C   UNL     1       5.776   5.477  15.989  0.00  0.00    +0.000 A 
ATOM     18  C   UNL     1       7.059   5.440  15.426  0.00  0.00    +0.000 A 
ATOM     19  C   UNL     1       7.279   4.768  14.225  0.00  0.00    +0.000 A 
ENDBRANCH  11  17
ENDBRANCH   1  11
BRANCH   8  20
ATOM     20  O   UNL     1       5.133   1.451  20.079  0.00  0.00    +0.000 OA
ATOM     21  H   UNL     1       5.045   1.159  21.002  0.00  0.00    +0.000 HD
ENDBRANCH   8  20
TORSDOF 3
ENDMDL
MODEL 9
REMARK VINA RESULT:      -7.7      3.617      4.938
REMARK  Name = 
REMARK  5 active torsions:
REMARK  status: ('A' for Active; 'I' for Inactive)
REMARK    1  A    between atoms: C_1  and  C_2
REMARK    2  A    between atoms: C_5  and  C_6
REMARK    3  A    between atoms: C_6  and  C_8
REMARK    4  A    between atoms: C_9  and  C_10
REMARK    5  A    between atoms: C_15  and  O_16
REMARK                            x       y       z     vdW  Elec       q    Type
REMARK                         _______ _______ _______ _____ _____    ______ ____
ROOT
ATOM      1  C   UNL     1       5.798   4.635  16.196  0.00  0.00    +0.000 A 
ATOM      2  C   UNL     1       6.848   5.464  16.567  0.00  0.00    +0.000 A 
ATOM      3  C   UNL     1       7.230   6.091  17.853  0.00  0.00    +0.000 C 
ATOM      4  O   UNL     1       7.680   5.687  15.506  0.00  0.00    +0.000 OA
ATOM      5  C   UNL     1       7.161   5.028  14.433  0.00  0.00    +0.000 A 
ATOM      6  C   UNL     1       7.699   4.988  13.146  0.00  0.00    +0.000 A 
ATOM      7  C   UNL     1       7.002   4.238  12.186  0.00  0.00    +0.000 A 
ATOM      8  C   UNL     1       5.817   3.591  12.526  0.00  0.00    +0.000 A 
ATOM      9  C   UNL     1       5.283   3.668  13.805  0.00  0.00    +0.000 A 
ATOM     10  C   UNL     1       5.987   4.383  14.797  0.00  0.00    +0.000 A 
ENDROOT
BRANCH   1  11
ATOM     11  C   UNL     1       4.743   4.171  17.077  0.00  0.00    +0.000 C 
ATOM     12  O   UNL     1       4.437   2.988  17.166  0.00  0.00    +0.000 OA
BRANCH  11  17
ATOM     13  C   UNL     1       1.708   7.981  20.216  0.00  0.00    +0.000 C 
ATOM     14  C   UNL     1       2.519   7.012  19.411  0.00  0.00    +0.000 A 
ATOM     15  C   UNL     1       2.906   7.305  18.098  0.00  0.00    +0.000 A 
ATOM     16  C   UNL     1       3.645   6.383  17.355  0.00  0.00    +0.000 A 
ATOM     17  C   UNL     1       4.012   5.158  17.922  0.00  0.00    +0.000 A 
ATOM     18  C   UNL     1       3.671   4.887  19.255  0.00  0.00    +0.000 A 
ATOM     19  C   UNL     1       2.900   5.793  19.981  0.00  0.00    +0.000 A 
ENDBRANCH  11  17
ENDBRANCH   1  11
BRANCH   8  20
ATOM     20  O   UNL     1       5.108   2.842  11.631  0.00  0.00    +0.000 OA
ATOM     21  H   UNL     1       5.376   3.094  10.731  0.00  0.00    +0.000 HD
ENDBRANCH   8  20
TORSDOF 3
ENDMDL
