MODEL 1
REMARK VINA RESULT:      -6.5      0.000      0.000
REMARK  Name = 
REMARK  8 active torsions:
REMARK  status: ('A' for Active; 'I' for Inactive)
REMARK    1  A    between atoms: C_1  and  C_2
REMARK    2  A    between atoms: C_2  and  C_3
REMARK    3  A    between atoms: C_3  and  C_25
REMARK    4  A    between atoms: C_4  and  C_5
REMARK    5  A    between atoms: C_4  and  C_16
REMARK    6  A    between atoms: C_8  and  C_9
REMARK    7  A    between atoms: C_10  and  C_11
REMARK    8  A    between atoms: C_11  and  O_13
REMARK                            x       y       z     vdW  Elec       q    Type
REMARK                         _______ _______ _______ _____ _____    ______ ____
ROOT
ATOM      1  C   UNL     1       2.583   4.307  20.087  0.00  0.00    +0.000 C 
ATOM      2  C   UNL     1       2.949   5.462  19.448  0.00  0.00    +0.000 C 
ENDROOT
BRANCH   2   3
ATOM      3  C   UNL     1       2.238   6.752  19.684  0.00  0.00    +0.000 A 
ATOM      4  C   UNL     1       1.713   7.054  20.953  0.00  0.00    +0.000 A 
ATOM      5  C   UNL     1       1.142   8.302  21.239  0.00  0.00    +0.000 A 
ATOM      6  C   UNL     1       1.165   9.254  20.218  0.00  0.00    +0.000 A 
ATOM      7  N   UNL     1       0.792  10.574  20.193  0.00  0.00    +0.000 N 
ATOM      8  N   UNL     1       1.030  11.187  19.018  0.00  0.00    +0.000 NA
ATOM      9  C   UNL     1       1.539  10.213  18.258  0.00  0.00    +0.000 A 
ATOM     10  C   UNL     1       1.642   8.981  18.940  0.00  0.00    +0.000 A 
ATOM     11  C   UNL     1       2.126   7.692  18.642  0.00  0.00    +0.000 A 
ATOM     12  H   UNL     1       0.406  11.124  20.950  0.00  0.00    +0.000 HD
ENDBRANCH   2   3
BRANCH   1  13
ATOM     13  C   UNL     1       3.344   3.011  19.875  0.00  0.00    +0.000 A 
ATOM     14  C   UNL     1       4.372   2.682  20.769  0.00  0.00    +0.000 A 
ATOM     15  C   UNL     1       5.124   1.534  20.547  0.00  0.00    +0.000 A 
ATOM     16  N   UNL     1       4.921   0.680  19.521  0.00  0.00    +0.000 NA
ATOM     17  C   UNL     1       3.919   0.995  18.670  0.00  0.00    +0.000 A 
ATOM     18  C   UNL     1       3.128   2.139  18.790  0.00  0.00    +0.000 A 
ATOM     19 CL   UNL     1       1.953   2.447  17.566  0.00  0.00    +0.000 Cl
ENDBRANCH   1  13
BRANCH   2  20
ATOM     20  C   UNL     1       4.039   5.445  18.434  0.00  0.00    +0.000 A 
ATOM     21  C   UNL     1       3.726   5.253  17.081  0.00  0.00    +0.000 A 
ATOM     22  C   UNL     1       4.735   5.229  16.112  0.00  0.00    +0.000 A 
ATOM     23  C   UNL     1       6.073   5.443  16.467  0.00  0.00    +0.000 A 
ATOM     24  C   UNL     1       6.378   5.652  17.819  0.00  0.00    +0.000 A 
ATOM     25  C   UNL     1       5.372   5.654  18.795  0.00  0.00    +0.000 A 
BRANCH  23  26
ATOM     26  C   UNL     1       7.100   5.385  15.413  0.00  0.00    +0.000 C 
ATOM     27  C   UNL     1       6.835   5.271  14.101  0.00  0.00    +0.000 C 
BRANCH  27  28
ATOM     28  C   UNL     1       7.941   5.208  13.128  0.00  0.00    +0.000 C 
ATOM     29  O   UNL     1       9.021   5.777  13.260  0.00  0.00    +0.000 OA
BRANCH  28  30
ATOM     30  O   UNL     1       7.638   4.447  12.060  0.00  0.00    +0.000 OA
ATOM     31  H   UNL     1       6.769   4.011  12.103  0.00  0.00    +0.000 HD
ENDBRANCH  28  30
ENDBRANCH  27  28
ENDBRANCH  23  26
ENDBRANCH   2  20
BRANCH   1  33
ATOM     32  C   UNL     1       1.146   2.725  21.755  0.00  0.00    +0.000 C 
ATOM     33  C   UNL     1       1.394   4.048  21.031  0.00  0.00    +0.000 C 
ENDBRANCH   1  33
TORSDOF 7
ENDMDL
MODEL 2
REMARK VINA RESULT:      -6.5      6.272     10.194
REMARK  Name = 
REMARK  8 active torsions:
REMARK  status: ('A' for Active; 'I' for Inactive)
REMARK    1  A    between atoms: C_1  and  C_2
REMARK    2  A    between atoms: C_2  and  C_3
REMARK    3  A    between atoms: C_3  and  C_25
REMARK    4  A    between atoms: C_4  and  C_5
REMARK    5  A    between atoms: C_4  and  C_16
REMARK    6  A    between atoms: C_8  and  C_9
REMARK    7  A    between atoms: C_10  and  C_11
REMARK    8  A    between atoms: C_11  and  O_13
REMARK                            x       y       z     vdW  Elec       q    Type
REMARK                         _______ _______ _______ _____ _____    ______ ____
ROOT
ATOM      1  C   UNL     1      -1.318  14.234  21.144  0.00  0.00    +0.000 C 
ATOM      2  C   UNL     1      -1.939  13.021  21.285  0.00  0.00    +0.000 C 
ENDROOT
BRANCH   2   3
ATOM      3  C   UNL     1      -3.407  12.911  21.525  0.00  0.00    +0.000 A 
ATOM      4  C   UNL     1      -4.288  12.675  20.454  0.00  0.00    +0.000 A 
ATOM      5  C   UNL     1      -5.656  12.451  20.658  0.00  0.00    +0.000 A 
ATOM      6  C   UNL     1      -6.100  12.421  21.982  0.00  0.00    +0.000 A 
ATOM      7  N   UNL     1      -7.325  12.134  22.527  0.00  0.00    +0.000 N 
ATOM      8  N   UNL     1      -7.341  12.148  23.873  0.00  0.00    +0.000 NA
ATOM      9  C   UNL     1      -6.090  12.492  24.194  0.00  0.00    +0.000 A 
ATOM     10  C   UNL     1      -5.267  12.685  23.064  0.00  0.00    +0.000 A 
ATOM     11  C   UNL     1      -3.914  13.001  22.835  0.00  0.00    +0.000 A 
ATOM     12  H   UNL     1      -8.178  11.885  22.041  0.00  0.00    +0.000 HD
ENDBRANCH   2   3
BRANCH   1  13
ATOM     13  C   UNL     1       0.168  14.334  20.854  0.00  0.00    +0.000 A 
ATOM     14  C   UNL     1       1.043  14.602  21.914  0.00  0.00    +0.000 A 
ATOM     15  C   UNL     1       2.398  14.767  21.652  0.00  0.00    +0.000 A 
ATOM     16  N   UNL     1       2.952  14.665  20.425  0.00  0.00    +0.000 NA
ATOM     17  C   UNL     1       2.105  14.392  19.407  0.00  0.00    +0.000 A 
ATOM     18  C   UNL     1       0.726  14.240  19.564  0.00  0.00    +0.000 A 
ATOM     19 CL   UNL     1      -0.229  13.989  18.150  0.00  0.00    +0.000 Cl
ENDBRANCH   1  13
BRANCH   2  20
ATOM     20  C   UNL     1      -1.141  11.764  21.272  0.00  0.00    +0.000 A 
ATOM     21  C   UNL     1      -0.863  11.132  20.052  0.00  0.00    +0.000 A 
ATOM     22  C   UNL     1      -0.119   9.947  20.016  0.00  0.00    +0.000 A 
ATOM     23  C   UNL     1       0.402   9.394  21.193  0.00  0.00    +0.000 A 
ATOM     24  C   UNL     1       0.135  10.040  22.408  0.00  0.00    +0.000 A 
ATOM     25  C   UNL     1      -0.629  11.215  22.449  0.00  0.00    +0.000 A 
BRANCH  23  26
ATOM     26  C   UNL     1       1.158   8.133  21.105  0.00  0.00    +0.000 C 
ATOM     27  C   UNL     1       1.815   7.718  20.010  0.00  0.00    +0.000 C 
BRANCH  27  28
ATOM     28  C   UNL     1       2.532   6.429  20.023  0.00  0.00    +0.000 C 
ATOM     29  O   UNL     1       3.389   6.098  19.208  0.00  0.00    +0.000 OA
BRANCH  28  30
ATOM     30  O   UNL     1       2.144   5.640  21.041  0.00  0.00    +0.000 OA
ATOM     31  H   UNL     1       2.680   5.724  21.850  0.00  0.00    +0.000 HD
ENDBRANCH  28  30
ENDBRANCH  27  28
ENDBRANCH  23  26
ENDBRANCH   2  20
BRANCH   1  33
ATOM     32  C   UNL     1      -2.199  16.319  22.637  0.00  0.00    +0.000 C 
ATOM     33  C   UNL     1      -1.901  15.652  21.294  0.00  0.00    +0.000 C 
ENDBRANCH   1  33
TORSDOF 7
ENDMDL
MODEL 3
REMARK VINA RESULT:      -6.4      5.906      9.809
REMARK  Name = 
REMARK  8 active torsions:
REMARK  status: ('A' for Active; 'I' for Inactive)
REMARK    1  A    between atoms: C_1  and  C_2
REMARK    2  A    between atoms: C_2  and  C_3
REMARK    3  A    between atoms: C_3  and  C_25
REMARK    4  A    between atoms: C_4  and  C_5
REMARK    5  A    between atoms: C_4  and  C_16
REMARK    6  A    between atoms: C_8  and  C_9
REMARK    7  A    between atoms: C_10  and  C_11
REMARK    8  A    between atoms: C_11  and  O_13
REMARK                            x       y       z     vdW  Elec       q    Type
REMARK                         _______ _______ _______ _____ _____    ______ ____
ROOT
ATOM      1  C   UNL     1      -0.815  14.054  20.211  0.00  0.00    +0.000 C 
ATOM      2  C   UNL     1      -1.445  12.905  20.609  0.00  0.00    +0.000 C 
ENDROOT
BRANCH   2   3
ATOM      3  C   UNL     1      -2.870  12.900  21.051  0.00  0.00    +0.000 A 
ATOM      4  C   UNL     1      -3.904  12.707  20.117  0.00  0.00    +0.000 A 
ATOM      5  C   UNL     1      -5.243  12.582  20.513  0.00  0.00    +0.000 A 
ATOM      6  C   UNL     1      -5.499  12.605  21.885  0.00  0.00    +0.000 A 
ATOM      7  N   UNL     1      -6.654  12.412  22.600  0.00  0.00    +0.000 N 
ATOM      8  N   UNL     1      -6.482  12.451  23.935  0.00  0.00    +0.000 NA
ATOM      9  C   UNL     1      -5.179  12.713  24.073  0.00  0.00    +0.000 A 
ATOM     10  C   UNL     1      -4.509  12.829  22.835  0.00  0.00    +0.000 A 
ATOM     11  C   UNL     1      -3.183  13.048  22.415  0.00  0.00    +0.000 A 
ATOM     12  H   UNL     1      -7.580  12.215  22.243  0.00  0.00    +0.000 HD
ENDBRANCH   2   3
BRANCH   1  13
ATOM     13  C   UNL     1       0.621  14.040  19.719  0.00  0.00    +0.000 A 
ATOM     14  C   UNL     1       0.880  13.590  18.418  0.00  0.00    +0.000 A 
ATOM     15  C   UNL     1       2.196  13.504  17.978  0.00  0.00    +0.000 A 
ATOM     16  N   UNL     1       3.268  13.849  18.721  0.00  0.00    +0.000 NA
ATOM     17  C   UNL     1       3.012  14.296  19.971  0.00  0.00    +0.000 A 
ATOM     18  C   UNL     1       1.729  14.389  20.514  0.00  0.00    +0.000 A 
ATOM     19 CL   UNL     1       1.578  14.888  22.158  0.00  0.00    +0.000 Cl
ENDBRANCH   1  13
BRANCH   2  20
ATOM     20  C   UNL     1      -0.692  11.622  20.679  0.00  0.00    +0.000 A 
ATOM     21  C   UNL     1      -0.643  10.785  19.556  0.00  0.00    +0.000 A 
ATOM     22  C   UNL     1       0.055   9.572  19.601  0.00  0.00    +0.000 A 
ATOM     23  C   UNL     1       0.757   9.193  20.752  0.00  0.00    +0.000 A 
ATOM     24  C   UNL     1       0.718  10.043  21.866  0.00  0.00    +0.000 A 
ATOM     25  C   UNL     1       0.001  11.248  21.831  0.00  0.00    +0.000 A 
BRANCH  23  26
ATOM     26  C   UNL     1       1.456   7.897  20.757  0.00  0.00    +0.000 C 
ATOM     27  C   UNL     1       2.144   7.403  19.715  0.00  0.00    +0.000 C 
BRANCH  27  28
ATOM     28  C   UNL     1       2.797   6.085  19.820  0.00  0.00    +0.000 C 
ATOM     29  O   UNL     1       3.521   5.593  18.958  0.00  0.00    +0.000 OA
BRANCH  28  30
ATOM     30  O   UNL     1       2.515   5.466  20.980  0.00  0.00    +0.000 OA
ATOM     31  H   UNL     1       2.979   4.621  21.116  0.00  0.00    +0.000 HD
ENDBRANCH  28  30
ENDBRANCH  27  28
ENDBRANCH  23  26
ENDBRANCH   2  20
BRANCH   1  33
ATOM     32  C   UNL     1      -1.657  16.288  21.495  0.00  0.00    +0.000 C 
ATOM     33  C   UNL     1      -1.332  15.505  20.223  0.00  0.00    +0.000 C 
ENDBRANCH   1  33
TORSDOF 7
ENDMDL
MODEL 4
REMARK VINA RESULT:      -6.4      6.071      9.888
REMARK  Name = 
REMARK  8 active torsions:
REMARK  status: ('A' for Active; 'I' for Inactive)
REMARK    1  A    between atoms: C_1  and  C_2
REMARK    2  A    between atoms: C_2  and  C_3
REMARK    3  A    between atoms: C_3  and  C_25
REMARK    4  A    between atoms: C_4  and  C_5
REMARK    5  A    between atoms: C_4  and  C_16
REMARK    6  A    between atoms: C_8  and  C_9
REMARK    7  A    between atoms: C_10  and  C_11
REMARK    8  A    between atoms: C_11  and  O_13
REMARK                            x       y       z     vdW  Elec       q    Type
REMARK                         _______ _______ _______ _____ _____    ______ ____
ROOT
ATOM      1  C   UNL     1      -1.012  13.873  21.323  0.00  0.00    +0.000 C 
ATOM      2  C   UNL     1      -1.645  12.709  21.669  0.00  0.00    +0.000 C 
ENDROOT
BRANCH   2   3
ATOM      3  C   UNL     1      -3.036  12.697  22.209  0.00  0.00    +0.000 A 
ATOM      4  C   UNL     1      -3.263  12.775  23.594  0.00  0.00    +0.000 A 
ATOM      5  C   UNL     1      -4.555  12.883  24.127  0.00  0.00    +0.000 A 
ATOM      6  C   UNL     1      -5.608  12.962  23.214  0.00  0.00    +0.000 A 
ATOM      7  N   UNL     1      -6.953  13.170  23.389  0.00  0.00    +0.000 N 
ATOM      8  N   UNL     1      -7.647  13.246  22.237  0.00  0.00    +0.000 NA
ATOM      9  C   UNL     1      -6.717  13.045  21.300  0.00  0.00    +0.000 A 
ATOM     10  C   UNL     1      -5.426  12.853  21.839  0.00  0.00    +0.000 A 
ATOM     11  C   UNL     1      -4.131  12.649  21.326  0.00  0.00    +0.000 A 
ATOM     12  H   UNL     1      -7.453  13.304  24.258  0.00  0.00    +0.000 HD
ENDBRANCH   2   3
BRANCH   1  13
ATOM     13  C   UNL     1       0.384  13.869  20.731  0.00  0.00    +0.000 A 
ATOM     14  C   UNL     1       1.472  14.132  21.575  0.00  0.00    +0.000 A 
ATOM     15  C   UNL     1       2.750  14.202  21.033  0.00  0.00    +0.000 A 
ATOM     16  N   UNL     1       3.033  14.012  19.727  0.00  0.00    +0.000 NA
ATOM     17  C   UNL     1       1.983  13.746  18.920  0.00  0.00    +0.000 A 
ATOM     18  C   UNL     1       0.660  13.684  19.362  0.00  0.00    +0.000 A 
ATOM     19 CL   UNL     1      -0.578  13.429  18.188  0.00  0.00    +0.000 Cl
ENDBRANCH   1  13
BRANCH   2  20
ATOM     20  C   UNL     1      -0.924  11.409  21.580  0.00  0.00    +0.000 A 
ATOM     21  C   UNL     1      -0.731  10.807  20.329  0.00  0.00    +0.000 A 
ATOM     22  C   UNL     1      -0.061   9.583  20.223  0.00  0.00    +0.000 A 
ATOM     23  C   UNL     1       0.471   8.957  21.358  0.00  0.00    +0.000 A 
ATOM     24  C   UNL     1       0.289   9.573  22.604  0.00  0.00    +0.000 A 
ATOM     25  C   UNL     1      -0.402  10.788  22.716  0.00  0.00    +0.000 A 
BRANCH  23  26
ATOM     26  C   UNL     1       1.147   7.659  21.196  0.00  0.00    +0.000 C 
ATOM     27  C   UNL     1       1.834   7.293  20.102  0.00  0.00    +0.000 C 
BRANCH  27  28
ATOM     28  C   UNL     1       2.463   5.961  20.036  0.00  0.00    +0.000 C 
ATOM     29  O   UNL     1       3.061   5.518  19.059  0.00  0.00    +0.000 OA
BRANCH  28  30
ATOM     30  O   UNL     1       2.315   5.269  21.180  0.00  0.00    +0.000 OA
ATOM     31  H   UNL     1       2.914   4.509  21.278  0.00  0.00    +0.000 HD
ENDBRANCH  28  30
ENDBRANCH  27  28
ENDBRANCH  23  26
ENDBRANCH   2  20
BRANCH   1  33
ATOM     32  C   UNL     1      -1.826  16.259  20.325  0.00  0.00    +0.000 C 
ATOM     33  C   UNL     1      -1.488  15.329  21.490  0.00  0.00    +0.000 C 
ENDBRANCH   1  33
TORSDOF 7
ENDMDL
MODEL 5
REMARK VINA RESULT:      -6.4      4.361      7.104
REMARK  Name = 
REMARK  8 active torsions:
REMARK  status: ('A' for Active; 'I' for Inactive)
REMARK    1  A    between atoms: C_1  and  C_2
REMARK    2  A    between atoms: C_2  and  C_3
REMARK    3  A    between atoms: C_3  and  C_25
REMARK    4  A    between atoms: C_4  and  C_5
REMARK    5  A    between atoms: C_4  and  C_16
REMARK    6  A    between atoms: C_8  and  C_9
REMARK    7  A    between atoms: C_10  and  C_11
REMARK    8  A    between atoms: C_11  and  O_13
REMARK                            x       y       z     vdW  Elec       q    Type
REMARK                         _______ _______ _______ _____ _____    ______ ____
ROOT
ATOM      1  C   UNL     1       3.851   3.750  18.638  0.00  0.00    +0.000 C 
ATOM      2  C   UNL     1       4.018   5.004  18.112  0.00  0.00    +0.000 C 
ENDROOT
BRANCH   2   3
ATOM      3  C   UNL     1       5.043   5.289  17.065  0.00  0.00    +0.000 A 
ATOM      4  C   UNL     1       6.176   6.063  17.371  0.00  0.00    +0.000 A 
ATOM      5  C   UNL     1       7.212   6.254  16.447  0.00  0.00    +0.000 A 
ATOM      6  C   UNL     1       7.092   5.596  15.221  0.00  0.00    +0.000 A 
ATOM      7  N   UNL     1       7.950   5.488  14.156  0.00  0.00    +0.000 N 
ATOM      8  N   UNL     1       7.492   4.700  13.164  0.00  0.00    +0.000 NA
ATOM      9  C   UNL     1       6.286   4.323  13.599  0.00  0.00    +0.000 A 
ATOM     10  C   UNL     1       5.971   4.852  14.869  0.00  0.00    +0.000 A 
ATOM     11  C   UNL     1       4.897   4.749  15.774  0.00  0.00    +0.000 A 
ATOM     12  H   UNL     1       8.872   5.893  14.058  0.00  0.00    +0.000 HD
ENDBRANCH   2   3
BRANCH   1  13
ATOM     13  C   UNL     1       2.775   3.460  19.667  0.00  0.00    +0.000 A 
ATOM     14  C   UNL     1       3.164   3.155  20.978  0.00  0.00    +0.000 A 
ATOM     15  C   UNL     1       2.193   2.818  21.914  0.00  0.00    +0.000 A 
ATOM     16  N   UNL     1       0.869   2.781  21.655  0.00  0.00    +0.000 NA
ATOM     17  C   UNL     1       0.498   3.090  20.393  0.00  0.00    +0.000 A 
ATOM     18  C   UNL     1       1.398   3.411  19.375  0.00  0.00    +0.000 A 
ATOM     19 CL   UNL     1       0.770   3.687  17.793  0.00  0.00    +0.000 Cl
ENDBRANCH   1  13
BRANCH   2  20
ATOM     20  C   UNL     1       3.217   6.147  18.630  0.00  0.00    +0.000 A 
ATOM     21  C   UNL     1       2.787   7.148  17.748  0.00  0.00    +0.000 A 
ATOM     22  C   UNL     1       2.036   8.234  18.214  0.00  0.00    +0.000 A 
ATOM     23  C   UNL     1       1.662   8.319  19.561  0.00  0.00    +0.000 A 
ATOM     24  C   UNL     1       2.081   7.306  20.435  0.00  0.00    +0.000 A 
ATOM     25  C   UNL     1       2.852   6.229  19.975  0.00  0.00    +0.000 A 
BRANCH  23  26
ATOM     26  C   UNL     1       0.892   9.493  20.005  0.00  0.00    +0.000 C 
ATOM     27  C   UNL     1       0.645   9.796  21.290  0.00  0.00    +0.000 C 
BRANCH  27  28
ATOM     28  C   UNL     1      -0.150  10.991  21.627  0.00  0.00    +0.000 C 
ATOM     29  O   UNL     1      -0.631  11.766  20.804  0.00  0.00    +0.000 OA
BRANCH  28  30
ATOM     30  O   UNL     1      -0.299  11.148  22.955  0.00  0.00    +0.000 OA
ATOM     31  H   UNL     1      -0.982  11.791  23.216  0.00  0.00    +0.000 HD
ENDBRANCH  28  30
ENDBRANCH  27  28
ENDBRANCH  23  26
ENDBRANCH   2  20
BRANCH   1  33
ATOM     32  C   UNL     1       4.055   1.085  18.184  0.00  0.00    +0.000 C 
ATOM     33  C   UNL     1       4.670   2.469  18.387  0.00  0.00    +0.000 C 
ENDBRANCH   1  33
TORSDOF 7
ENDMDL
MODEL 6
REMARK VINA RESULT:      -6.3      0.494      1.556
REMARK  Name = 
REMARK  8 active torsions:
REMARK  status: ('A' for Active; 'I' for Inactive)
REMARK    1  A    between atoms: C_1  and  C_2
REMARK    2  A    between atoms: C_2  and  C_3
REMARK    3  A    between atoms: C_3  and  C_25
REMARK    4  A    between atoms: C_4  and  C_5
REMARK    5  A    between atoms: C_4  and  C_16
REMARK    6  A    between atoms: C_8  and  C_9
REMARK    7  A    between atoms: C_10  and  C_11
REMARK    8  A    between atoms: C_11  and  O_13
REMARK                            x       y       z     vdW  Elec       q    Type
REMARK                         _______ _______ _______ _____ _____    ______ ____
ROOT
ATOM      1  C   UNL     1       2.669   4.407  20.055  0.00  0.00    +0.000 C 
ATOM      2  C   UNL     1       3.041   5.512  19.335  0.00  0.00    +0.000 C 
ENDROOT
BRANCH   2   3
ATOM      3  C   UNL     1       2.404   6.844  19.550  0.00  0.00    +0.000 A 
ATOM      4  C   UNL     1       2.314   7.769  18.495  0.00  0.00    +0.000 A 
ATOM      5  C   UNL     1       1.621   8.980  18.630  0.00  0.00    +0.000 A 
ATOM      6  C   UNL     1       0.978   9.205  19.849  0.00  0.00    +0.000 A 
ATOM      7  N   UNL     1       0.150  10.214  20.270  0.00  0.00    +0.000 N 
ATOM      8  N   UNL     1      -0.330  10.042  21.517  0.00  0.00    +0.000 NA
ATOM      9  C   UNL     1       0.241   8.902  21.914  0.00  0.00    +0.000 A 
ATOM     10  C   UNL     1       1.075   8.332  20.927  0.00  0.00    +0.000 A 
ATOM     11  C   UNL     1       1.853   7.165  20.805  0.00  0.00    +0.000 A 
ATOM     12  H   UNL     1      -0.155  11.026  19.748  0.00  0.00    +0.000 HD
ENDBRANCH   2   3
BRANCH   1  13
ATOM     13  C   UNL     1       3.356   3.069  19.861  0.00  0.00    +0.000 A 
ATOM     14  C   UNL     1       4.474   2.767  20.651  0.00  0.00    +0.000 A 
ATOM     15  C   UNL     1       5.156   1.575  20.435  0.00  0.00    +0.000 A 
ATOM     16  N   UNL     1       4.803   0.655  19.513  0.00  0.00    +0.000 NA
ATOM     17  C   UNL     1       3.717   0.944  18.763  0.00  0.00    +0.000 A 
ATOM     18  C   UNL     1       2.984   2.126  18.883  0.00  0.00    +0.000 A 
ATOM     19 CL   UNL     1       1.680   2.388  17.785  0.00  0.00    +0.000 Cl
ENDBRANCH   1  13
BRANCH   2  20
ATOM     20  C   UNL     1       4.059   5.396  18.254  0.00  0.00    +0.000 A 
ATOM     21  C   UNL     1       5.376   5.811  18.494  0.00  0.00    +0.000 A 
ATOM     22  C   UNL     1       6.348   5.715  17.491  0.00  0.00    +0.000 A 
ATOM     23  C   UNL     1       6.035   5.160  16.244  0.00  0.00    +0.000 A 
ATOM     24  C   UNL     1       4.720   4.731  16.016  0.00  0.00    +0.000 A 
ATOM     25  C   UNL     1       3.739   4.847  17.011  0.00  0.00    +0.000 A 
BRANCH  23  26
ATOM     26  C   UNL     1       7.087   5.103  15.214  0.00  0.00    +0.000 C 
ATOM     27  C   UNL     1       6.891   5.376  13.914  0.00  0.00    +0.000 C 
BRANCH  27  28
ATOM     28  C   UNL     1       8.013   5.275  12.962  0.00  0.00    +0.000 C 
ATOM     29  O   UNL     1       9.106   5.815  13.110  0.00  0.00    +0.000 OA
BRANCH  28  30
ATOM     30  O   UNL     1       7.709   4.516  11.894  0.00  0.00    +0.000 OA
ATOM     31  H   UNL     1       7.488   5.015  11.087  0.00  0.00    +0.000 HD
ENDBRANCH  28  30
ENDBRANCH  27  28
ENDBRANCH  23  26
ENDBRANCH   2  20
BRANCH   1  33
ATOM     32  C   UNL     1       1.149   2.924  21.739  0.00  0.00    +0.000 C 
ATOM     33  C   UNL     1       1.535   4.251  21.086  0.00  0.00    +0.000 C 
ENDBRANCH   1  33
TORSDOF 7
ENDMDL
MODEL 7
REMARK VINA RESULT:      -6.2      5.919      9.730
REMARK  Name = 
REMARK  8 active torsions:
REMARK  status: ('A' for Active; 'I' for Inactive)
REMARK    1  A    between atoms: C_1  and  C_2
REMARK    2  A    between atoms: C_2  and  C_3
REMARK    3  A    between atoms: C_3  and  C_25
REMARK    4  A    between atoms: C_4  and  C_5
REMARK    5  A    between atoms: C_4  and  C_16
REMARK    6  A    between atoms: C_8  and  C_9
REMARK    7  A    between atoms: C_10  and  C_11
REMARK    8  A    between atoms: C_11  and  O_13
REMARK                            x       y       z     vdW  Elec       q    Type
REMARK                         _______ _______ _______ _____ _____    ______ ____
ROOT
ATOM      1  C   UNL     1      -0.802  13.776  21.311  0.00  0.00    +0.000 C 
ATOM      2  C   UNL     1      -1.421  12.600  21.642  0.00  0.00    +0.000 C 
ENDROOT
BRANCH   2   3
ATOM      3  C   UNL     1      -2.773  12.570  22.272  0.00  0.00    +0.000 A 
ATOM      4  C   UNL     1      -2.906  12.453  23.667  0.00  0.00    +0.000 A 
ATOM      5  C   UNL     1      -4.153  12.538  24.301  0.00  0.00    +0.000 A 
ATOM      6  C   UNL     1      -5.257  12.797  23.486  0.00  0.00    +0.000 A 
ATOM      7  N   UNL     1      -6.575  13.034  23.784  0.00  0.00    +0.000 N 
ATOM      8  N   UNL     1      -7.337  13.310  22.708  0.00  0.00    +0.000 NA
ATOM      9  C   UNL     1      -6.481  13.208  21.688  0.00  0.00    +0.000 A 
ATOM     10  C   UNL     1      -5.170  12.882  22.101  0.00  0.00    +0.000 A 
ATOM     11  C   UNL     1      -3.923  12.700  21.472  0.00  0.00    +0.000 A 
ATOM     12  H   UNL     1      -7.010  13.061  24.698  0.00  0.00    +0.000 HD
ENDBRANCH   2   3
BRANCH   1  13
ATOM     13  C   UNL     1       0.552  13.793  20.628  0.00  0.00    +0.000 A 
ATOM     14  C   UNL     1       1.693  14.034  21.405  0.00  0.00    +0.000 A 
ATOM     15  C   UNL     1       2.933  14.123  20.781  0.00  0.00    +0.000 A 
ATOM     16  N   UNL     1       3.128  13.972  19.454  0.00  0.00    +0.000 NA
ATOM     17  C   UNL     1       2.026  13.727  18.712  0.00  0.00    +0.000 A 
ATOM     18  C   UNL     1       0.736  13.649  19.239  0.00  0.00    +0.000 A 
ATOM     19 CL   UNL     1      -0.577  13.425  18.143  0.00  0.00    +0.000 Cl
ENDBRANCH   1  13
BRANCH   2  20
ATOM     20  C   UNL     1      -0.719  11.302  21.442  0.00  0.00    +0.000 A 
ATOM     21  C   UNL     1      -0.113  10.665  22.534  0.00  0.00    +0.000 A 
ATOM     22  C   UNL     1       0.556   9.447  22.368  0.00  0.00    +0.000 A 
ATOM     23  C   UNL     1       0.593   8.816  21.118  0.00  0.00    +0.000 A 
ATOM     24  C   UNL     1      -0.030   9.449  20.033  0.00  0.00    +0.000 A 
ATOM     25  C   UNL     1      -0.682  10.681  20.192  0.00  0.00    +0.000 A 
BRANCH  23  26
ATOM     26  C   UNL     1       1.329   7.547  20.990  0.00  0.00    +0.000 C 
ATOM     27  C   UNL     1       1.782   7.046  19.829  0.00  0.00    +0.000 C 
BRANCH  27  28
ATOM     28  C   UNL     1       2.497   5.757  19.810  0.00  0.00    +0.000 C 
ATOM     29  O   UNL     1       1.961   4.662  19.658  0.00  0.00    +0.000 OA
BRANCH  28  30
ATOM     30  O   UNL     1       3.823   5.906  19.979  0.00  0.00    +0.000 OA
ATOM     31  H   UNL     1       4.092   6.758  20.366  0.00  0.00    +0.000 HD
ENDBRANCH  28  30
ENDBRANCH  27  28
ENDBRANCH  23  26
ENDBRANCH   2  20
BRANCH   1  33
ATOM     32  C   UNL     1      -1.244  15.882  22.961  0.00  0.00    +0.000 C 
ATOM     33  C   UNL     1      -1.252  15.225  21.581  0.00  0.00    +0.000 C 
ENDBRANCH   1  33
TORSDOF 7
ENDMDL
MODEL 8
REMARK VINA RESULT:      -6.2      5.862      9.867
REMARK  Name = 
REMARK  8 active torsions:
REMARK  status: ('A' for Active; 'I' for Inactive)
REMARK    1  A    between atoms: C_1  and  C_2
REMARK    2  A    between atoms: C_2  and  C_3
REMARK    3  A    between atoms: C_3  and  C_25
REMARK    4  A    between atoms: C_4  and  C_5
REMARK    5  A    between atoms: C_4  and  C_16
REMARK    6  A    between atoms: C_8  and  C_9
REMARK    7  A    between atoms: C_10  and  C_11
REMARK    8  A    between atoms: C_11  and  O_13
REMARK                            x       y       z     vdW  Elec       q    Type
REMARK                         _______ _______ _______ _____ _____    ______ ____
ROOT
ATOM      1  C   UNL     1      -0.433  14.124  20.362  0.00  0.00    +0.000 C 
ATOM      2  C   UNL     1      -1.074  12.957  20.683  0.00  0.00    +0.000 C 
ENDROOT
BRANCH   2   3
ATOM      3  C   UNL     1      -2.458  12.946  21.240  0.00  0.00    +0.000 A 
ATOM      4  C   UNL     1      -3.570  12.870  20.382  0.00  0.00    +0.000 A 
ATOM      5  C   UNL     1      -4.876  12.740  20.875  0.00  0.00    +0.000 A 
ATOM      6  C   UNL     1      -5.020  12.638  22.260  0.00  0.00    +0.000 A 
ATOM      7  N   UNL     1      -6.119  12.407  23.048  0.00  0.00    +0.000 N 
ATOM      8  N   UNL     1      -5.838  12.313  24.362  0.00  0.00    +0.000 NA
ATOM      9  C   UNL     1      -4.520  12.528  24.414  0.00  0.00    +0.000 A 
ATOM     10  C   UNL     1      -3.949  12.745  23.141  0.00  0.00    +0.000 A 
ATOM     11  C   UNL     1      -2.654  12.970  22.633  0.00  0.00    +0.000 A 
ATOM     12  H   UNL     1      -7.077  12.268  22.753  0.00  0.00    +0.000 HD
ENDBRANCH   2   3
BRANCH   1  13
ATOM     13  C   UNL     1       0.956  14.122  19.752  0.00  0.00    +0.000 A 
ATOM     14  C   UNL     1       1.106  13.698  18.424  0.00  0.00    +0.000 A 
ATOM     15  C   UNL     1       2.381  13.623  17.876  0.00  0.00    +0.000 A 
ATOM     16  N   UNL     1       3.512  13.955  18.533  0.00  0.00    +0.000 NA
ATOM     17  C   UNL     1       3.361  14.376  19.808  0.00  0.00    +0.000 A 
ATOM     18  C   UNL     1       2.127  14.457  20.459  0.00  0.00    +0.000 A 
ATOM     19 CL   UNL     1       2.113  14.922  22.119  0.00  0.00    +0.000 Cl
ENDBRANCH   1  13
BRANCH   2  20
ATOM     20  C   UNL     1      -0.370  11.652  20.547  0.00  0.00    +0.000 A 
ATOM     21  C   UNL     1       0.312  11.114  21.646  0.00  0.00    +0.000 A 
ATOM     22  C   UNL     1       0.984   9.891  21.540  0.00  0.00    +0.000 A 
ATOM     23  C   UNL     1       0.952   9.159  20.346  0.00  0.00    +0.000 A 
ATOM     24  C   UNL     1       0.254   9.694  19.255  0.00  0.00    +0.000 A 
ATOM     25  C   UNL     1      -0.402  10.930  19.352  0.00  0.00    +0.000 A 
BRANCH  23  26
ATOM     26  C   UNL     1       1.695   7.889  20.277  0.00  0.00    +0.000 C 
ATOM     27  C   UNL     1       1.266   6.730  20.801  0.00  0.00    +0.000 C 
BRANCH  27  28
ATOM     28  C   UNL     1       2.096   5.516  20.688  0.00  0.00    +0.000 C 
ATOM     29  O   UNL     1       1.730   4.387  21.006  0.00  0.00    +0.000 OA
BRANCH  28  30
ATOM     30  O   UNL     1       3.318   5.778  20.190  0.00  0.00    +0.000 OA
ATOM     31  H   UNL     1       3.396   5.677  19.225  0.00  0.00    +0.000 HD
ENDBRANCH  28  30
ENDBRANCH  27  28
ENDBRANCH  23  26
ENDBRANCH   2  20
BRANCH   1  33
ATOM     32  C   UNL     1      -1.009  16.615  19.459  0.00  0.00    +0.000 C 
ATOM     33  C   UNL     1      -0.890  15.580  20.577  0.00  0.00    +0.000 C 
ENDBRANCH   1  33
TORSDOF 7
ENDMDL
MODEL 9
REMARK VINA RESULT:      -6.2      7.704     12.279
REMARK  Name = 
REMARK  8 active torsions:
REMARK  status: ('A' for Active; 'I' for Inactive)
REMARK    1  A    between atoms: C_1  and  C_2
REMARK    2  A    between atoms: C_2  and  C_3
REMARK    3  A    between atoms: C_3  and  C_25
REMARK    4  A    between atoms: C_4  and  C_5
REMARK    5  A    between atoms: C_4  and  C_16
REMARK    6  A    between atoms: C_8  and  C_9
REMARK    7  A    between atoms: C_10  and  C_11
REMARK    8  A    between atoms: C_11  and  O_13
REMARK                            x       y       z     vdW  Elec       q    Type
REMARK                         _______ _______ _______ _____ _____    ______ ____
ROOT
ATOM      1  C   UNL     1       1.074  13.463  20.398  0.00  0.00    +0.000 C 
ATOM      2  C   UNL     1       0.232  12.383  20.450  0.00  0.00    +0.000 C 
ENDROOT
BRANCH   2   3
ATOM      3  C   UNL     1       0.629  11.047  19.918  0.00  0.00    +0.000 A 
ATOM      4  C   UNL     1       0.956  10.891  18.559  0.00  0.00    +0.000 A 
ATOM      5  C   UNL     1       1.443   9.679  18.051  0.00  0.00    +0.000 A 
ATOM      6  C   UNL     1       1.639   8.644  18.968  0.00  0.00    +0.000 A 
ATOM      7  N   UNL     1       2.183   7.393  18.828  0.00  0.00    +0.000 N 
ATOM      8  N   UNL     1       2.257   6.698  19.979  0.00  0.00    +0.000 NA
ATOM      9  C   UNL     1       1.708   7.523  20.875  0.00  0.00    +0.000 A 
ATOM     10  C   UNL     1       1.294   8.750  20.311  0.00  0.00    +0.000 A 
ATOM     11  C   UNL     1       0.717   9.943  20.786  0.00  0.00    +0.000 A 
ATOM     12  H   UNL     1       2.555   6.968  17.988  0.00  0.00    +0.000 HD
ENDBRANCH   2   3
BRANCH   1  13
ATOM     13  C   UNL     1       0.678  14.804  20.985  0.00  0.00    +0.000 A 
ATOM     14  C   UNL     1       0.933  15.045  22.342  0.00  0.00    +0.000 A 
ATOM     15  C   UNL     1       0.511  16.241  22.910  0.00  0.00    +0.000 A 
ATOM     16  N   UNL     1      -0.122  17.222  22.233  0.00  0.00    +0.000 NA
ATOM     17  C   UNL     1      -0.353  16.991  20.922  0.00  0.00    +0.000 A 
ATOM     18  C   UNL     1       0.004  15.811  20.267  0.00  0.00    +0.000 A 
ATOM     19 CL   UNL     1      -0.447  15.632  18.612  0.00  0.00    +0.000 Cl
ENDBRANCH   1  13
BRANCH   2  20
ATOM     20  C   UNL     1      -1.149  12.535  20.986  0.00  0.00    +0.000 A 
ATOM     21  C   UNL     1      -2.208  12.800  20.108  0.00  0.00    +0.000 A 
ATOM     22  C   UNL     1      -3.514  12.951  20.590  0.00  0.00    +0.000 A 
ATOM     23  C   UNL     1      -3.795  12.794  21.953  0.00  0.00    +0.000 A 
ATOM     24  C   UNL     1      -2.734  12.512  22.825  0.00  0.00    +0.000 A 
ATOM     25  C   UNL     1      -1.421  12.383  22.347  0.00  0.00    +0.000 A 
BRANCH  23  26
ATOM     26  C   UNL     1      -5.180  12.986  22.414  0.00  0.00    +0.000 C 
ATOM     27  C   UNL     1      -5.585  12.832  23.685  0.00  0.00    +0.000 C 
BRANCH  27  28
ATOM     28  C   UNL     1      -7.003  13.036  24.038  0.00  0.00    +0.000 C 
ATOM     29  O   UNL     1      -7.879  12.181  23.931  0.00  0.00    +0.000 OA
BRANCH  28  30
ATOM     30  O   UNL     1      -7.241  14.276  24.499  0.00  0.00    +0.000 OA
ATOM     31  H   UNL     1      -7.731  14.312  25.340  0.00  0.00    +0.000 HD
ENDBRANCH  28  30
ENDBRANCH  27  28
ENDBRANCH  23  26
ENDBRANCH   2  20
BRANCH   1  33
ATOM     32  C   UNL     1       2.692  14.065  18.308  0.00  0.00    +0.000 C 
ATOM     33  C   UNL     1       2.462  13.586  19.741  0.00  0.00    +0.000 C 
ENDBRANCH   1  33
TORSDOF 7
ENDMDL
