MODEL 1
REMARK VINA RESULT:      -8.2      0.000      0.000
REMARK  Name = 
REMARK  12 active torsions:
REMARK  status: ('A' for Active; 'I' for Inactive)
REMARK    1  A    between atoms: C_1  and  C_2
REMARK    2  A    between atoms: C_2  and  C_3
REMARK    3  A    between atoms: C_2  and  C_4
REMARK    4  A    between atoms: C_7  and  N_8
REMARK    5  A    between atoms: C_9  and  C_11
REMARK    6  A    between atoms: C_11  and  C_12
REMARK    7  A    between atoms: C_11  and  N_24
REMARK    8  A    between atoms: C_12  and  C_13
REMARK    9  A    between atoms: C_13  and  C_15
REMARK   10  A    between atoms: C_18  and  C_19
REMARK   11  A    between atoms: C_19  and  C_20
REMARK   12  A    between atoms: C_19  and  C_21
REMARK                            x       y       z     vdW  Elec       q    Type
REMARK                         _______ _______ _______ _____ _____    ______ ____
ROOT
ATOM      1  C   UNL     1       3.717   4.771  18.995  0.00  0.00    +0.000 C 
ENDROOT
BRANCH   1   2
ATOM      2  N   UNL     1       3.256   3.840  20.071  0.00  0.00    +0.000 NA
ATOM      3  C   UNL     1       3.878   2.495  19.999  0.00  0.00    +0.000 C 
ATOM      4  C   UNL     1       3.388   1.637  18.819  0.00  0.00    +0.000 C 
ATOM      5  O   UNL     1       1.976   1.431  18.895  0.00  0.00    +0.000 OA
ATOM      6  C   UNL     1       1.270   2.679  18.918  0.00  0.00    +0.000 C 
ATOM      7  C   UNL     1       1.779   3.619  20.034  0.00  0.00    +0.000 C 
ENDBRANCH   1   2
BRANCH   1   9
ATOM      8  N   UNL     1       2.773   6.928  19.879  0.00  0.00    +0.000 N 
ATOM      9  C   UNL     1       2.772   5.997  18.856  0.00  0.00    +0.000 C 
ATOM     10  O   UNL     1       2.055   6.065  17.852  0.00  0.00    +0.000 OA
ATOM     11  H   UNL     1       3.565   6.898  20.530  0.00  0.00    +0.000 HD
BRANCH   8  15
ATOM     12  C   UNL     1      -0.118  10.025  20.429  0.00  0.00    +0.000 A 
ATOM     13  C   UNL     1       0.657   9.967  19.265  0.00  0.00    +0.000 A 
ATOM     14  C   UNL     1       1.613   8.959  19.081  0.00  0.00    +0.000 A 
ATOM     15  C   UNL     1       1.823   7.971  20.045  0.00  0.00    +0.000 A 
ATOM     16  C   UNL     1       1.032   8.003  21.198  0.00  0.00    +0.000 A 
ATOM     17  C   UNL     1       0.084   9.028  21.395  0.00  0.00    +0.000 A 
BRANCH  12  19
ATOM     18  C   UNL     1      -0.568  12.339  21.373  0.00  0.00    +0.000 C 
ATOM     19  C   UNL     1      -1.131  11.148  20.593  0.00  0.00    +0.000 C 
ATOM     20  C   UNL     1      -1.706  11.605  19.249  0.00  0.00    +0.000 C 
ENDBRANCH  12  19
ENDBRANCH   8  15
ENDBRANCH   1   9
BRANCH   1  21
ATOM     21  C   UNL     1       5.209   5.150  18.958  0.00  0.00    +0.000 C 
BRANCH  21  22
ATOM     22  C   UNL     1       5.733   6.002  17.809  0.00  0.00    +0.000 C 
ATOM     23  O   UNL     1       5.994   7.193  17.941  0.00  0.00    +0.000 OA
BRANCH  22  24
ATOM     24  C   UNL     1       5.849   5.352  16.451  0.00  0.00    +0.000 A 
ATOM     25  C   UNL     1       4.758   4.735  15.820  0.00  0.00    +0.000 A 
ATOM     26  C   UNL     1       4.904   4.119  14.570  0.00  0.00    +0.000 A 
ATOM     27  C   UNL     1       6.138   4.110  13.909  0.00  0.00    +0.000 A 
ATOM     28  C   UNL     1       7.221   4.754  14.525  0.00  0.00    +0.000 A 
ATOM     29  C   UNL     1       7.078   5.367  15.781  0.00  0.00    +0.000 A 
BRANCH  27  30
ATOM     30  C   UNL     1       6.268   3.403  12.567  0.00  0.00    +0.000 C 
ATOM     31  C   UNL     1       4.918   3.252  11.860  0.00  0.00    +0.000 C 
ATOM     32  C   UNL     1       7.282   4.098  11.655  0.00  0.00    +0.000 C 
ENDBRANCH  27  30
ENDBRANCH  22  24
ENDBRANCH  21  22
ENDBRANCH   1  21
TORSDOF 8
ENDMDL
MODEL 2
REMARK VINA RESULT:      -8.1      1.050      1.438
REMARK  Name = 
REMARK  12 active torsions:
REMARK  status: ('A' for Active; 'I' for Inactive)
REMARK    1  A    between atoms: C_1  and  C_2
REMARK    2  A    between atoms: C_2  and  C_3
REMARK    3  A    between atoms: C_2  and  C_4
REMARK    4  A    between atoms: C_7  and  N_8
REMARK    5  A    between atoms: C_9  and  C_11
REMARK    6  A    between atoms: C_11  and  C_12
REMARK    7  A    between atoms: C_11  and  N_24
REMARK    8  A    between atoms: C_12  and  C_13
REMARK    9  A    between atoms: C_13  and  C_15
REMARK   10  A    between atoms: C_18  and  C_19
REMARK   11  A    between atoms: C_19  and  C_20
REMARK   12  A    between atoms: C_19  and  C_21
REMARK                            x       y       z     vdW  Elec       q    Type
REMARK                         _______ _______ _______ _____ _____    ______ ____
ROOT
ATOM      1  C   UNL     1       4.288   4.741  18.754  0.00  0.00    +0.000 C 
ENDROOT
BRANCH   1   2
ATOM      2  N   UNL     1       3.863   3.864  19.889  0.00  0.00    +0.000 NA
ATOM      3  C   UNL     1       4.388   2.479  19.798  0.00  0.00    +0.000 C 
ATOM      4  C   UNL     1       3.741   1.634  18.687  0.00  0.00    +0.000 C 
ATOM      5  O   UNL     1       2.331   1.525  18.889  0.00  0.00    +0.000 OA
ATOM      6  C   UNL     1       1.713   2.817  18.941  0.00  0.00    +0.000 C 
ATOM      7  C   UNL     1       2.378   3.743  19.985  0.00  0.00    +0.000 C 
ENDBRANCH   1   2
BRANCH   1   9
ATOM      8  N   UNL     1       3.275   7.022  19.056  0.00  0.00    +0.000 N 
ATOM      9  C   UNL     1       3.204   5.800  18.413  0.00  0.00    +0.000 C 
ATOM     10  O   UNL     1       2.324   5.487  17.602  0.00  0.00    +0.000 OA
ATOM     11  H   UNL     1       4.163   7.254  19.512  0.00  0.00    +0.000 HD
BRANCH   8  15
ATOM     12  C   UNL     1       0.187   9.975  19.120  0.00  0.00    +0.000 A 
ATOM     13  C   UNL     1       0.859   9.667  17.932  0.00  0.00    +0.000 A 
ATOM     14  C   UNL     1       1.879   8.706  17.905  0.00  0.00    +0.000 A 
ATOM     15  C   UNL     1       2.256   8.013  19.056  0.00  0.00    +0.000 A 
ATOM     16  C   UNL     1       1.569   8.292  20.242  0.00  0.00    +0.000 A 
ATOM     17  C   UNL     1       0.557   9.273  20.277  0.00  0.00    +0.000 A 
BRANCH  12  19
ATOM     18  C   UNL     1      -2.154  10.589  18.349  0.00  0.00    +0.000 C 
ATOM     19  C   UNL     1      -0.901  11.038  19.106  0.00  0.00    +0.000 C 
ATOM     20  C   UNL     1      -1.263  11.509  20.517  0.00  0.00    +0.000 C 
ENDBRANCH  12  19
ENDBRANCH   8  15
ENDBRANCH   1   9
BRANCH   1  21
ATOM     21  C   UNL     1       5.714   5.323  18.786  0.00  0.00    +0.000 C 
BRANCH  21  22
ATOM     22  C   UNL     1       6.805   4.664  17.953  0.00  0.00    +0.000 C 
ATOM     23  O   UNL     1       7.900   4.368  18.421  0.00  0.00    +0.000 OA
BRANCH  22  24
ATOM     24  C   UNL     1       6.533   4.452  16.483  0.00  0.00    +0.000 A 
ATOM     25  C   UNL     1       5.423   3.729  16.023  0.00  0.00    +0.000 A 
ATOM     26  C   UNL     1       5.211   3.528  14.653  0.00  0.00    +0.000 A 
ATOM     27  C   UNL     1       6.094   4.053  13.702  0.00  0.00    +0.000 A 
ATOM     28  C   UNL     1       7.188   4.803  14.159  0.00  0.00    +0.000 A 
ATOM     29  C   UNL     1       7.405   4.999  15.533  0.00  0.00    +0.000 A 
BRANCH  27  30
ATOM     30  C   UNL     1       5.850   3.788  12.222  0.00  0.00    +0.000 C 
ATOM     31  C   UNL     1       6.875   2.816  11.632  0.00  0.00    +0.000 C 
ATOM     32  C   UNL     1       4.425   3.297  11.960  0.00  0.00    +0.000 C 
ENDBRANCH  27  30
ENDBRANCH  22  24
ENDBRANCH  21  22
ENDBRANCH   1  21
TORSDOF 8
ENDMDL
MODEL 3
REMARK VINA RESULT:      -8.0      0.904      1.378
REMARK  Name = 
REMARK  12 active torsions:
REMARK  status: ('A' for Active; 'I' for Inactive)
REMARK    1  A    between atoms: C_1  and  C_2
REMARK    2  A    between atoms: C_2  and  C_3
REMARK    3  A    between atoms: C_2  and  C_4
REMARK    4  A    between atoms: C_7  and  N_8
REMARK    5  A    between atoms: C_9  and  C_11
REMARK    6  A    between atoms: C_11  and  C_12
REMARK    7  A    between atoms: C_11  and  N_24
REMARK    8  A    between atoms: C_12  and  C_13
REMARK    9  A    between atoms: C_13  and  C_15
REMARK   10  A    between atoms: C_18  and  C_19
REMARK   11  A    between atoms: C_19  and  C_20
REMARK   12  A    between atoms: C_19  and  C_21
REMARK                            x       y       z     vdW  Elec       q    Type
REMARK                         _______ _______ _______ _____ _____    ______ ____
ROOT
ATOM      1  C   UNL     1       3.353   5.338  18.783  0.00  0.00    +0.000 C 
ENDROOT
BRANCH   1   2
ATOM      2  N   UNL     1       2.477   4.316  19.435  0.00  0.00    +0.000 NA
ATOM      3  C   UNL     1       3.229   3.282  20.188  0.00  0.00    +0.000 C 
ATOM      4  C   UNL     1       4.000   2.292  19.297  0.00  0.00    +0.000 C 
ATOM      5  O   UNL     1       3.109   1.596  18.424  0.00  0.00    +0.000 OA
ATOM      6  C   UNL     1       2.363   2.509  17.608  0.00  0.00    +0.000 C 
ATOM      7  C   UNL     1       1.632   3.581  18.447  0.00  0.00    +0.000 C 
ENDBRANCH   1   2
BRANCH   1   9
ATOM      8  N   UNL     1       2.294   7.094  20.239  0.00  0.00    +0.000 N 
ATOM      9  C   UNL     1       2.806   6.777  18.993  0.00  0.00    +0.000 C 
ATOM     10  O   UNL     1       2.837   7.555  18.033  0.00  0.00    +0.000 OA
ATOM     11  H   UNL     1       2.536   6.466  21.012  0.00  0.00    +0.000 HD
BRANCH   8  15
ATOM     12  C   UNL     1       0.021  10.572  21.235  0.00  0.00    +0.000 A 
ATOM     13  C   UNL     1       0.323  10.271  19.902  0.00  0.00    +0.000 A 
ATOM     14  C   UNL     1       1.075   9.136  19.568  0.00  0.00    +0.000 A 
ATOM     15  C   UNL     1       1.543   8.260  20.548  0.00  0.00    +0.000 A 
ATOM     16  C   UNL     1       1.221   8.536  21.881  0.00  0.00    +0.000 A 
ATOM     17  C   UNL     1       0.482   9.688  22.221  0.00  0.00    +0.000 A 
BRANCH  12  19
ATOM     18  C   UNL     1      -1.536  11.719  22.880  0.00  0.00    +0.000 C 
ATOM     19  C   UNL     1      -0.783  11.824  21.552  0.00  0.00    +0.000 C 
ATOM     20  C   UNL     1       0.083  13.087  21.521  0.00  0.00    +0.000 C 
ENDBRANCH  12  19
ENDBRANCH   8  15
ENDBRANCH   1   9
BRANCH   1  21
ATOM     21  C   UNL     1       4.874   5.231  19.001  0.00  0.00    +0.000 C 
BRANCH  21  22
ATOM     22  C   UNL     1       5.817   5.872  17.991  0.00  0.00    +0.000 C 
ATOM     23  O   UNL     1       6.421   6.913  18.226  0.00  0.00    +0.000 OA
BRANCH  22  24
ATOM     24  C   UNL     1       5.933   5.225  16.631  0.00  0.00    +0.000 A 
ATOM     25  C   UNL     1       7.088   5.338  15.845  0.00  0.00    +0.000 A 
ATOM     26  C   UNL     1       7.155   4.747  14.576  0.00  0.00    +0.000 A 
ATOM     27  C   UNL     1       6.077   4.018  14.061  0.00  0.00    +0.000 A 
ATOM     28  C   UNL     1       4.933   3.879  14.860  0.00  0.00    +0.000 A 
ATOM     29  C   UNL     1       4.861   4.476  16.130  0.00  0.00    +0.000 A 
BRANCH  27  30
ATOM     30  C   UNL     1       6.173   3.416  12.665  0.00  0.00    +0.000 C 
ATOM     31  C   UNL     1       4.816   3.373  11.959  0.00  0.00    +0.000 C 
ATOM     32  C   UNL     1       7.209   4.142  11.804  0.00  0.00    +0.000 C 
ENDBRANCH  27  30
ENDBRANCH  22  24
ENDBRANCH  21  22
ENDBRANCH   1  21
TORSDOF 8
ENDMDL
MODEL 4
REMARK VINA RESULT:      -8.0      0.689      1.096
REMARK  Name = 
REMARK  12 active torsions:
REMARK  status: ('A' for Active; 'I' for Inactive)
REMARK    1  A    between atoms: C_1  and  C_2
REMARK    2  A    between atoms: C_2  and  C_3
REMARK    3  A    between atoms: C_2  and  C_4
REMARK    4  A    between atoms: C_7  and  N_8
REMARK    5  A    between atoms: C_9  and  C_11
REMARK    6  A    between atoms: C_11  and  C_12
REMARK    7  A    between atoms: C_11  and  N_24
REMARK    8  A    between atoms: C_12  and  C_13
REMARK    9  A    between atoms: C_13  and  C_15
REMARK   10  A    between atoms: C_18  and  C_19
REMARK   11  A    between atoms: C_19  and  C_20
REMARK   12  A    between atoms: C_19  and  C_21
REMARK                            x       y       z     vdW  Elec       q    Type
REMARK                         _______ _______ _______ _____ _____    ______ ____
ROOT
ATOM      1  C   UNL     1       3.837   4.883  18.956  0.00  0.00    +0.000 C 
ENDROOT
BRANCH   1   2
ATOM      2  N   UNL     1       3.263   3.952  19.976  0.00  0.00    +0.000 NA
ATOM      3  C   UNL     1       3.905   2.614  19.987  0.00  0.00    +0.000 C 
ATOM      4  C   UNL     1       3.566   1.744  18.764  0.00  0.00    +0.000 C 
ATOM      5  O   UNL     1       2.157   1.522  18.674  0.00  0.00    +0.000 OA
ATOM      6  C   UNL     1       1.440   2.762  18.606  0.00  0.00    +0.000 C 
ATOM      7  C   UNL     1       1.804   3.714  19.768  0.00  0.00    +0.000 C 
ENDBRANCH   1   2
BRANCH   1   9
ATOM      8  N   UNL     1       2.911   7.165  19.458  0.00  0.00    +0.000 N 
ATOM      9  C   UNL     1       2.866   6.052  18.638  0.00  0.00    +0.000 C 
ATOM     10  O   UNL     1       2.090   5.919  17.685  0.00  0.00    +0.000 OA
ATOM     11  H   UNL     1       3.739   7.268  20.053  0.00  0.00    +0.000 HD
BRANCH   8  15
ATOM     12  C   UNL     1       0.003  10.294  19.566  0.00  0.00    +0.000 A 
ATOM     13  C   UNL     1       0.740  10.041  18.404  0.00  0.00    +0.000 A 
ATOM     14  C   UNL     1       1.701   9.021  18.364  0.00  0.00    +0.000 A 
ATOM     15  C   UNL     1       1.954   8.216  19.475  0.00  0.00    +0.000 A 
ATOM     16  C   UNL     1       1.201   8.441  20.632  0.00  0.00    +0.000 A 
ATOM     17  C   UNL     1       0.248   9.479  20.682  0.00  0.00    +0.000 A 
BRANCH  12  19
ATOM     18  C   UNL     1      -2.238  11.114  18.699  0.00  0.00    +0.000 C 
ATOM     19  C   UNL     1      -1.018  11.422  19.570  0.00  0.00    +0.000 C 
ATOM     20  C   UNL     1      -1.449  11.802  20.989  0.00  0.00    +0.000 C 
ENDBRANCH  12  19
ENDBRANCH   8  15
ENDBRANCH   1   9
BRANCH   1  21
ATOM     21  C   UNL     1       5.297   5.340  19.135  0.00  0.00    +0.000 C 
BRANCH  21  22
ATOM     22  C   UNL     1       6.009   6.028  17.978  0.00  0.00    +0.000 C 
ATOM     23  O   UNL     1       6.532   7.132  18.092  0.00  0.00    +0.000 OA
BRANCH  22  24
ATOM     24  C   UNL     1       5.986   5.341  16.633  0.00  0.00    +0.000 A 
ATOM     25  C   UNL     1       6.664   4.137  16.395  0.00  0.00    +0.000 A 
ATOM     26  C   UNL     1       6.643   3.538  15.128  0.00  0.00    +0.000 A 
ATOM     27  C   UNL     1       5.937   4.115  14.067  0.00  0.00    +0.000 A 
ATOM     28  C   UNL     1       5.232   5.304  14.313  0.00  0.00    +0.000 A 
ATOM     29  C   UNL     1       5.257   5.909  15.580  0.00  0.00    +0.000 A 
BRANCH  27  30
ATOM     30  C   UNL     1       5.962   3.453  12.697  0.00  0.00    +0.000 C 
ATOM     31  C   UNL     1       4.627   3.594  11.961  0.00  0.00    +0.000 C 
ATOM     32  C   UNL     1       7.113   3.977  11.834  0.00  0.00    +0.000 C 
ENDBRANCH  27  30
ENDBRANCH  22  24
ENDBRANCH  21  22
ENDBRANCH   1  21
TORSDOF 8
ENDMDL
MODEL 5
REMARK VINA RESULT:      -8.0      0.675      1.092
REMARK  Name = 
REMARK  12 active torsions:
REMARK  status: ('A' for Active; 'I' for Inactive)
REMARK    1  A    between atoms: C_1  and  C_2
REMARK    2  A    between atoms: C_2  and  C_3
REMARK    3  A    between atoms: C_2  and  C_4
REMARK    4  A    between atoms: C_7  and  N_8
REMARK    5  A    between atoms: C_9  and  C_11
REMARK    6  A    between atoms: C_11  and  C_12
REMARK    7  A    between atoms: C_11  and  N_24
REMARK    8  A    between atoms: C_12  and  C_13
REMARK    9  A    between atoms: C_13  and  C_15
REMARK   10  A    between atoms: C_18  and  C_19
REMARK   11  A    between atoms: C_19  and  C_20
REMARK   12  A    between atoms: C_19  and  C_21
REMARK                            x       y       z     vdW  Elec       q    Type
REMARK                         _______ _______ _______ _____ _____    ______ ____
ROOT
ATOM      1  C   UNL     1       3.689   5.201  18.968  0.00  0.00    +0.000 C 
ENDROOT
BRANCH   1   2
ATOM      2  N   UNL     1       3.063   4.175  19.858  0.00  0.00    +0.000 NA
ATOM      3  C   UNL     1       3.749   2.860  19.825  0.00  0.00    +0.000 C 
ATOM      4  C   UNL     1       3.550   2.081  18.513  0.00  0.00    +0.000 C 
ATOM      5  O   UNL     1       2.163   1.825  18.280  0.00  0.00    +0.000 OA
ATOM      6  C   UNL     1       1.410   3.045  18.243  0.00  0.00    +0.000 C 
ATOM      7  C   UNL     1       1.636   3.912  19.502  0.00  0.00    +0.000 C 
ENDBRANCH   1   2
BRANCH   1   9
ATOM      8  N   UNL     1       2.581   7.141  20.120  0.00  0.00    +0.000 N 
ATOM      9  C   UNL     1       2.850   6.507  18.921  0.00  0.00    +0.000 C 
ATOM     10  O   UNL     1       2.448   6.899  17.819  0.00  0.00    +0.000 OA
ATOM     11  H   UNL     1       3.154   6.869  20.926  0.00  0.00    +0.000 HD
BRANCH   8  15
ATOM     12  C   UNL     1      -0.203  10.344  20.615  0.00  0.00    +0.000 A 
ATOM     13  C   UNL     1       0.035   9.436  21.652  0.00  0.00    +0.000 A 
ATOM     14  C   UNL     1       0.941   8.378  21.494  0.00  0.00    +0.000 A 
ATOM     15  C   UNL     1       1.645   8.195  20.303  0.00  0.00    +0.000 A 
ATOM     16  C   UNL     1       1.436   9.115  19.271  0.00  0.00    +0.000 A 
ATOM     17  C   UNL     1       0.510  10.168  19.420  0.00  0.00    +0.000 A 
BRANCH  12  19
ATOM     18  C   UNL     1      -1.011  12.192  22.158  0.00  0.00    +0.000 C 
ATOM     19  C   UNL     1      -1.208  11.467  20.824  0.00  0.00    +0.000 C 
ATOM     20  C   UNL     1      -1.206  12.465  19.663  0.00  0.00    +0.000 C 
ENDBRANCH  12  19
ENDBRANCH   8  15
ENDBRANCH   1   9
BRANCH   1  21
ATOM     21  C   UNL     1       5.201   5.458  19.114  0.00  0.00    +0.000 C 
BRANCH  21  22
ATOM     22  C   UNL     1       5.948   6.162  17.989  0.00  0.00    +0.000 C 
ATOM     23  O   UNL     1       6.462   7.266  18.133  0.00  0.00    +0.000 OA
BRANCH  22  24
ATOM     24  C   UNL     1       5.974   5.489  16.637  0.00  0.00    +0.000 A 
ATOM     25  C   UNL     1       5.194   5.939  15.562  0.00  0.00    +0.000 A 
ATOM     26  C   UNL     1       5.221   5.278  14.326  0.00  0.00    +0.000 A 
ATOM     27  C   UNL     1       6.036   4.159  14.124  0.00  0.00    +0.000 A 
ATOM     28  C   UNL     1       6.841   3.727  15.190  0.00  0.00    +0.000 A 
ATOM     29  C   UNL     1       6.809   4.384  16.431  0.00  0.00    +0.000 A 
BRANCH  27  30
ATOM     30  C   UNL     1       6.016   3.446  12.779  0.00  0.00    +0.000 C 
ATOM     31  C   UNL     1       4.648   3.532  12.098  0.00  0.00    +0.000 C 
ATOM     32  C   UNL     1       7.117   3.961  11.848  0.00  0.00    +0.000 C 
ENDBRANCH  27  30
ENDBRANCH  22  24
ENDBRANCH  21  22
ENDBRANCH   1  21
TORSDOF 8
ENDMDL
MODEL 6
REMARK VINA RESULT:      -7.8      0.950      1.429
REMARK  Name = 
REMARK  12 active torsions:
REMARK  status: ('A' for Active; 'I' for Inactive)
REMARK    1  A    between atoms: C_1  and  C_2
REMARK    2  A    between atoms: C_2  and  C_3
REMARK    3  A    between atoms: C_2  and  C_4
REMARK    4  A    between atoms: C_7  and  N_8
REMARK    5  A    between atoms: C_9  and  C_11
REMARK    6  A    between atoms: C_11  and  C_12
REMARK    7  A    between atoms: C_11  and  N_24
REMARK    8  A    between atoms: C_12  and  C_13
REMARK    9  A    between atoms: C_13  and  C_15
REMARK   10  A    between atoms: C_18  and  C_19
REMARK   11  A    between atoms: C_19  and  C_20
REMARK   12  A    between atoms: C_19  and  C_21
REMARK                            x       y       z     vdW  Elec       q    Type
REMARK                         _______ _______ _______ _____ _____    ______ ____
ROOT
ATOM      1  C   UNL     1       3.600   5.398  18.824  0.00  0.00    +0.000 C 
ENDROOT
BRANCH   1   2
ATOM      2  N   UNL     1       3.375   4.455  19.963  0.00  0.00    +0.000 NA
ATOM      3  C   UNL     1       3.948   3.105  19.738  0.00  0.00    +0.000 C 
ATOM      4  C   UNL     1       3.197   2.271  18.684  0.00  0.00    +0.000 C 
ATOM      5  O   UNL     1       1.834   2.079  19.066  0.00  0.00    +0.000 OA
ATOM      6  C   UNL     1       1.168   3.334  19.261  0.00  0.00    +0.000 C 
ATOM      7  C   UNL     1       1.923   4.250  20.250  0.00  0.00    +0.000 C 
ENDBRANCH   1   2
BRANCH   1   9
ATOM      8  N   UNL     1       2.603   7.394  19.984  0.00  0.00    +0.000 N 
ATOM      9  C   UNL     1       2.601   6.587  18.861  0.00  0.00    +0.000 C 
ATOM     10  O   UNL     1       1.843   6.737  17.896  0.00  0.00    +0.000 OA
ATOM     11  H   UNL     1       3.420   7.326  20.600  0.00  0.00    +0.000 HD
BRANCH   8  15
ATOM     12  C   UNL     1      -0.384  10.277  20.994  0.00  0.00    +0.000 A 
ATOM     13  C   UNL     1       0.231  10.294  19.737  0.00  0.00    +0.000 A 
ATOM     14  C   UNL     1       1.219   9.356  19.402  0.00  0.00    +0.000 A 
ATOM     15  C   UNL     1       1.617   8.367  20.302  0.00  0.00    +0.000 A 
ATOM     16  C   UNL     1       0.986   8.324  21.549  0.00  0.00    +0.000 A 
ATOM     17  C   UNL     1       0.009   9.278  21.897  0.00  0.00    +0.000 A 
BRANCH  12  19
ATOM     18  C   UNL     1      -1.447  11.708  22.802  0.00  0.00    +0.000 C 
ATOM     19  C   UNL     1      -1.438  11.325  21.320  0.00  0.00    +0.000 C 
ATOM     20  C   UNL     1      -1.299  12.572  20.442  0.00  0.00    +0.000 C 
ENDBRANCH  12  19
ENDBRANCH   8  15
ENDBRANCH   1   9
BRANCH   1  21
ATOM     21  C   UNL     1       5.047   5.832  18.521  0.00  0.00    +0.000 C 
BRANCH  21  22
ATOM     22  C   UNL     1       6.035   4.803  17.988  0.00  0.00    +0.000 C 
ATOM     23  O   UNL     1       6.858   4.248  18.709  0.00  0.00    +0.000 OA
BRANCH  22  24
ATOM     24  C   UNL     1       6.034   4.534  16.502  0.00  0.00    +0.000 A 
ATOM     25  C   UNL     1       7.134   4.833  15.686  0.00  0.00    +0.000 A 
ATOM     26  C   UNL     1       7.093   4.594  14.305  0.00  0.00    +0.000 A 
ATOM     27  C   UNL     1       5.958   4.040  13.703  0.00  0.00    +0.000 A 
ATOM     28  C   UNL     1       4.868   3.712  14.523  0.00  0.00    +0.000 A 
ATOM     29  C   UNL     1       4.906   3.956  15.906  0.00  0.00    +0.000 A 
BRANCH  27  30
ATOM     30  C   UNL     1       5.936   3.824  12.196  0.00  0.00    +0.000 C 
ATOM     31  C   UNL     1       7.105   2.959  11.718  0.00  0.00    +0.000 C 
ATOM     32  C   UNL     1       4.602   3.239  11.726  0.00  0.00    +0.000 C 
ENDBRANCH  27  30
ENDBRANCH  22  24
ENDBRANCH  21  22
ENDBRANCH   1  21
TORSDOF 8
ENDMDL
MODEL 7
REMARK VINA RESULT:      -7.7      1.084      1.557
REMARK  Name = 
REMARK  12 active torsions:
REMARK  status: ('A' for Active; 'I' for Inactive)
REMARK    1  A    between atoms: C_1  and  C_2
REMARK    2  A    between atoms: C_2  and  C_3
REMARK    3  A    between atoms: C_2  and  C_4
REMARK    4  A    between atoms: C_7  and  N_8
REMARK    5  A    between atoms: C_9  and  C_11
REMARK    6  A    between atoms: C_11  and  C_12
REMARK    7  A    between atoms: C_11  and  N_24
REMARK    8  A    between atoms: C_12  and  C_13
REMARK    9  A    between atoms: C_13  and  C_15
REMARK   10  A    between atoms: C_18  and  C_19
REMARK   11  A    between atoms: C_19  and  C_20
REMARK   12  A    between atoms: C_19  and  C_21
REMARK                            x       y       z     vdW  Elec       q    Type
REMARK                         _______ _______ _______ _____ _____    ______ ____
ROOT
ATOM      1  C   UNL     1       4.376   4.866  18.360  0.00  0.00    +0.000 C 
ENDROOT
BRANCH   1   2
ATOM      2  N   UNL     1       3.685   4.037  19.396  0.00  0.00    +0.000 NA
ATOM      3  C   UNL     1       4.157   2.631  19.444  0.00  0.00    +0.000 C 
ATOM      4  C   UNL     1       3.723   1.780  18.238  0.00  0.00    +0.000 C 
ATOM      5  O   UNL     1       2.298   1.730  18.139  0.00  0.00    +0.000 OA
ATOM      6  C   UNL     1       1.739   3.047  18.035  0.00  0.00    +0.000 C 
ATOM      7  C   UNL     1       2.209   3.974  19.179  0.00  0.00    +0.000 C 
ENDBRANCH   1   2
BRANCH   1   9
ATOM      8  N   UNL     1       2.939   6.702  19.301  0.00  0.00    +0.000 N 
ATOM      9  C   UNL     1       3.770   6.294  18.274  0.00  0.00    +0.000 C 
ATOM     10  O   UNL     1       4.045   6.980  17.283  0.00  0.00    +0.000 OA
ATOM     11  H   UNL     1       2.976   6.158  20.169  0.00  0.00    +0.000 HD
BRANCH   8  15
ATOM     12  C   UNL     1       0.432  10.162  19.310  0.00  0.00    +0.000 A 
ATOM     13  C   UNL     1       1.023   9.709  18.126  0.00  0.00    +0.000 A 
ATOM     14  C   UNL     1       1.854   8.580  18.116  0.00  0.00    +0.000 A 
ATOM     15  C   UNL     1       2.115   7.860  19.283  0.00  0.00    +0.000 A 
ATOM     16  C   UNL     1       1.504   8.286  20.466  0.00  0.00    +0.000 A 
ATOM     17  C   UNL     1       0.685   9.434  20.483  0.00  0.00    +0.000 A 
BRANCH  12  19
ATOM     18  C   UNL     1      -1.075  11.717  20.637  0.00  0.00    +0.000 C 
ATOM     19  C   UNL     1      -0.448  11.402  19.276  0.00  0.00    +0.000 C 
ATOM     20  C   UNL     1       0.300  12.622  18.731  0.00  0.00    +0.000 C 
ENDBRANCH  12  19
ENDBRANCH   8  15
ENDBRANCH   1   9
BRANCH   1  21
ATOM     21  C   UNL     1       5.916   4.859  18.339  0.00  0.00    +0.000 C 
BRANCH  21  22
ATOM     22  C   UNL     1       6.647   5.499  17.166  0.00  0.00    +0.000 C 
ATOM     23  O   UNL     1       7.346   6.498  17.294  0.00  0.00    +0.000 OA
BRANCH  22  24
ATOM     24  C   UNL     1       6.421   4.909  15.794  0.00  0.00    +0.000 A 
ATOM     25  C   UNL     1       7.342   5.071  14.748  0.00  0.00    +0.000 A 
ATOM     26  C   UNL     1       7.091   4.533  13.479  0.00  0.00    +0.000 A 
ATOM     27  C   UNL     1       5.922   3.809  13.219  0.00  0.00    +0.000 A 
ATOM     28  C   UNL     1       5.015   3.620  14.273  0.00  0.00    +0.000 A 
ATOM     29  C   UNL     1       5.261   4.165  15.545  0.00  0.00    +0.000 A 
BRANCH  27  30
ATOM     30  C   UNL     1       5.667   3.266  11.820  0.00  0.00    +0.000 C 
ATOM     31  C   UNL     1       6.269   1.873  11.622  0.00  0.00    +0.000 C 
ATOM     32  C   UNL     1       4.177   3.266  11.473  0.00  0.00    +0.000 C 
ENDBRANCH  27  30
ENDBRANCH  22  24
ENDBRANCH  21  22
ENDBRANCH   1  21
TORSDOF 8
ENDMDL
MODEL 8
REMARK VINA RESULT:      -7.7      1.168      1.626
REMARK  Name = 
REMARK  12 active torsions:
REMARK  status: ('A' for Active; 'I' for Inactive)
REMARK    1  A    between atoms: C_1  and  C_2
REMARK    2  A    between atoms: C_2  and  C_3
REMARK    3  A    between atoms: C_2  and  C_4
REMARK    4  A    between atoms: C_7  and  N_8
REMARK    5  A    between atoms: C_9  and  C_11
REMARK    6  A    between atoms: C_11  and  C_12
REMARK    7  A    between atoms: C_11  and  N_24
REMARK    8  A    between atoms: C_12  and  C_13
REMARK    9  A    between atoms: C_13  and  C_15
REMARK   10  A    between atoms: C_18  and  C_19
REMARK   11  A    between atoms: C_19  and  C_20
REMARK   12  A    between atoms: C_19  and  C_21
REMARK                            x       y       z     vdW  Elec       q    Type
REMARK                         _______ _______ _______ _____ _____    ______ ____
ROOT
ATOM      1  C   UNL     1       3.155   5.303  19.374  0.00  0.00    +0.000 C 
ENDROOT
BRANCH   1   2
ATOM      2  N   UNL     1       2.531   4.353  20.346  0.00  0.00    +0.000 NA
ATOM      3  C   UNL     1       3.159   3.008  20.349  0.00  0.00    +0.000 C 
ATOM      4  C   UNL     1       2.862   2.173  19.091  0.00  0.00    +0.000 C 
ATOM      5  O   UNL     1       1.456   1.968  18.938  0.00  0.00    +0.000 OA
ATOM      6  C   UNL     1       0.754   3.216  18.872  0.00  0.00    +0.000 C 
ATOM      7  C   UNL     1       1.079   4.135  20.072  0.00  0.00    +0.000 C 
ENDBRANCH   1   2
BRANCH   1   9
ATOM      8  N   UNL     1       2.179   7.332  20.491  0.00  0.00    +0.000 N 
ATOM      9  C   UNL     1       2.377   6.646  19.307  0.00  0.00    +0.000 C 
ATOM     10  O   UNL     1       1.958   7.019  18.205  0.00  0.00    +0.000 OA
ATOM     11  H   UNL     1       2.765   7.061  21.287  0.00  0.00    +0.000 HD
BRANCH   8  15
ATOM     12  C   UNL     1      -0.430  10.683  20.962  0.00  0.00    +0.000 A 
ATOM     13  C   UNL     1      -0.246   9.767  22.004  0.00  0.00    +0.000 A 
ATOM     14  C   UNL     1       0.601   8.660  21.854  0.00  0.00    +0.000 A 
ATOM     15  C   UNL     1       1.300   8.436  20.667  0.00  0.00    +0.000 A 
ATOM     16  C   UNL     1       1.146   9.363  19.631  0.00  0.00    +0.000 A 
ATOM     17  C   UNL     1       0.278  10.465  19.771  0.00  0.00    +0.000 A 
BRANCH  12  19
ATOM     18  C   UNL     1      -1.050  12.664  22.425  0.00  0.00    +0.000 C 
ATOM     19  C   UNL     1      -1.374  11.859  21.164  0.00  0.00    +0.000 C 
ATOM     20  C   UNL     1      -1.422  12.774  19.937  0.00  0.00    +0.000 C 
ENDBRANCH  12  19
ENDBRANCH   8  15
ENDBRANCH   1   9
BRANCH   1  21
ATOM     21  C   UNL     1       4.683   5.490  19.427  0.00  0.00    +0.000 C 
BRANCH  21  22
ATOM     22  C   UNL     1       5.584   4.439  18.790  0.00  0.00    +0.000 C 
ATOM     23  O   UNL     1       6.169   3.588  19.453  0.00  0.00    +0.000 OA
BRANCH  22  24
ATOM     24  C   UNL     1       5.809   4.519  17.299  0.00  0.00    +0.000 A 
ATOM     25  C   UNL     1       4.828   4.142  16.372  0.00  0.00    +0.000 A 
ATOM     26  C   UNL     1       5.077   4.204  14.994  0.00  0.00    +0.000 A 
ATOM     27  C   UNL     1       6.307   4.655  14.503  0.00  0.00    +0.000 A 
ATOM     28  C   UNL     1       7.278   5.063  15.429  0.00  0.00    +0.000 A 
ATOM     29  C   UNL     1       7.033   4.995  16.811  0.00  0.00    +0.000 A 
BRANCH  27  30
ATOM     30  C   UNL     1       6.554   4.680  13.001  0.00  0.00    +0.000 C 
ATOM     31  C   UNL     1       7.955   5.189  12.653  0.00  0.00    +0.000 C 
ATOM     32  C   UNL     1       6.301   3.313  12.361  0.00  0.00    +0.000 C 
ENDBRANCH  27  30
ENDBRANCH  22  24
ENDBRANCH  21  22
ENDBRANCH   1  21
TORSDOF 8
ENDMDL
MODEL 9
REMARK VINA RESULT:      -7.6      1.307      1.910
REMARK  Name = 
REMARK  12 active torsions:
REMARK  status: ('A' for Active; 'I' for Inactive)
REMARK    1  A    between atoms: C_1  and  C_2
REMARK    2  A    between atoms: C_2  and  C_3
REMARK    3  A    between atoms: C_2  and  C_4
REMARK    4  A    between atoms: C_7  and  N_8
REMARK    5  A    between atoms: C_9  and  C_11
REMARK    6  A    between atoms: C_11  and  C_12
REMARK    7  A    between atoms: C_11  and  N_24
REMARK    8  A    between atoms: C_12  and  C_13
REMARK    9  A    between atoms: C_13  and  C_15
REMARK   10  A    between atoms: C_18  and  C_19
REMARK   11  A    between atoms: C_19  and  C_20
REMARK   12  A    between atoms: C_19  and  C_21
REMARK                            x       y       z     vdW  Elec       q    Type
REMARK                         _______ _______ _______ _____ _____    ______ ____
ROOT
ATOM      1  C   UNL     1       3.032   5.631  18.571  0.00  0.00    +0.000 C 
ENDROOT
BRANCH   1   2
ATOM      2  N   UNL     1       1.932   4.643  18.346  0.00  0.00    +0.000 NA
ATOM      3  C   UNL     1       1.424   4.025  19.595  0.00  0.00    +0.000 C 
ATOM      4  C   UNL     1       2.402   3.034  20.250  0.00  0.00    +0.000 C 
ATOM      5  O   UNL     1       2.709   1.960  19.358  0.00  0.00    +0.000 OA
ATOM      6  C   UNL     1       3.259   2.449  18.127  0.00  0.00    +0.000 C 
ATOM      7  C   UNL     1       2.356   3.514  17.464  0.00  0.00    +0.000 C 
ENDBRANCH   1   2
BRANCH   1   9
ATOM      8  N   UNL     1       2.093   7.350  20.146  0.00  0.00    +0.000 N 
ATOM      9  C   UNL     1       2.475   7.053  18.850  0.00  0.00    +0.000 C 
ATOM     10  O   UNL     1       2.382   7.837  17.898  0.00  0.00    +0.000 OA
ATOM     11  H   UNL     1       2.433   6.725  20.883  0.00  0.00    +0.000 HD
BRANCH   8  15
ATOM     12  C   UNL     1      -0.155  10.759  21.406  0.00  0.00    +0.000 A 
ATOM     13  C   UNL     1       0.123  10.545  20.051  0.00  0.00    +0.000 A 
ATOM     14  C   UNL     1       0.867   9.434  19.631  0.00  0.00    +0.000 A 
ATOM     15  C   UNL     1       1.349   8.495  20.544  0.00  0.00    +0.000 A 
ATOM     16  C   UNL     1       1.051   8.683  21.897  0.00  0.00    +0.000 A 
ATOM     17  C   UNL     1       0.321   9.811  22.324  0.00  0.00    +0.000 A 
BRANCH  12  19
ATOM     18  C   UNL     1      -1.984  12.400  20.766  0.00  0.00    +0.000 C 
ATOM     19  C   UNL     1      -0.951  11.988  21.818  0.00  0.00    +0.000 C 
ATOM     20  C   UNL     1      -1.614  11.811  23.186  0.00  0.00    +0.000 C 
ENDBRANCH  12  19
ENDBRANCH   8  15
ENDBRANCH   1   9
BRANCH   1  21
ATOM     21  C   UNL     1       4.178   5.232  19.520  0.00  0.00    +0.000 C 
BRANCH  21  22
ATOM     22  C   UNL     1       5.610   5.235  19.000  0.00  0.00    +0.000 C 
ATOM     23  O   UNL     1       6.576   5.400  19.738  0.00  0.00    +0.000 OA
BRANCH  22  24
ATOM     24  C   UNL     1       5.815   5.108  17.509  0.00  0.00    +0.000 A 
ATOM     25  C   UNL     1       6.264   3.921  16.913  0.00  0.00    +0.000 A 
ATOM     26  C   UNL     1       6.468   3.843  15.529  0.00  0.00    +0.000 A 
ATOM     27  C   UNL     1       6.219   4.942  14.699  0.00  0.00    +0.000 A 
ATOM     28  C   UNL     1       5.739   6.120  15.291  0.00  0.00    +0.000 A 
ATOM     29  C   UNL     1       5.540   6.203  16.679  0.00  0.00    +0.000 A 
BRANCH  27  30
ATOM     30  C   UNL     1       6.482   4.831  13.204  0.00  0.00    +0.000 C 
ATOM     31  C   UNL     1       7.899   5.273  12.831  0.00  0.00    +0.000 C 
ATOM     32  C   UNL     1       6.199   3.421  12.681  0.00  0.00    +0.000 C 
ENDBRANCH  27  30
ENDBRANCH  22  24
ENDBRANCH  21  22
ENDBRANCH   1  21
TORSDOF 8
ENDMDL
