MODEL 1
REMARK VINA RESULT:      -7.9      0.000      0.000
REMARK  Name = 
REMARK  11 active torsions:
REMARK  status: ('A' for Active; 'I' for Inactive)
REMARK    1  A    between atoms: C_1  and  C_2
REMARK    2  A    between atoms: C_2  and  N_3
REMARK    3  A    between atoms: N_3  and  C_4
REMARK    4  A    between atoms: C_4  and  C_5
REMARK    5  A    between atoms: N_7  and  C_8
REMARK    6  A    between atoms: C_13  and  O_14
REMARK    7  A    between atoms: O_14  and  C_15
REMARK    8  A    between atoms: C_16  and  C_18
REMARK    9  A    between atoms: C_18  and  N_19
REMARK   10  A    between atoms: C_23  and  C_24
REMARK   11  A    between atoms: C_23  and  C_25
REMARK                            x       y       z     vdW  Elec       q    Type
REMARK                         _______ _______ _______ _____ _____    ______ ____
ROOT
ATOM      1  C   UNL     1       3.230  13.758  20.338  0.00  0.00    +0.000 C 
ENDROOT
BRANCH   1   2
ATOM      2  N   UNL     1       2.025  12.931  20.138  0.00  0.00    +0.000 N 
ATOM      3  C   UNL     1       0.974  12.753  21.003  0.00  0.00    +0.000 C 
ATOM      4  O   UNL     1       0.554  13.529  21.844  0.00  0.00    +0.000 OA
ATOM      5  N   UNL     1       0.457  11.478  20.705  0.00  0.00    +0.000 N 
ATOM      6  C   UNL     1       0.769  11.101  19.323  0.00  0.00    +0.000 C 
ATOM      7  C   UNL     1      -0.568  11.311  18.552  0.00  0.00    +0.000 C 
ATOM      8  C   UNL     1       1.758  12.215  19.003  0.00  0.00    +0.000 C 
ATOM      9  O   UNL     1       2.224  12.386  17.891  0.00  0.00    +0.000 OA
ATOM     10  H   UNL     1      -0.092  10.957  21.389  0.00  0.00    +0.000 HD
BRANCH   6  11
ATOM     11  C   UNL     1       1.347   9.688  19.191  0.00  0.00    +0.000 A 
ATOM     12  C   UNL     1       1.212   8.846  20.325  0.00  0.00    +0.000 A 
ATOM     13  C   UNL     1       1.769   7.578  20.439  0.00  0.00    +0.000 A 
ATOM     14  C   UNL     1       2.374   7.076  19.293  0.00  0.00    +0.000 A 
ATOM     15  C   UNL     1       2.457   5.696  19.207  0.00  0.00    +0.000 A 
ATOM     16  C   UNL     1       2.900   5.036  18.040  0.00  0.00    +0.000 A 
ATOM     17  C   UNL     1       3.983   5.486  17.337  0.00  0.00    +0.000 A 
ATOM     18  C   UNL     1       3.622   6.871  17.238  0.00  0.00    +0.000 A 
ATOM     19  C   UNL     1       2.730   7.787  18.156  0.00  0.00    +0.000 A 
ATOM     20  C   UNL     1       2.159   9.178  18.130  0.00  0.00    +0.000 A 
ENDBRANCH   6  11
ENDBRANCH   1   2
BRANCH   1  22
ATOM     21  N   UNL     1       3.811  15.612  18.611  0.00  0.00    +0.000 N 
ATOM     22  C   UNL     1       3.021  15.160  19.691  0.00  0.00    +0.000 C 
ATOM     23  O   UNL     1       2.124  15.901  20.118  0.00  0.00    +0.000 OA
BRANCH  21  25
ATOM     24  C   UNL     1       2.796  17.063  16.819  0.00  0.00    +0.000 C 
ATOM     25  C   UNL     1       3.388  16.981  18.164  0.00  0.00    +0.000 C 
ENDBRANCH  21  25
BRANCH  21  26
ATOM     26  C   UNL     1       4.939  14.825  17.940  0.00  0.00    +0.000 C 
BRANCH  26  27
ATOM     27  C   UNL     1       6.530  14.779  18.412  0.00  0.00    +0.000 C 
ATOM     28  O   UNL     1       6.991  14.762  19.552  0.00  0.00    +0.000 OA
ATOM     29  N   UNL     1       7.479  14.519  17.456  0.00  0.00    +0.000 N 
ATOM     30  H   UNL     1       7.325  14.728  16.486  0.00  0.00    +0.000 HD
BRANCH  29  31
ATOM     31  C   UNL     1       8.791  14.286  17.961  0.00  0.00    +0.000 A 
ATOM     32  C   UNL     1       9.528  15.400  18.369  0.00  0.00    +0.000 A 
ATOM     33  C   UNL     1      10.821  15.235  18.862  0.00  0.00    +0.000 A 
ATOM     34  C   UNL     1      11.312  13.959  19.134  0.00  0.00    +0.000 A 
ATOM     35  C   UNL     1      10.541  12.834  18.830  0.00  0.00    +0.000 A 
ATOM     36  C   UNL     1       9.282  12.975  18.219  0.00  0.00    +0.000 A 
BRANCH  36  37
ATOM     37  O   UNL     1       8.673  11.764  17.967  0.00  0.00    +0.000 OA
ATOM     38  C   UNL     1       9.196  10.553  18.482  0.00  0.00    +0.000 C 
ENDBRANCH  36  37
ENDBRANCH  29  31
ENDBRANCH  26  27
ENDBRANCH  21  26
ENDBRANCH   1  22
TORSDOF 8
ENDMDL
MODEL 2
REMARK VINA RESULT:      -7.8      1.057      1.825
REMARK  Name = 
REMARK  11 active torsions:
REMARK  status: ('A' for Active; 'I' for Inactive)
REMARK    1  A    between atoms: C_1  and  C_2
REMARK    2  A    between atoms: C_2  and  N_3
REMARK    3  A    between atoms: N_3  and  C_4
REMARK    4  A    between atoms: C_4  and  C_5
REMARK    5  A    between atoms: N_7  and  C_8
REMARK    6  A    between atoms: C_13  and  O_14
REMARK    7  A    between atoms: O_14  and  C_15
REMARK    8  A    between atoms: C_16  and  C_18
REMARK    9  A    between atoms: C_18  and  N_19
REMARK   10  A    between atoms: C_23  and  C_24
REMARK   11  A    between atoms: C_23  and  C_25
REMARK                            x       y       z     vdW  Elec       q    Type
REMARK                         _______ _______ _______ _____ _____    ______ ____
ROOT
ATOM      1  C   UNL     1       2.590  13.581  20.567  0.00  0.00    +0.000 C 
ENDROOT
BRANCH   1   2
ATOM      2  N   UNL     1       1.473  12.637  20.365  0.00  0.00    +0.000 N 
ATOM      3  C   UNL     1       0.450  12.347  21.233  0.00  0.00    +0.000 C 
ATOM      4  O   UNL     1      -0.043  13.071  22.080  0.00  0.00    +0.000 OA
ATOM      5  N   UNL     1       0.063  11.029  20.927  0.00  0.00    +0.000 N 
ATOM      6  C   UNL     1       0.406  10.696  19.541  0.00  0.00    +0.000 C 
ATOM      7  C   UNL     1      -0.950  10.775  18.777  0.00  0.00    +0.000 C 
ATOM      8  C   UNL     1       1.275  11.907  19.225  0.00  0.00    +0.000 C 
ATOM      9  O   UNL     1       1.716  12.132  18.113  0.00  0.00    +0.000 OA
ATOM     10  H   UNL     1      -0.427  10.450  21.609  0.00  0.00    +0.000 HD
BRANCH   6  11
ATOM     11  C   UNL     1       1.123   9.349  19.395  0.00  0.00    +0.000 A 
ATOM     12  C   UNL     1       1.129   8.515  20.542  0.00  0.00    +0.000 A 
ATOM     13  C   UNL     1       1.821   7.314  20.643  0.00  0.00    +0.000 A 
ATOM     14  C   UNL     1       2.424   6.862  19.475  0.00  0.00    +0.000 A 
ATOM     15  C   UNL     1       2.649   5.497  19.398  0.00  0.00    +0.000 A 
ATOM     16  C   UNL     1       3.106   4.871  18.219  0.00  0.00    +0.000 A 
ATOM     17  C   UNL     1       4.103   5.423  17.462  0.00  0.00    +0.000 A 
ATOM     18  C   UNL     1       3.594   6.760  17.366  0.00  0.00    +0.000 A 
ATOM     19  C   UNL     1       2.651   7.590  18.316  0.00  0.00    +0.000 A 
ATOM     20  C   UNL     1       1.936   8.913  18.303  0.00  0.00    +0.000 A 
ENDBRANCH   6  11
ENDBRANCH   1   2
BRANCH   1  22
ATOM     21  N   UNL     1       2.932  15.468  18.812  0.00  0.00    +0.000 N 
ATOM     22  C   UNL     1       2.236  14.959  19.931  0.00  0.00    +0.000 C 
ATOM     23  O   UNL     1       1.305  15.628  20.402  0.00  0.00    +0.000 OA
BRANCH  21  25
ATOM     24  C   UNL     1       2.633  17.181  16.989  0.00  0.00    +0.000 C 
ATOM     25  C   UNL     1       2.379  16.797  18.386  0.00  0.00    +0.000 C 
ENDBRANCH  21  25
BRANCH  21  26
ATOM     26  C   UNL     1       4.085  14.772  18.085  0.00  0.00    +0.000 C 
BRANCH  26  27
ATOM     27  C   UNL     1       5.696  14.856  18.476  0.00  0.00    +0.000 C 
ATOM     28  O   UNL     1       6.211  14.939  19.590  0.00  0.00    +0.000 OA
ATOM     29  N   UNL     1       6.613  14.597  17.489  0.00  0.00    +0.000 N 
ATOM     30  H   UNL     1       6.399  14.735  16.517  0.00  0.00    +0.000 HD
BRANCH  29  31
ATOM     31  C   UNL     1       7.960  14.479  17.938  0.00  0.00    +0.000 A 
ATOM     32  C   UNL     1       8.508  13.194  17.991  0.00  0.00    +0.000 A 
ATOM     33  C   UNL     1       9.817  13.016  18.432  0.00  0.00    +0.000 A 
ATOM     34  C   UNL     1      10.648  14.116  18.633  0.00  0.00    +0.000 A 
ATOM     35  C   UNL     1      10.143  15.410  18.478  0.00  0.00    +0.000 A 
ATOM     36  C   UNL     1       8.791  15.615  18.152  0.00  0.00    +0.000 A 
BRANCH  36  37
ATOM     37  O   UNL     1       8.459  16.950  18.065  0.00  0.00    +0.000 OA
ATOM     38  C   UNL     1       8.642  17.829  19.160  0.00  0.00    +0.000 C 
ENDBRANCH  36  37
ENDBRANCH  29  31
ENDBRANCH  26  27
ENDBRANCH  21  26
ENDBRANCH   1  22
TORSDOF 8
ENDMDL
MODEL 3
REMARK VINA RESULT:      -7.7      5.609      9.933
REMARK  Name = 
REMARK  11 active torsions:
REMARK  status: ('A' for Active; 'I' for Inactive)
REMARK    1  A    between atoms: C_1  and  C_2
REMARK    2  A    between atoms: C_2  and  N_3
REMARK    3  A    between atoms: N_3  and  C_4
REMARK    4  A    between atoms: C_4  and  C_5
REMARK    5  A    between atoms: N_7  and  C_8
REMARK    6  A    between atoms: C_13  and  O_14
REMARK    7  A    between atoms: O_14  and  C_15
REMARK    8  A    between atoms: C_16  and  C_18
REMARK    9  A    between atoms: C_18  and  N_19
REMARK   10  A    between atoms: C_23  and  C_24
REMARK   11  A    between atoms: C_23  and  C_25
REMARK                            x       y       z     vdW  Elec       q    Type
REMARK                         _______ _______ _______ _____ _____    ______ ____
ROOT
ATOM      1  C   UNL     1       5.130   3.840  19.657  0.00  0.00    +0.000 C 
ENDROOT
BRANCH   1   2
ATOM      2  N   UNL     1       5.457   4.922  18.708  0.00  0.00    +0.000 N 
ATOM      3  C   UNL     1       4.738   6.064  18.455  0.00  0.00    +0.000 C 
ATOM      4  O   UNL     1       4.000   6.670  19.212  0.00  0.00    +0.000 OA
ATOM      5  N   UNL     1       5.046   6.412  17.126  0.00  0.00    +0.000 N 
ATOM      6  C   UNL     1       6.353   5.872  16.738  0.00  0.00    +0.000 C 
ATOM      7  C   UNL     1       7.310   7.100  16.789  0.00  0.00    +0.000 C 
ATOM      8  C   UNL     1       6.584   4.957  17.934  0.00  0.00    +0.000 C 
ATOM      9  O   UNL     1       7.627   4.356  18.114  0.00  0.00    +0.000 OA
ATOM     10  H   UNL     1       4.422   7.001  16.575  0.00  0.00    +0.000 HD
BRANCH   6  11
ATOM     11  C   UNL     1       6.340   5.152  15.386  0.00  0.00    +0.000 A 
ATOM     12  C   UNL     1       7.537   5.215  14.628  0.00  0.00    +0.000 A 
ATOM     13  C   UNL     1       7.684   4.726  13.336  0.00  0.00    +0.000 A 
ATOM     14  C   UNL     1       6.604   4.007  12.835  0.00  0.00    +0.000 A 
ATOM     15  C   UNL     1       6.896   3.100  11.829  0.00  0.00    +0.000 A 
ATOM     16  C   UNL     1       5.939   2.190  11.331  0.00  0.00    +0.000 A 
ATOM     17  C   UNL     1       4.653   2.580  11.075  0.00  0.00    +0.000 A 
ATOM     18  C   UNL     1       4.374   3.247  12.313  0.00  0.00    +0.000 A 
ATOM     19  C   UNL     1       5.318   3.962  13.351  0.00  0.00    +0.000 A 
ATOM     20  C   UNL     1       5.212   4.578  14.719  0.00  0.00    +0.000 A 
ENDBRANCH   6  11
ENDBRANCH   1   2
BRANCH   1  22
ATOM     21  N   UNL     1       2.557   3.514  19.839  0.00  0.00    +0.000 N 
ATOM     22  C   UNL     1       3.789   3.164  19.243  0.00  0.00    +0.000 C 
ATOM     23  O   UNL     1       3.789   2.304  18.350  0.00  0.00    +0.000 OA
BRANCH  21  25
ATOM     24  C   UNL     1       0.682   3.399  18.161  0.00  0.00    +0.000 C 
ATOM     25  C   UNL     1       1.423   2.733  19.244  0.00  0.00    +0.000 C 
ENDBRANCH  21  25
BRANCH  21  26
ATOM     26  C   UNL     1       2.362   4.568  20.931  0.00  0.00    +0.000 C 
BRANCH  26  27
ATOM     27  C   UNL     1       1.474   5.966  20.811  0.00  0.00    +0.000 C 
ATOM     28  O   UNL     1       0.268   6.092  20.604  0.00  0.00    +0.000 OA
ATOM     29  N   UNL     1       2.070   7.143  21.184  0.00  0.00    +0.000 N 
ATOM     30  H   UNL     1       3.067   7.264  21.157  0.00  0.00    +0.000 HD
BRANCH  29  31
ATOM     31  C   UNL     1       1.193   8.264  21.257  0.00  0.00    +0.000 A 
ATOM     32  C   UNL     1       0.670   8.588  22.512  0.00  0.00    +0.000 A 
ATOM     33  C   UNL     1      -0.201   9.667  22.643  0.00  0.00    +0.000 A 
ATOM     34  C   UNL     1      -0.401  10.543  21.577  0.00  0.00    +0.000 A 
ATOM     35  C   UNL     1       0.203  10.291  20.343  0.00  0.00    +0.000 A 
ATOM     36  C   UNL     1       0.989   9.140  20.154  0.00  0.00    +0.000 A 
BRANCH  36  37
ATOM     37  O   UNL     1       1.485   9.037  18.872  0.00  0.00    +0.000 OA
ATOM     38  C   UNL     1       0.807   9.611  17.770  0.00  0.00    +0.000 C 
ENDBRANCH  36  37
ENDBRANCH  29  31
ENDBRANCH  26  27
ENDBRANCH  21  26
ENDBRANCH   1  22
TORSDOF 8
ENDMDL
MODEL 4
REMARK VINA RESULT:      -7.7      5.757      8.944
REMARK  Name = 
REMARK  11 active torsions:
REMARK  status: ('A' for Active; 'I' for Inactive)
REMARK    1  A    between atoms: C_1  and  C_2
REMARK    2  A    between atoms: C_2  and  N_3
REMARK    3  A    between atoms: N_3  and  C_4
REMARK    4  A    between atoms: C_4  and  C_5
REMARK    5  A    between atoms: N_7  and  C_8
REMARK    6  A    between atoms: C_13  and  O_14
REMARK    7  A    between atoms: O_14  and  C_15
REMARK    8  A    between atoms: C_16  and  C_18
REMARK    9  A    between atoms: C_18  and  N_19
REMARK   10  A    between atoms: C_23  and  C_24
REMARK   11  A    between atoms: C_23  and  C_25
REMARK                            x       y       z     vdW  Elec       q    Type
REMARK                         _______ _______ _______ _____ _____    ______ ____
ROOT
ATOM      1  C   UNL     1       1.233   5.669  20.974  0.00  0.00    +0.000 C 
ENDROOT
BRANCH   1   2
ATOM      2  N   UNL     1       1.906   4.454  20.476  0.00  0.00    +0.000 N 
ATOM      3  C   UNL     1       2.625   3.535  21.199  0.00  0.00    +0.000 C 
ATOM      4  O   UNL     1       2.490   3.230  22.371  0.00  0.00    +0.000 OA
ATOM      5  N   UNL     1       3.554   2.991  20.292  0.00  0.00    +0.000 N 
ATOM      6  C   UNL     1       3.066   3.111  18.914  0.00  0.00    +0.000 C 
ATOM      7  C   UNL     1       2.576   1.678  18.551  0.00  0.00    +0.000 C 
ATOM      8  C   UNL     1       1.884   4.037  19.173  0.00  0.00    +0.000 C 
ATOM      9  O   UNL     1       1.083   4.343  18.309  0.00  0.00    +0.000 OA
ATOM     10  H   UNL     1       4.412   2.547  20.618  0.00  0.00    +0.000 HD
BRANCH   6  11
ATOM     11  C   UNL     1       4.110   3.675  17.944  0.00  0.00    +0.000 A 
ATOM     12  C   UNL     1       5.029   4.611  18.485  0.00  0.00    +0.000 A 
ATOM     13  C   UNL     1       5.969   5.315  17.743  0.00  0.00    +0.000 A 
ATOM     14  C   UNL     1       6.084   4.950  16.407  0.00  0.00    +0.000 A 
ATOM     15  C   UNL     1       7.300   5.229  15.804  0.00  0.00    +0.000 A 
ATOM     16  C   UNL     1       7.621   4.780  14.506  0.00  0.00    +0.000 A 
ATOM     17  C   UNL     1       6.714   4.849  13.485  0.00  0.00    +0.000 A 
ATOM     18  C   UNL     1       5.589   4.256  14.149  0.00  0.00    +0.000 A 
ATOM     19  C   UNL     1       5.194   4.181  15.671  0.00  0.00    +0.000 A 
ATOM     20  C   UNL     1       4.155   3.508  16.525  0.00  0.00    +0.000 A 
ENDBRANCH   6  11
ENDBRANCH   1   2
BRANCH   1  22
ATOM     21  N   UNL     1       1.190   8.200  20.379  0.00  0.00    +0.000 N 
ATOM     22  C   UNL     1       1.740   6.913  20.184  0.00  0.00    +0.000 C 
ATOM     23  O   UNL     1       2.668   6.785  19.373  0.00  0.00    +0.000 OA
BRANCH  21  25
ATOM     24  C   UNL     1       1.122   9.661  18.328  0.00  0.00    +0.000 C 
ATOM     25  C   UNL     1       1.872   9.220  19.515  0.00  0.00    +0.000 C 
ENDBRANCH  21  25
BRANCH  21  26
ATOM     26  C   UNL     1       0.064   8.551  21.354  0.00  0.00    +0.000 C 
BRANCH  26  27
ATOM     27  C   UNL     1      -0.162  10.005  22.123  0.00  0.00    +0.000 C 
ATOM     28  O   UNL     1       0.245  10.358  23.229  0.00  0.00    +0.000 OA
ATOM     29  N   UNL     1      -0.683  11.045  21.396  0.00  0.00    +0.000 N 
ATOM     30  H   UNL     1      -1.263  10.890  20.591  0.00  0.00    +0.000 HD
BRANCH  29  31
ATOM     31  C   UNL     1      -0.653  12.310  22.051  0.00  0.00    +0.000 A 
ATOM     32  C   UNL     1       0.250  13.261  21.569  0.00  0.00    +0.000 A 
ATOM     33  C   UNL     1       0.332  14.512  22.176  0.00  0.00    +0.000 A 
ATOM     34  C   UNL     1      -0.611  14.893  23.130  0.00  0.00    +0.000 A 
ATOM     35  C   UNL     1      -1.590  13.987  23.547  0.00  0.00    +0.000 A 
ATOM     36  C   UNL     1      -1.615  12.677  23.034  0.00  0.00    +0.000 A 
BRANCH  36  37
ATOM     37  O   UNL     1      -2.628  11.914  23.573  0.00  0.00    +0.000 OA
ATOM     38  C   UNL     1      -3.940  12.426  23.721  0.00  0.00    +0.000 C 
ENDBRANCH  36  37
ENDBRANCH  29  31
ENDBRANCH  26  27
ENDBRANCH  21  26
ENDBRANCH   1  22
TORSDOF 8
ENDMDL
MODEL 5
REMARK VINA RESULT:      -7.6      2.794      8.623
REMARK  Name = 
REMARK  11 active torsions:
REMARK  status: ('A' for Active; 'I' for Inactive)
REMARK    1  A    between atoms: C_1  and  C_2
REMARK    2  A    between atoms: C_2  and  N_3
REMARK    3  A    between atoms: N_3  and  C_4
REMARK    4  A    between atoms: C_4  and  C_5
REMARK    5  A    between atoms: N_7  and  C_8
REMARK    6  A    between atoms: C_13  and  O_14
REMARK    7  A    between atoms: O_14  and  C_15
REMARK    8  A    between atoms: C_16  and  C_18
REMARK    9  A    between atoms: C_18  and  N_19
REMARK   10  A    between atoms: C_23  and  C_24
REMARK   11  A    between atoms: C_23  and  C_25
REMARK                            x       y       z     vdW  Elec       q    Type
REMARK                         _______ _______ _______ _____ _____    ______ ____
ROOT
ATOM      1  C   UNL     1       1.163  11.188  19.186  0.00  0.00    +0.000 C 
ENDROOT
BRANCH   1   2
ATOM      2  N   UNL     1       1.252  12.653  19.347  0.00  0.00    +0.000 N 
ATOM      3  C   UNL     1       0.584  13.619  18.635  0.00  0.00    +0.000 C 
ATOM      4  O   UNL     1      -0.506  13.536  18.098  0.00  0.00    +0.000 OA
ATOM      5  N   UNL     1       1.420  14.751  18.668  0.00  0.00    +0.000 N 
ATOM      6  C   UNL     1       2.298  14.714  19.842  0.00  0.00    +0.000 C 
ATOM      7  C   UNL     1       1.661  15.732  20.835  0.00  0.00    +0.000 C 
ATOM      8  C   UNL     1       2.023  13.282  20.285  0.00  0.00    +0.000 C 
ATOM      9  O   UNL     1       2.463  12.815  21.319  0.00  0.00    +0.000 OA
ATOM     10  H   UNL     1       1.343  15.485  17.964  0.00  0.00    +0.000 HD
BRANCH   6  11
ATOM     11  C   UNL     1       3.767  15.001  19.515  0.00  0.00    +0.000 A 
ATOM     12  C   UNL     1       4.232  14.539  18.257  0.00  0.00    +0.000 A 
ATOM     13  C   UNL     1       5.553  14.602  17.830  0.00  0.00    +0.000 A 
ATOM     14  C   UNL     1       6.425  15.298  18.659  0.00  0.00    +0.000 A 
ATOM     15  C   UNL     1       7.557  15.816  18.050  0.00  0.00    +0.000 A 
ATOM     16  C   UNL     1       8.452  16.675  18.723  0.00  0.00    +0.000 A 
ATOM     17  C   UNL     1       8.843  16.427  20.010  0.00  0.00    +0.000 A 
ATOM     18  C   UNL     1       7.553  16.200  20.593  0.00  0.00    +0.000 A 
ATOM     19  C   UNL     1       6.200  15.685  19.972  0.00  0.00    +0.000 A 
ATOM     20  C   UNL     1       4.767  15.520  20.396  0.00  0.00    +0.000 A 
ENDBRANCH   6  11
ENDBRANCH   1   2
BRANCH   1  22
ATOM     21  N   UNL     1       0.532   9.424  20.989  0.00  0.00    +0.000 N 
ATOM     22  C   UNL     1       0.211  10.597  20.269  0.00  0.00    +0.000 C 
ATOM     23  O   UNL     1      -0.854  11.175  20.528  0.00  0.00    +0.000 OA
BRANCH  21  25
ATOM     24  C   UNL     1      -0.269   9.472  23.377  0.00  0.00    +0.000 C 
ATOM     25  C   UNL     1      -0.541   9.086  21.983  0.00  0.00    +0.000 C 
ENDBRANCH  21  25
BRANCH  21  26
ATOM     26  C   UNL     1       1.809   8.597  20.824  0.00  0.00    +0.000 C 
BRANCH  26  27
ATOM     27  C   UNL     1       2.134   7.509  19.613  0.00  0.00    +0.000 C 
ATOM     28  O   UNL     1       2.042   7.667  18.397  0.00  0.00    +0.000 OA
ATOM     29  N   UNL     1       2.783   6.348  19.947  0.00  0.00    +0.000 N 
ATOM     30  H   UNL     1       2.730   5.959  20.872  0.00  0.00    +0.000 HD
BRANCH  29  31
ATOM     31  C   UNL     1       3.216   5.563  18.840  0.00  0.00    +0.000 A 
ATOM     32  C   UNL     1       4.505   5.797  18.353  0.00  0.00    +0.000 A 
ATOM     33  C   UNL     1       4.979   5.066  17.265  0.00  0.00    +0.000 A 
ATOM     34  C   UNL     1       4.259   3.974  16.784  0.00  0.00    +0.000 A 
ATOM     35  C   UNL     1       3.013   3.661  17.333  0.00  0.00    +0.000 A 
ATOM     36  C   UNL     1       2.461   4.459  18.351  0.00  0.00    +0.000 A 
BRANCH  36  37
ATOM     37  O   UNL     1       1.218   4.021  18.757  0.00  0.00    +0.000 OA
ATOM     38  C   UNL     1       1.058   3.224  19.915  0.00  0.00    +0.000 C 
ENDBRANCH  36  37
ENDBRANCH  29  31
ENDBRANCH  26  27
ENDBRANCH  21  26
ENDBRANCH   1  22
TORSDOF 8
ENDMDL
MODEL 6
REMARK VINA RESULT:      -7.6      4.663      6.682
REMARK  Name = 
REMARK  11 active torsions:
REMARK  status: ('A' for Active; 'I' for Inactive)
REMARK    1  A    between atoms: C_1  and  C_2
REMARK    2  A    between atoms: C_2  and  N_3
REMARK    3  A    between atoms: N_3  and  C_4
REMARK    4  A    between atoms: C_4  and  C_5
REMARK    5  A    between atoms: N_7  and  C_8
REMARK    6  A    between atoms: C_13  and  O_14
REMARK    7  A    between atoms: O_14  and  C_15
REMARK    8  A    between atoms: C_16  and  C_18
REMARK    9  A    between atoms: C_18  and  N_19
REMARK   10  A    between atoms: C_23  and  C_24
REMARK   11  A    between atoms: C_23  and  C_25
REMARK                            x       y       z     vdW  Elec       q    Type
REMARK                         _______ _______ _______ _____ _____    ______ ____
ROOT
ATOM      1  C   UNL     1      -1.376  11.481  22.484  0.00  0.00    +0.000 C 
ENDROOT
BRANCH   1   2
ATOM      2  N   UNL     1      -0.845  11.519  21.108  0.00  0.00    +0.000 N 
ATOM      3  C   UNL     1      -1.553  11.626  19.936  0.00  0.00    +0.000 C 
ATOM      4  O   UNL     1      -2.630  12.168  19.758  0.00  0.00    +0.000 OA
ATOM      5  N   UNL     1      -0.761  10.991  18.962  0.00  0.00    +0.000 N 
ATOM      6  C   UNL     1       0.652  11.003  19.353  0.00  0.00    +0.000 C 
ATOM      7  C   UNL     1       1.288  12.119  18.472  0.00  0.00    +0.000 C 
ATOM      8  C   UNL     1       0.485  11.479  20.791  0.00  0.00    +0.000 C 
ATOM      9  O   UNL     1       1.428  11.751  21.511  0.00  0.00    +0.000 OA
ATOM     10  H   UNL     1      -1.170  10.631  18.100  0.00  0.00    +0.000 HD
BRANCH   6  11
ATOM     11  C   UNL     1       1.336   9.639  19.216  0.00  0.00    +0.000 A 
ATOM     12  C   UNL     1       1.977   9.379  17.978  0.00  0.00    +0.000 A 
ATOM     13  C   UNL     1       2.549   8.164  17.622  0.00  0.00    +0.000 A 
ATOM     14  C   UNL     1       2.603   7.203  18.625  0.00  0.00    +0.000 A 
ATOM     15  C   UNL     1       3.585   6.236  18.486  0.00  0.00    +0.000 A 
ATOM     16  C   UNL     1       3.865   5.291  19.497  0.00  0.00    +0.000 A 
ATOM     17  C   UNL     1       2.861   4.660  20.177  0.00  0.00    +0.000 A 
ATOM     18  C   UNL     1       2.071   5.806  20.520  0.00  0.00    +0.000 A 
ATOM     19  C   UNL     1       1.913   7.212  19.829  0.00  0.00    +0.000 A 
ATOM     20  C   UNL     1       1.253   8.532  20.118  0.00  0.00    +0.000 A 
ENDBRANCH   6  11
ENDBRANCH   1   2
BRANCH   1  22
ATOM     21  N   UNL     1      -2.138  13.961  22.653  0.00  0.00    +0.000 N 
ATOM     22  C   UNL     1      -2.460  12.585  22.662  0.00  0.00    +0.000 C 
ATOM     23  O   UNL     1      -3.648  12.259  22.797  0.00  0.00    +0.000 OA
BRANCH  21  25
ATOM     24  C   UNL     1      -3.882  15.437  21.593  0.00  0.00    +0.000 C 
ATOM     25  C   UNL     1      -3.365  14.808  22.819  0.00  0.00    +0.000 C 
ENDBRANCH  21  25
BRANCH  21  26
ATOM     26  C   UNL     1      -0.736  14.547  22.471  0.00  0.00    +0.000 C 
BRANCH  26  27
ATOM     27  C   UNL     1      -0.268  15.659  21.330  0.00  0.00    +0.000 C 
ATOM     28  O   UNL     1       0.386  16.689  21.487  0.00  0.00    +0.000 OA
ATOM     29  N   UNL     1      -0.427  15.331  20.008  0.00  0.00    +0.000 N 
ATOM     30  H   UNL     1      -1.121  14.671  19.705  0.00  0.00    +0.000 HD
BRANCH  29  31
ATOM     31  C   UNL     1       0.184  16.233  19.089  0.00  0.00    +0.000 A 
ATOM     32  C   UNL     1       1.496  15.956  18.695  0.00  0.00    +0.000 A 
ATOM     33  C   UNL     1       2.149  16.807  17.806  0.00  0.00    +0.000 A 
ATOM     34  C   UNL     1       1.445  17.819  17.156  0.00  0.00    +0.000 A 
ATOM     35  C   UNL     1       0.099  18.040  17.460  0.00  0.00    +0.000 A 
ATOM     36  C   UNL     1      -0.547  17.270  18.444  0.00  0.00    +0.000 A 
BRANCH  36  37
ATOM     37  O   UNL     1      -1.862  17.640  18.633  0.00  0.00    +0.000 OA
ATOM     38  C   UNL     1      -2.258  18.410  19.753  0.00  0.00    +0.000 C 
ENDBRANCH  36  37
ENDBRANCH  29  31
ENDBRANCH  26  27
ENDBRANCH  21  26
ENDBRANCH   1  22
TORSDOF 8
ENDMDL
MODEL 7
REMARK VINA RESULT:      -7.5      4.102      7.341
REMARK  Name = 
REMARK  11 active torsions:
REMARK  status: ('A' for Active; 'I' for Inactive)
REMARK    1  A    between atoms: C_1  and  C_2
REMARK    2  A    between atoms: C_2  and  N_3
REMARK    3  A    between atoms: N_3  and  C_4
REMARK    4  A    between atoms: C_4  and  C_5
REMARK    5  A    between atoms: N_7  and  C_8
REMARK    6  A    between atoms: C_13  and  O_14
REMARK    7  A    between atoms: O_14  and  C_15
REMARK    8  A    between atoms: C_16  and  C_18
REMARK    9  A    between atoms: C_18  and  N_19
REMARK   10  A    between atoms: C_23  and  C_24
REMARK   11  A    between atoms: C_23  and  C_25
REMARK                            x       y       z     vdW  Elec       q    Type
REMARK                         _______ _______ _______ _____ _____    ______ ____
ROOT
ATOM      1  C   UNL     1      -0.078  12.769  18.626  0.00  0.00    +0.000 C 
ENDROOT
BRANCH   1   2
ATOM      2  N   UNL     1       0.122  11.731  19.656  0.00  0.00    +0.000 N 
ATOM      3  C   UNL     1       0.703  11.874  20.892  0.00  0.00    +0.000 C 
ATOM      4  O   UNL     1       0.740  12.870  21.593  0.00  0.00    +0.000 OA
ATOM      5  N   UNL     1       1.239  10.610  21.201  0.00  0.00    +0.000 N 
ATOM      6  C   UNL     1       0.524   9.552  20.480  0.00  0.00    +0.000 C 
ATOM      7  C   UNL     1      -0.399   8.906  21.556  0.00  0.00    +0.000 C 
ATOM      8  C   UNL     1      -0.283  10.430  19.532  0.00  0.00    +0.000 C 
ATOM      9  O   UNL     1      -1.135   9.986  18.785  0.00  0.00    +0.000 OA
ATOM     10  H   UNL     1       1.995  10.507  21.878  0.00  0.00    +0.000 HD
BRANCH   6  11
ATOM     11  C   UNL     1       1.453   8.555  19.779  0.00  0.00    +0.000 A 
ATOM     12  C   UNL     1       1.838   8.881  18.454  0.00  0.00    +0.000 A 
ATOM     13  C   UNL     1       2.577   8.052  17.618  0.00  0.00    +0.000 A 
ATOM     14  C   UNL     1       3.075   6.893  18.201  0.00  0.00    +0.000 A 
ATOM     15  C   UNL     1       4.195   6.344  17.597  0.00  0.00    +0.000 A 
ATOM     16  C   UNL     1       4.906   5.263  18.161  0.00  0.00    +0.000 A 
ATOM     17  C   UNL     1       4.254   4.191  18.705  0.00  0.00    +0.000 A 
ATOM     18  C   UNL     1       3.321   4.897  19.535  0.00  0.00    +0.000 A 
ATOM     19  C   UNL     1       2.693   6.336  19.412  0.00  0.00    +0.000 A 
ATOM     20  C   UNL     1       1.831   7.253  20.235  0.00  0.00    +0.000 A 
ENDBRANCH   6  11
ENDBRANCH   1   2
BRANCH   1  22
ATOM     21  N   UNL     1       1.109  15.061  18.934  0.00  0.00    +0.000 N 
ATOM     22  C   UNL     1       1.170  13.699  18.565  0.00  0.00    +0.000 C 
ATOM     23  O   UNL     1       2.261  13.234  18.202  0.00  0.00    +0.000 OA
BRANCH  21  25
ATOM     24  C   UNL     1       2.560  16.756  17.765  0.00  0.00    +0.000 C 
ATOM     25  C   UNL     1       2.451  15.720  18.805  0.00  0.00    +0.000 C 
ENDBRANCH  21  25
BRANCH  21  26
ATOM     26  C   UNL     1      -0.139  15.796  19.430  0.00  0.00    +0.000 C 
BRANCH  26  27
ATOM     27  C   UNL     1      -0.737  15.794  20.979  0.00  0.00    +0.000 C 
ATOM     28  O   UNL     1      -0.274  16.339  21.980  0.00  0.00    +0.000 OA
ATOM     29  N   UNL     1      -2.008  15.317  21.178  0.00  0.00    +0.000 N 
ATOM     30  H   UNL     1      -2.427  14.651  20.554  0.00  0.00    +0.000 HD
BRANCH  29  31
ATOM     31  C   UNL     1      -2.534  15.539  22.483  0.00  0.00    +0.000 A 
ATOM     32  C   UNL     1      -3.329  16.673  22.670  0.00  0.00    +0.000 A 
ATOM     33  C   UNL     1      -3.863  16.948  23.928  0.00  0.00    +0.000 A 
ATOM     34  C   UNL     1      -3.776  16.004  24.949  0.00  0.00    +0.000 A 
ATOM     35  C   UNL     1      -3.074  14.813  24.744  0.00  0.00    +0.000 A 
ATOM     36  C   UNL     1      -2.424  14.570  23.520  0.00  0.00    +0.000 A 
BRANCH  36  37
ATOM     37  O   UNL     1      -1.760  13.362  23.500  0.00  0.00    +0.000 OA
ATOM     38  C   UNL     1      -2.394  12.178  23.053  0.00  0.00    +0.000 C 
ENDBRANCH  36  37
ENDBRANCH  29  31
ENDBRANCH  26  27
ENDBRANCH  21  26
ENDBRANCH   1  22
TORSDOF 8
ENDMDL
MODEL 8
REMARK VINA RESULT:      -7.5      5.637      9.878
REMARK  Name = 
REMARK  11 active torsions:
REMARK  status: ('A' for Active; 'I' for Inactive)
REMARK    1  A    between atoms: C_1  and  C_2
REMARK    2  A    between atoms: C_2  and  N_3
REMARK    3  A    between atoms: N_3  and  C_4
REMARK    4  A    between atoms: C_4  and  C_5
REMARK    5  A    between atoms: N_7  and  C_8
REMARK    6  A    between atoms: C_13  and  O_14
REMARK    7  A    between atoms: O_14  and  C_15
REMARK    8  A    between atoms: C_16  and  C_18
REMARK    9  A    between atoms: C_18  and  N_19
REMARK   10  A    between atoms: C_23  and  C_24
REMARK   11  A    between atoms: C_23  and  C_25
REMARK                            x       y       z     vdW  Elec       q    Type
REMARK                         _______ _______ _______ _____ _____    ______ ____
ROOT
ATOM      1  C   UNL     1       1.885   4.828  17.832  0.00  0.00    +0.000 C 
ENDROOT
BRANCH   1   2
ATOM      2  N   UNL     1       3.237   5.383  17.626  0.00  0.00    +0.000 N 
ATOM      3  C   UNL     1       3.596   6.704  17.519  0.00  0.00    +0.000 C 
ATOM      4  O   UNL     1       3.049   7.672  18.016  0.00  0.00    +0.000 OA
ATOM      5  N   UNL     1       4.757   6.711  16.723  0.00  0.00    +0.000 N 
ATOM      6  C   UNL     1       5.456   5.425  16.811  0.00  0.00    +0.000 C 
ATOM      7  C   UNL     1       6.664   5.704  17.755  0.00  0.00    +0.000 C 
ATOM      8  C   UNL     1       4.376   4.630  17.536  0.00  0.00    +0.000 C 
ATOM      9  O   UNL     1       4.549   3.494  17.936  0.00  0.00    +0.000 OA
ATOM     10  H   UNL     1       5.043   7.547  16.214  0.00  0.00    +0.000 HD
BRANCH   6  11
ATOM     11  C   UNL     1       5.853   4.851  15.447  0.00  0.00    +0.000 A 
ATOM     12  C   UNL     1       7.078   5.315  14.903  0.00  0.00    +0.000 A 
ATOM     13  C   UNL     1       7.550   5.001  13.635  0.00  0.00    +0.000 A 
ATOM     14  C   UNL     1       6.814   4.054  12.932  0.00  0.00    +0.000 A 
ATOM     15  C   UNL     1       7.502   3.357  11.952  0.00  0.00    +0.000 A 
ATOM     16  C   UNL     1       6.937   2.262  11.265  0.00  0.00    +0.000 A 
ATOM     17  C   UNL     1       5.646   2.295  10.815  0.00  0.00    +0.000 A 
ATOM     18  C   UNL     1       5.005   2.746  12.015  0.00  0.00    +0.000 A 
ATOM     19  C   UNL     1       5.535   3.604  13.224  0.00  0.00    +0.000 A 
ATOM     20  C   UNL     1       5.053   4.043  14.580  0.00  0.00    +0.000 A 
ENDBRANCH   6  11
ENDBRANCH   1   2
BRANCH   1  22
ATOM     21  N   UNL     1       2.209   3.947  20.257  0.00  0.00    +0.000 N 
ATOM     22  C   UNL     1       1.939   3.689  18.894  0.00  0.00    +0.000 C 
ATOM     23  O   UNL     1       1.722   2.519  18.547  0.00  0.00    +0.000 OA
BRANCH  21  25
ATOM     24  C   UNL     1       1.244   2.670  22.202  0.00  0.00    +0.000 C 
ATOM     25  C   UNL     1       2.179   2.684  21.066  0.00  0.00    +0.000 C 
ENDBRANCH  21  25
BRANCH  21  26
ATOM     26  C   UNL     1       2.473   5.325  20.869  0.00  0.00    +0.000 C 
BRANCH  26  27
ATOM     27  C   UNL     1       1.416   6.604  20.920  0.00  0.00    +0.000 C 
ATOM     28  O   UNL     1       0.186   6.582  20.926  0.00  0.00    +0.000 OA
ATOM     29  N   UNL     1       1.922   7.848  21.198  0.00  0.00    +0.000 N 
ATOM     30  H   UNL     1       2.877   8.087  21.000  0.00  0.00    +0.000 HD
BRANCH  29  31
ATOM     31  C   UNL     1       0.943   8.856  21.434  0.00  0.00    +0.000 A 
ATOM     32  C   UNL     1       0.558   9.078  22.759  0.00  0.00    +0.000 A 
ATOM     33  C   UNL     1      -0.403  10.044  23.050  0.00  0.00    +0.000 A 
ATOM     34  C   UNL     1      -0.840  10.922  22.060  0.00  0.00    +0.000 A 
ATOM     35  C   UNL     1      -0.381  10.780  20.748  0.00  0.00    +0.000 A 
ATOM     36  C   UNL     1       0.497   9.736  20.407  0.00  0.00    +0.000 A 
BRANCH  36  37
ATOM     37  O   UNL     1       0.826   9.730  19.069  0.00  0.00    +0.000 OA
ATOM     38  C   UNL     1       0.769  10.911  18.289  0.00  0.00    +0.000 C 
ENDBRANCH  36  37
ENDBRANCH  29  31
ENDBRANCH  26  27
ENDBRANCH  21  26
ENDBRANCH   1  22
TORSDOF 8
ENDMDL
MODEL 9
REMARK VINA RESULT:      -7.5      5.194      8.846
REMARK  Name = 
REMARK  11 active torsions:
REMARK  status: ('A' for Active; 'I' for Inactive)
REMARK    1  A    between atoms: C_1  and  C_2
REMARK    2  A    between atoms: C_2  and  N_3
REMARK    3  A    between atoms: N_3  and  C_4
REMARK    4  A    between atoms: C_4  and  C_5
REMARK    5  A    between atoms: N_7  and  C_8
REMARK    6  A    between atoms: C_13  and  O_14
REMARK    7  A    between atoms: O_14  and  C_15
REMARK    8  A    between atoms: C_16  and  C_18
REMARK    9  A    between atoms: C_18  and  N_19
REMARK   10  A    between atoms: C_23  and  C_24
REMARK   11  A    between atoms: C_23  and  C_25
REMARK                            x       y       z     vdW  Elec       q    Type
REMARK                         _______ _______ _______ _____ _____    ______ ____
ROOT
ATOM      1  C   UNL     1       1.010   5.419  20.859  0.00  0.00    +0.000 C 
ENDROOT
BRANCH   1   2
ATOM      2  N   UNL     1       1.798   4.251  20.420  0.00  0.00    +0.000 N 
ATOM      3  C   UNL     1       2.564   3.414  21.193  0.00  0.00    +0.000 C 
ATOM      4  O   UNL     1       2.413   3.131  22.368  0.00  0.00    +0.000 OA
ATOM      5  N   UNL     1       3.566   2.925  20.334  0.00  0.00    +0.000 N 
ATOM      6  C   UNL     1       3.119   2.967  18.938  0.00  0.00    +0.000 C 
ATOM      7  C   UNL     1       2.761   1.489  18.601  0.00  0.00    +0.000 C 
ATOM      8  C   UNL     1       1.857   3.799  19.129  0.00  0.00    +0.000 C 
ATOM      9  O   UNL     1       1.065   4.014  18.231  0.00  0.00    +0.000 OA
ATOM     10  H   UNL     1       4.446   2.563  20.700  0.00  0.00    +0.000 HD
BRANCH   6  11
ATOM     11  C   UNL     1       4.146   3.590  17.986  0.00  0.00    +0.000 A 
ATOM     12  C   UNL     1       5.014   4.562  18.548  0.00  0.00    +0.000 A 
ATOM     13  C   UNL     1       5.929   5.317  17.825  0.00  0.00    +0.000 A 
ATOM     14  C   UNL     1       6.076   4.973  16.486  0.00  0.00    +0.000 A 
ATOM     15  C   UNL     1       7.286   5.314  15.902  0.00  0.00    +0.000 A 
ATOM     16  C   UNL     1       7.643   4.894  14.603  0.00  0.00    +0.000 A 
ATOM     17  C   UNL     1       6.746   4.931  13.572  0.00  0.00    +0.000 A 
ATOM     18  C   UNL     1       5.642   4.279  14.216  0.00  0.00    +0.000 A 
ATOM     19  C   UNL     1       5.233   4.170  15.732  0.00  0.00    +0.000 A 
ATOM     20  C   UNL     1       4.216   3.440  16.566  0.00  0.00    +0.000 A 
ENDBRANCH   6  11
ENDBRANCH   1   2
BRANCH   1  22
ATOM     21  N   UNL     1       1.168   8.005  20.643  0.00  0.00    +0.000 N 
ATOM     22  C   UNL     1       1.628   6.722  20.270  0.00  0.00    +0.000 C 
ATOM     23  O   UNL     1       2.566   6.644  19.463  0.00  0.00    +0.000 OA
BRANCH  21  25
ATOM     24  C   UNL     1       1.280   9.720  18.802  0.00  0.00    +0.000 C 
ATOM     25  C   UNL     1       1.946   9.085  19.950  0.00  0.00    +0.000 C 
ENDBRANCH  21  25
BRANCH  21  26
ATOM     26  C   UNL     1       0.045   8.295  21.642  0.00  0.00    +0.000 C 
BRANCH  26  27
ATOM     27  C   UNL     1      -0.341   9.771  22.296  0.00  0.00    +0.000 C 
ATOM     28  O   UNL     1       0.027  10.254  23.366  0.00  0.00    +0.000 OA
ATOM     29  N   UNL     1      -0.976  10.685  21.495  0.00  0.00    +0.000 N 
ATOM     30  H   UNL     1      -1.537  10.403  20.711  0.00  0.00    +0.000 HD
BRANCH  29  31
ATOM     31  C   UNL     1      -1.087  11.993  22.049  0.00  0.00    +0.000 A 
ATOM     32  C   UNL     1      -2.154  12.233  22.919  0.00  0.00    +0.000 A 
ATOM     33  C   UNL     1      -2.319  13.496  23.483  0.00  0.00    +0.000 A 
ATOM     34  C   UNL     1      -1.326  14.464  23.344  0.00  0.00    +0.000 A 
ATOM     35  C   UNL     1      -0.199  14.201  22.561  0.00  0.00    +0.000 A 
ATOM     36  C   UNL     1      -0.070  12.975  21.884  0.00  0.00    +0.000 A 
BRANCH  36  37
ATOM     37  O   UNL     1       1.088  12.896  21.141  0.00  0.00    +0.000 OA
ATOM     38  C   UNL     1       1.136  13.341  19.798  0.00  0.00    +0.000 C 
ENDBRANCH  36  37
ENDBRANCH  29  31
ENDBRANCH  26  27
ENDBRANCH  21  26
ENDBRANCH   1  22
TORSDOF 8
ENDMDL
