MODEL 1
REMARK VINA RESULT:      -7.5      0.000      0.000
REMARK  Name = 
REMARK  14 active torsions:
REMARK  status: ('A' for Active; 'I' for Inactive)
REMARK    1  A    between atoms: C_1  and  C_2
REMARK    2  A    between atoms: C_2  and  C_3
REMARK    3  A    between atoms: C_3  and  C_4
REMARK    4  A    between atoms: C_4  and  C_5
REMARK    5  A    between atoms: C_5  and  C_6
REMARK    6  A    between atoms: C_6  and  C_7
REMARK    7  A    between atoms: C_7  and  C_8
REMARK    8  A    between atoms: C_8  and  C_9
REMARK    9  A    between atoms: C_9  and  O_11
REMARK   10  A    between atoms: O_11  and  C_12
REMARK   11  A    between atoms: C_13  and  O_14
REMARK   12  A    between atoms: C_15  and  N_16
REMARK   13  A    between atoms: C_25  and  C_26
REMARK   14  A    between atoms: C_26  and  O_27
REMARK                            x       y       z     vdW  Elec       q    Type
REMARK                         _______ _______ _______ _____ _____    ______ ____
ROOT
ATOM      1  C   UNL     1       6.615   5.399  16.543  0.00  0.00    +0.000 C 
ATOM      2  C   UNL     1       5.139   5.044  16.704  0.00  0.00    +0.000 C 
ATOM      3  C   UNL     1       5.186   3.951  17.788  0.00  0.00    +0.000 C 
ATOM      4  O   UNL     1       6.356   4.171  18.599  0.00  0.00    +0.000 OA
ATOM      5  C   UNL     1       7.191   5.140  17.944  0.00  0.00    +0.000 C 
ENDROOT
BRANCH   3   6
ATOM      6  N   UNL     1       4.024   3.780  18.664  0.00  0.00    +0.000 N 
ATOM      7  C   UNL     1       3.857   4.623  19.742  0.00  0.00    +0.000 A 
ATOM      8  C   UNL     1       2.757   4.576  20.493  0.00  0.00    +0.000 A 
ATOM      9  C   UNL     1       1.759   3.557  20.118  0.00  0.00    +0.000 A 
ATOM     10  N   UNL     1       0.606   3.428  20.841  0.00  0.00    +0.000 N 
ATOM     11  N   UNL     1       1.920   2.746  19.124  0.00  0.00    +0.000 NA
ATOM     12  C   UNL     1       3.048   2.832  18.343  0.00  0.00    +0.000 A 
ATOM     13  O   UNL     1       3.188   2.069  17.388  0.00  0.00    +0.000 OA
ATOM     14  H   UNL     1       0.619   3.703  21.813  0.00  0.00    +0.000 HD
ATOM     15  H   UNL     1       0.140   2.542  20.671  0.00  0.00    +0.000 HD
ENDBRANCH   3   6
BRANCH   2  16
ATOM     16  O   UNL     1       4.404   6.224  17.041  0.00  0.00    +0.000 OA
ATOM     17  H   UNL     1       4.728   6.573  17.900  0.00  0.00    +0.000 HD
ENDBRANCH   2  16
BRANCH   1  18
ATOM     18  O   UNL     1       7.357   4.541  15.642  0.00  0.00    +0.000 OA
BRANCH  18  19
ATOM     19  C   UNL     1       7.408   4.952  14.348  0.00  0.00    +0.000 C 
ATOM     20  O   UNL     1       8.201   5.772  13.910  0.00  0.00    +0.000 OA
BRANCH  19  21
ATOM     21  C   UNL     1       6.454   4.163  13.483  0.00  0.00    +0.000 C 
BRANCH  21  22
ATOM     22  C   UNL     1       6.993   3.808  12.104  0.00  0.00    +0.000 C 
BRANCH  22  23
ATOM     23  C   UNL     1       6.577   2.402  11.676  0.00  0.00    +0.000 C 
BRANCH  23  24
ATOM     24  C   UNL     1       5.071   2.330  11.451  0.00  0.00    +0.000 C 
BRANCH  24  25
ATOM     25  C   UNL     1       4.509   3.688  11.041  0.00  0.00    +0.000 C 
BRANCH  25  26
ATOM     26  C   UNL     1       3.185   3.515  10.302  0.00  0.00    +0.000 C 
BRANCH  26  28
ATOM     27  C   UNL     1       1.696   5.053   8.996  0.00  0.00    +0.000 C 
ATOM     28  C   UNL     1       3.087   4.448   9.100  0.00  0.00    +0.000 C 
ENDBRANCH  26  28
ENDBRANCH  25  26
ENDBRANCH  24  25
ENDBRANCH  23  24
ENDBRANCH  22  23
ENDBRANCH  21  22
ENDBRANCH  19  21
ENDBRANCH  18  19
ENDBRANCH   1  18
BRANCH   5  29
ATOM     29  C   UNL     1       7.298   6.406  18.801  0.00  0.00    +0.000 C 
BRANCH  29  30
ATOM     30  O   UNL     1       8.277   7.289  18.265  0.00  0.00    +0.000 OA
ATOM     31  H   UNL     1       8.665   6.852  17.483  0.00  0.00    +0.000 HD
ENDBRANCH  29  30
ENDBRANCH   5  29
TORSDOF 13
ENDMDL
MODEL 2
REMARK VINA RESULT:      -7.5      3.431      7.706
REMARK  Name = 
REMARK  14 active torsions:
REMARK  status: ('A' for Active; 'I' for Inactive)
REMARK    1  A    between atoms: C_1  and  C_2
REMARK    2  A    between atoms: C_2  and  C_3
REMARK    3  A    between atoms: C_3  and  C_4
REMARK    4  A    between atoms: C_4  and  C_5
REMARK    5  A    between atoms: C_5  and  C_6
REMARK    6  A    between atoms: C_6  and  C_7
REMARK    7  A    between atoms: C_7  and  C_8
REMARK    8  A    between atoms: C_8  and  C_9
REMARK    9  A    between atoms: C_9  and  O_11
REMARK   10  A    between atoms: O_11  and  C_12
REMARK   11  A    between atoms: C_13  and  O_14
REMARK   12  A    between atoms: C_15  and  N_16
REMARK   13  A    between atoms: C_25  and  C_26
REMARK   14  A    between atoms: C_26  and  O_27
REMARK                            x       y       z     vdW  Elec       q    Type
REMARK                         _______ _______ _______ _____ _____    ______ ____
ROOT
ATOM      1  C   UNL     1       6.686   5.646  16.910  0.00  0.00    +0.000 C 
ATOM      2  C   UNL     1       5.789   5.284  18.092  0.00  0.00    +0.000 C 
ATOM      3  C   UNL     1       4.384   5.569  17.531  0.00  0.00    +0.000 C 
ATOM      4  O   UNL     1       4.429   5.411  16.100  0.00  0.00    +0.000 OA
ATOM      5  C   UNL     1       5.804   5.323  15.693  0.00  0.00    +0.000 C 
ENDROOT
BRANCH   3   6
ATOM      6  N   UNL     1       3.248   4.808  18.059  0.00  0.00    +0.000 N 
ATOM      7  C   UNL     1       2.933   3.586  17.503  0.00  0.00    +0.000 A 
ATOM      8  C   UNL     1       1.984   2.812  18.028  0.00  0.00    +0.000 A 
ATOM      9  C   UNL     1       1.284   3.354  19.208  0.00  0.00    +0.000 A 
ATOM     10  N   UNL     1       0.287   2.633  19.803  0.00  0.00    +0.000 N 
ATOM     11  N   UNL     1       1.557   4.509  19.720  0.00  0.00    +0.000 NA
ATOM     12  C   UNL     1       2.561   5.279  19.182  0.00  0.00    +0.000 A 
ATOM     13  O   UNL     1       2.828   6.370  19.683  0.00  0.00    +0.000 OA
ATOM     14  H   UNL     1      -0.236   1.980  19.236  0.00  0.00    +0.000 HD
ATOM     15  H   UNL     1      -0.293   3.204  20.411  0.00  0.00    +0.000 HD
ENDBRANCH   3   6
BRANCH   2  16
ATOM     16  O   UNL     1       6.042   3.930  18.479  0.00  0.00    +0.000 OA
ATOM     17  H   UNL     1       6.594   3.924  19.291  0.00  0.00    +0.000 HD
ENDBRANCH   2  16
BRANCH   1  18
ATOM     18  O   UNL     1       7.017   7.051  16.800  0.00  0.00    +0.000 OA
BRANCH  18  19
ATOM     19  C   UNL     1       7.767   7.559  17.813  0.00  0.00    +0.000 C 
ATOM     20  O   UNL     1       8.358   6.887  18.645  0.00  0.00    +0.000 OA
BRANCH  19  21
ATOM     21  C   UNL     1       7.898   9.060  17.701  0.00  0.00    +0.000 C 
BRANCH  21  22
ATOM     22  C   UNL     1       8.824   9.695  18.729  0.00  0.00    +0.000 C 
BRANCH  22  23
ATOM     23  C   UNL     1       9.597  10.875  18.145  0.00  0.00    +0.000 C 
BRANCH  23  24
ATOM     24  C   UNL     1      10.519  11.489  19.192  0.00  0.00    +0.000 C 
BRANCH  24  25
ATOM     25  C   UNL     1       9.905  11.399  20.587  0.00  0.00    +0.000 C 
BRANCH  25  26
ATOM     26  C   UNL     1      10.031  12.737  21.310  0.00  0.00    +0.000 C 
BRANCH  26  28
ATOM     27  C   UNL     1       8.159  11.696  22.614  0.00  0.00    +0.000 C 
ATOM     28  C   UNL     1       8.832  12.999  22.215  0.00  0.00    +0.000 C 
ENDBRANCH  26  28
ENDBRANCH  25  26
ENDBRANCH  24  25
ENDBRANCH  23  24
ENDBRANCH  22  23
ENDBRANCH  21  22
ENDBRANCH  19  21
ENDBRANCH  18  19
ENDBRANCH   1  18
BRANCH   5  29
ATOM     29  C   UNL     1       6.086   3.944  15.087  0.00  0.00    +0.000 C 
BRANCH  29  30
ATOM     30  O   UNL     1       6.069   4.012  13.665  0.00  0.00    +0.000 OA
ATOM     31  H   UNL     1       6.296   3.125  13.329  0.00  0.00    +0.000 HD
ENDBRANCH  29  30
ENDBRANCH   5  29
TORSDOF 13
ENDMDL
MODEL 3
REMARK VINA RESULT:      -7.5      2.566      3.879
REMARK  Name = 
REMARK  14 active torsions:
REMARK  status: ('A' for Active; 'I' for Inactive)
REMARK    1  A    between atoms: C_1  and  C_2
REMARK    2  A    between atoms: C_2  and  C_3
REMARK    3  A    between atoms: C_3  and  C_4
REMARK    4  A    between atoms: C_4  and  C_5
REMARK    5  A    between atoms: C_5  and  C_6
REMARK    6  A    between atoms: C_6  and  C_7
REMARK    7  A    between atoms: C_7  and  C_8
REMARK    8  A    between atoms: C_8  and  C_9
REMARK    9  A    between atoms: C_9  and  O_11
REMARK   10  A    between atoms: O_11  and  C_12
REMARK   11  A    between atoms: C_13  and  O_14
REMARK   12  A    between atoms: C_15  and  N_16
REMARK   13  A    between atoms: C_25  and  C_26
REMARK   14  A    between atoms: C_26  and  O_27
REMARK                            x       y       z     vdW  Elec       q    Type
REMARK                         _______ _______ _______ _____ _____    ______ ____
ROOT
ATOM      1  C   UNL     1       4.934   4.169  17.924  0.00  0.00    +0.000 C 
ATOM      2  C   UNL     1       4.736   5.554  18.537  0.00  0.00    +0.000 C 
ATOM      3  C   UNL     1       3.353   5.953  17.992  0.00  0.00    +0.000 C 
ATOM      4  O   UNL     1       2.604   4.750  17.736  0.00  0.00    +0.000 OA
ATOM      5  C   UNL     1       3.500   3.630  17.813  0.00  0.00    +0.000 C 
ENDROOT
BRANCH   3   6
ATOM      6  N   UNL     1       2.525   6.872  18.779  0.00  0.00    +0.000 N 
ATOM      7  C   UNL     1       2.092   6.491  20.031  0.00  0.00    +0.000 A 
ATOM      8  C   UNL     1       1.438   7.338  20.825  0.00  0.00    +0.000 A 
ATOM      9  C   UNL     1       1.186   8.681  20.271  0.00  0.00    +0.000 A 
ATOM     10  N   UNL     1       0.511   9.612  21.010  0.00  0.00    +0.000 N 
ATOM     11  N   UNL     1       1.568   9.039  19.088  0.00  0.00    +0.000 NA
ATOM     12  C   UNL     1       2.269   8.159  18.297  0.00  0.00    +0.000 A 
ATOM     13  O   UNL     1       2.644   8.509  17.180  0.00  0.00    +0.000 OA
ATOM     14  H   UNL     1      -0.149   9.285  21.703  0.00  0.00    +0.000 HD
ATOM     15  H   UNL     1       0.162  10.378  20.442  0.00  0.00    +0.000 HD
ENDBRANCH   3   6
BRANCH   2  16
ATOM     16  O   UNL     1       4.841   5.459  19.960  0.00  0.00    +0.000 OA
ATOM     17  H   UNL     1       3.963   5.227  20.335  0.00  0.00    +0.000 HD
ENDBRANCH   2  16
BRANCH   1  18
ATOM     18  O   UNL     1       5.467   4.166  16.577  0.00  0.00    +0.000 OA
BRANCH  18  19
ATOM     19  C   UNL     1       6.750   4.595  16.451  0.00  0.00    +0.000 C 
ATOM     20  O   UNL     1       7.635   4.385  17.266  0.00  0.00    +0.000 OA
BRANCH  19  21
ATOM     21  C   UNL     1       6.982   5.245  15.108  0.00  0.00    +0.000 C 
BRANCH  21  22
ATOM     22  C   UNL     1       6.027   4.794  14.011  0.00  0.00    +0.000 C 
BRANCH  22  23
ATOM     23  C   UNL     1       6.373   3.398  13.496  0.00  0.00    +0.000 C 
BRANCH  23  24
ATOM     24  C   UNL     1       6.466   3.392  11.974  0.00  0.00    +0.000 C 
BRANCH  24  25
ATOM     25  C   UNL     1       5.320   2.596  11.355  0.00  0.00    +0.000 C 
BRANCH  25  26
ATOM     26  C   UNL     1       4.009   3.369  11.481  0.00  0.00    +0.000 C 
BRANCH  26  28
ATOM     27  C   UNL     1       2.881   4.346   9.466  0.00  0.00    +0.000 C 
ATOM     28  C   UNL     1       3.081   3.093  10.303  0.00  0.00    +0.000 C 
ENDBRANCH  26  28
ENDBRANCH  25  26
ENDBRANCH  24  25
ENDBRANCH  23  24
ENDBRANCH  22  23
ENDBRANCH  21  22
ENDBRANCH  19  21
ENDBRANCH  18  19
ENDBRANCH   1  18
BRANCH   5  29
ATOM     29  C   UNL     1       3.101   2.717  18.978  0.00  0.00    +0.000 C 
BRANCH  29  30
ATOM     30  O   UNL     1       2.897   1.385  18.520  0.00  0.00    +0.000 OA
ATOM     31  H   UNL     1       3.721   1.098  18.084  0.00  0.00    +0.000 HD
ENDBRANCH  29  30
ENDBRANCH   5  29
TORSDOF 13
ENDMDL
MODEL 4
REMARK VINA RESULT:      -7.4      3.756      7.641
REMARK  Name = 
REMARK  14 active torsions:
REMARK  status: ('A' for Active; 'I' for Inactive)
REMARK    1  A    between atoms: C_1  and  C_2
REMARK    2  A    between atoms: C_2  and  C_3
REMARK    3  A    between atoms: C_3  and  C_4
REMARK    4  A    between atoms: C_4  and  C_5
REMARK    5  A    between atoms: C_5  and  C_6
REMARK    6  A    between atoms: C_6  and  C_7
REMARK    7  A    between atoms: C_7  and  C_8
REMARK    8  A    between atoms: C_8  and  C_9
REMARK    9  A    between atoms: C_9  and  O_11
REMARK   10  A    between atoms: O_11  and  C_12
REMARK   11  A    between atoms: C_13  and  O_14
REMARK   12  A    between atoms: C_15  and  N_16
REMARK   13  A    between atoms: C_25  and  C_26
REMARK   14  A    between atoms: C_26  and  O_27
REMARK                            x       y       z     vdW  Elec       q    Type
REMARK                         _______ _______ _______ _____ _____    ______ ____
ROOT
ATOM      1  C   UNL     1       6.629   6.098  16.988  0.00  0.00    +0.000 C 
ATOM      2  C   UNL     1       6.018   5.557  18.279  0.00  0.00    +0.000 C 
ATOM      3  C   UNL     1       4.542   5.967  18.135  0.00  0.00    +0.000 C 
ATOM      4  O   UNL     1       4.234   6.059  16.731  0.00  0.00    +0.000 OA
ATOM      5  C   UNL     1       5.464   6.012  15.990  0.00  0.00    +0.000 C 
ENDROOT
BRANCH   3   6
ATOM      6  N   UNL     1       3.518   5.152  18.795  0.00  0.00    +0.000 N 
ATOM      7  C   UNL     1       2.866   5.649  19.904  0.00  0.00    +0.000 A 
ATOM      8  C   UNL     1       1.851   4.991  20.462  0.00  0.00    +0.000 A 
ATOM      9  C   UNL     1       1.495   3.701  19.841  0.00  0.00    +0.000 A 
ATOM     10  N   UNL     1       0.474   2.952  20.356  0.00  0.00    +0.000 N 
ATOM     11  N   UNL     1       2.118   3.217  18.816  0.00  0.00    +0.000 NA
ATOM     12  C   UNL     1       3.142   3.926  18.237  0.00  0.00    +0.000 A 
ATOM     13  O   UNL     1       3.720   3.469  17.252  0.00  0.00    +0.000 OA
ATOM     14  H   UNL     1       0.259   3.048  21.339  0.00  0.00    +0.000 HD
ATOM     15  H   UNL     1       0.501   1.989  20.034  0.00  0.00    +0.000 HD
ENDBRANCH   3   6
BRANCH   2  16
ATOM     16  O   UNL     1       6.269   4.151  18.366  0.00  0.00    +0.000 OA
ATOM     17  H   UNL     1       6.279   3.768  17.462  0.00  0.00    +0.000 HD
ENDBRANCH   2  16
BRANCH   1  18
ATOM     18  O   UNL     1       7.015   7.493  17.031  0.00  0.00    +0.000 OA
BRANCH  18  19
ATOM     19  C   UNL     1       7.899   7.829  18.007  0.00  0.00    +0.000 C 
ATOM     20  O   UNL     1       8.376   7.044  18.812  0.00  0.00    +0.000 OA
BRANCH  19  21
ATOM     21  C   UNL     1       8.329   9.272  17.885  0.00  0.00    +0.000 C 
BRANCH  21  22
ATOM     22  C   UNL     1       9.060   9.821  19.102  0.00  0.00    +0.000 C 
BRANCH  22  23
ATOM     23  C   UNL     1       9.443  11.288  18.921  0.00  0.00    +0.000 C 
BRANCH  23  24
ATOM     24  C   UNL     1      10.442  11.449  17.781  0.00  0.00    +0.000 C 
BRANCH  24  25
ATOM     25  C   UNL     1      11.808  11.885  18.303  0.00  0.00    +0.000 C 
BRANCH  25  26
ATOM     26  C   UNL     1      11.692  12.389  19.739  0.00  0.00    +0.000 C 
BRANCH  26  28
ATOM     27  C   UNL     1      10.688  14.495  20.659  0.00  0.00    +0.000 C 
ATOM     28  C   UNL     1      11.804  13.908  19.810  0.00  0.00    +0.000 C 
ENDBRANCH  26  28
ENDBRANCH  25  26
ENDBRANCH  24  25
ENDBRANCH  23  24
ENDBRANCH  22  23
ENDBRANCH  21  22
ENDBRANCH  19  21
ENDBRANCH  18  19
ENDBRANCH   1  18
BRANCH   5  29
ATOM     29  C   UNL     1       5.503   4.753  15.117  0.00  0.00    +0.000 C 
BRANCH  29  30
ATOM     30  O   UNL     1       6.716   4.038  15.327  0.00  0.00    +0.000 OA
ATOM     31  H   UNL     1       6.557   3.112  15.064  0.00  0.00    +0.000 HD
ENDBRANCH  29  30
ENDBRANCH   5  29
TORSDOF 13
ENDMDL
MODEL 5
REMARK VINA RESULT:      -7.4      1.650      2.307
REMARK  Name = 
REMARK  14 active torsions:
REMARK  status: ('A' for Active; 'I' for Inactive)
REMARK    1  A    between atoms: C_1  and  C_2
REMARK    2  A    between atoms: C_2  and  C_3
REMARK    3  A    between atoms: C_3  and  C_4
REMARK    4  A    between atoms: C_4  and  C_5
REMARK    5  A    between atoms: C_5  and  C_6
REMARK    6  A    between atoms: C_6  and  C_7
REMARK    7  A    between atoms: C_7  and  C_8
REMARK    8  A    between atoms: C_8  and  C_9
REMARK    9  A    between atoms: C_9  and  O_11
REMARK   10  A    between atoms: O_11  and  C_12
REMARK   11  A    between atoms: C_13  and  O_14
REMARK   12  A    between atoms: C_15  and  N_16
REMARK   13  A    between atoms: C_25  and  C_26
REMARK   14  A    between atoms: C_26  and  O_27
REMARK                            x       y       z     vdW  Elec       q    Type
REMARK                         _______ _______ _______ _____ _____    ______ ____
ROOT
ATOM      1  C   UNL     1       4.915   5.721  16.850  0.00  0.00    +0.000 C 
ATOM      2  C   UNL     1       4.377   4.454  17.510  0.00  0.00    +0.000 C 
ATOM      3  C   UNL     1       4.513   4.786  19.007  0.00  0.00    +0.000 C 
ATOM      4  O   UNL     1       4.443   6.216  19.159  0.00  0.00    +0.000 OA
ATOM      5  C   UNL     1       4.552   6.821  17.860  0.00  0.00    +0.000 C 
ENDROOT
BRANCH   3   6
ATOM      6  N   UNL     1       3.586   4.159  19.953  0.00  0.00    +0.000 N 
ATOM      7  C   UNL     1       2.432   4.822  20.312  0.00  0.00    +0.000 A 
ATOM      8  C   UNL     1       1.509   4.240  21.077  0.00  0.00    +0.000 A 
ATOM      9  C   UNL     1       1.814   2.870  21.531  0.00  0.00    +0.000 A 
ATOM     10  N   UNL     1       0.929   2.200  22.329  0.00  0.00    +0.000 N 
ATOM     11  N   UNL     1       2.905   2.251  21.218  0.00  0.00    +0.000 NA
ATOM     12  C   UNL     1       3.830   2.858  20.403  0.00  0.00    +0.000 A 
ATOM     13  O   UNL     1       4.859   2.258  20.095  0.00  0.00    +0.000 OA
ATOM     14  H   UNL     1       0.319   2.742  22.925  0.00  0.00    +0.000 HD
ATOM     15  H   UNL     1       1.354   1.403  22.793  0.00  0.00    +0.000 HD
ENDBRANCH   3   6
BRANCH   2  16
ATOM     16  O   UNL     1       3.047   4.209  17.045  0.00  0.00    +0.000 OA
ATOM     17  H   UNL     1       2.505   5.019  17.169  0.00  0.00    +0.000 HD
ENDBRANCH   2  16
BRANCH   1  18
ATOM     18  O   UNL     1       6.355   5.773  16.705  0.00  0.00    +0.000 OA
BRANCH  18  19
ATOM     19  C   UNL     1       6.876   4.989  15.724  0.00  0.00    +0.000 C 
ATOM     20  O   UNL     1       7.762   4.166  15.890  0.00  0.00    +0.000 OA
BRANCH  19  21
ATOM     21  C   UNL     1       6.122   5.161  14.426  0.00  0.00    +0.000 C 
BRANCH  21  22
ATOM     22  C   UNL     1       5.755   3.858  13.728  0.00  0.00    +0.000 C 
BRANCH  22  23
ATOM     23  C   UNL     1       6.384   3.761  12.341  0.00  0.00    +0.000 C 
BRANCH  23  24
ATOM     24  C   UNL     1       5.612   2.781  11.465  0.00  0.00    +0.000 C 
BRANCH  24  25
ATOM     25  C   UNL     1       4.106   2.978  11.613  0.00  0.00    +0.000 C 
BRANCH  25  26
ATOM     26  C   UNL     1       3.653   4.211  10.838  0.00  0.00    +0.000 C 
BRANCH  26  28
ATOM     27  C   UNL     1       2.184   4.923   8.934  0.00  0.00    +0.000 C 
ATOM     28  C   UNL     1       3.112   3.840   9.461  0.00  0.00    +0.000 C 
ENDBRANCH  26  28
ENDBRANCH  25  26
ENDBRANCH  24  25
ENDBRANCH  23  24
ENDBRANCH  22  23
ENDBRANCH  21  22
ENDBRANCH  19  21
ENDBRANCH  18  19
ENDBRANCH   1  18
BRANCH   5  29
ATOM     29  C   UNL     1       3.256   7.562  17.514  0.00  0.00    +0.000 C 
BRANCH  29  30
ATOM     30  O   UNL     1       2.323   7.459  18.584  0.00  0.00    +0.000 OA
ATOM     31  H   UNL     1       1.995   6.540  18.596  0.00  0.00    +0.000 HD
ENDBRANCH  29  30
ENDBRANCH   5  29
TORSDOF 13
ENDMDL
MODEL 6
REMARK VINA RESULT:      -7.2      3.950      7.503
REMARK  Name = 
REMARK  14 active torsions:
REMARK  status: ('A' for Active; 'I' for Inactive)
REMARK    1  A    between atoms: C_1  and  C_2
REMARK    2  A    between atoms: C_2  and  C_3
REMARK    3  A    between atoms: C_3  and  C_4
REMARK    4  A    between atoms: C_4  and  C_5
REMARK    5  A    between atoms: C_5  and  C_6
REMARK    6  A    between atoms: C_6  and  C_7
REMARK    7  A    between atoms: C_7  and  C_8
REMARK    8  A    between atoms: C_8  and  C_9
REMARK    9  A    between atoms: C_9  and  O_11
REMARK   10  A    between atoms: O_11  and  C_12
REMARK   11  A    between atoms: C_13  and  O_14
REMARK   12  A    between atoms: C_15  and  N_16
REMARK   13  A    between atoms: C_25  and  C_26
REMARK   14  A    between atoms: C_26  and  O_27
REMARK                            x       y       z     vdW  Elec       q    Type
REMARK                         _______ _______ _______ _____ _____    ______ ____
ROOT
ATOM      1  C   UNL     1       6.913   5.926  17.023  0.00  0.00    +0.000 C 
ATOM      2  C   UNL     1       5.931   5.332  18.031  0.00  0.00    +0.000 C 
ATOM      3  C   UNL     1       4.594   5.426  17.274  0.00  0.00    +0.000 C 
ATOM      4  O   UNL     1       4.872   5.388  15.862  0.00  0.00    +0.000 OA
ATOM      5  C   UNL     1       6.285   5.558  15.669  0.00  0.00    +0.000 C 
ENDROOT
BRANCH   3   6
ATOM      6  N   UNL     1       3.544   4.451  17.580  0.00  0.00    +0.000 N 
ATOM      7  C   UNL     1       3.785   3.108  17.382  0.00  0.00    +0.000 A 
ATOM      8  C   UNL     1       2.902   2.183  17.755  0.00  0.00    +0.000 A 
ATOM      9  C   UNL     1       1.654   2.686  18.360  0.00  0.00    +0.000 A 
ATOM     10  N   UNL     1       0.686   1.809  18.762  0.00  0.00    +0.000 N 
ATOM     11  N   UNL     1       1.409   3.945  18.528  0.00  0.00    +0.000 NA
ATOM     12  C   UNL     1       2.347   4.881  18.163  0.00  0.00    +0.000 A 
ATOM     13  O   UNL     1       2.117   6.077  18.340  0.00  0.00    +0.000 OA
ATOM     14  H   UNL     1       0.625   0.916  18.292  0.00  0.00    +0.000 HD
ATOM     15  H   UNL     1      -0.213   2.262  18.899  0.00  0.00    +0.000 HD
ENDBRANCH   3   6
BRANCH   2  16
ATOM     16  O   UNL     1       6.357   4.013  18.383  0.00  0.00    +0.000 OA
ATOM     17  H   UNL     1       7.322   3.930  18.220  0.00  0.00    +0.000 HD
ENDBRANCH   2  16
BRANCH   1  18
ATOM     18  O   UNL     1       7.007   7.371  17.038  0.00  0.00    +0.000 OA
BRANCH  18  19
ATOM     19  C   UNL     1       7.873   7.894  17.946  0.00  0.00    +0.000 C 
ATOM     20  O   UNL     1       8.439   7.251  18.817  0.00  0.00    +0.000 OA
BRANCH  19  21
ATOM     21  C   UNL     1       8.162   9.348  17.656  0.00  0.00    +0.000 C 
BRANCH  21  22
ATOM     22  C   UNL     1       9.016  10.047  18.705  0.00  0.00    +0.000 C 
BRANCH  22  23
ATOM     23  C   UNL     1       9.311  11.495  18.323  0.00  0.00    +0.000 C 
BRANCH  23  24
ATOM     24  C   UNL     1      10.636  11.953  18.924  0.00  0.00    +0.000 C 
BRANCH  24  25
ATOM     25  C   UNL     1      10.586  13.430  19.305  0.00  0.00    +0.000 C 
BRANCH  25  26
ATOM     26  C   UNL     1      10.058  14.262  18.140  0.00  0.00    +0.000 C 
BRANCH  26  28
ATOM     27  C   UNL     1       7.633  14.836  17.859  0.00  0.00    +0.000 C 
ATOM     28  C   UNL     1       8.925  15.185  18.579  0.00  0.00    +0.000 C 
ENDBRANCH  26  28
ENDBRANCH  25  26
ENDBRANCH  24  25
ENDBRANCH  23  24
ENDBRANCH  22  23
ENDBRANCH  21  22
ENDBRANCH  19  21
ENDBRANCH  18  19
ENDBRANCH   1  18
BRANCH   5  29
ATOM     29  C   UNL     1       6.887   4.294  15.044  0.00  0.00    +0.000 C 
BRANCH  29  30
ATOM     30  O   UNL     1       6.108   3.152  15.384  0.00  0.00    +0.000 OA
ATOM     31  H   UNL     1       5.517   2.969  14.629  0.00  0.00    +0.000 HD
ENDBRANCH  29  30
ENDBRANCH   5  29
TORSDOF 13
ENDMDL
MODEL 7
REMARK VINA RESULT:      -7.1      1.152      1.495
REMARK  Name = 
REMARK  14 active torsions:
REMARK  status: ('A' for Active; 'I' for Inactive)
REMARK    1  A    between atoms: C_1  and  C_2
REMARK    2  A    between atoms: C_2  and  C_3
REMARK    3  A    between atoms: C_3  and  C_4
REMARK    4  A    between atoms: C_4  and  C_5
REMARK    5  A    between atoms: C_5  and  C_6
REMARK    6  A    between atoms: C_6  and  C_7
REMARK    7  A    between atoms: C_7  and  C_8
REMARK    8  A    between atoms: C_8  and  C_9
REMARK    9  A    between atoms: C_9  and  O_11
REMARK   10  A    between atoms: O_11  and  C_12
REMARK   11  A    between atoms: C_13  and  O_14
REMARK   12  A    between atoms: C_15  and  N_16
REMARK   13  A    between atoms: C_25  and  C_26
REMARK   14  A    between atoms: C_26  and  O_27
REMARK                            x       y       z     vdW  Elec       q    Type
REMARK                         _______ _______ _______ _____ _____    ______ ____
ROOT
ATOM      1  C   UNL     1       6.813   5.489  16.007  0.00  0.00    +0.000 C 
ATOM      2  C   UNL     1       5.289   5.436  16.070  0.00  0.00    +0.000 C 
ATOM      3  C   UNL     1       5.045   4.228  16.991  0.00  0.00    +0.000 C 
ATOM      4  O   UNL     1       6.183   4.087  17.862  0.00  0.00    +0.000 OA
ATOM      5  C   UNL     1       7.237   4.935  17.377  0.00  0.00    +0.000 C 
ENDROOT
BRANCH   3   6
ATOM      6  N   UNL     1       3.821   4.193  17.797  0.00  0.00    +0.000 N 
ATOM      7  C   UNL     1       2.789   3.358  17.428  0.00  0.00    +0.000 A 
ATOM      8  C   UNL     1       1.709   3.210  18.195  0.00  0.00    +0.000 A 
ATOM      9  C   UNL     1       1.680   4.011  19.433  0.00  0.00    +0.000 A 
ATOM     10  N   UNL     1       0.606   3.933  20.274  0.00  0.00    +0.000 N 
ATOM     11  N   UNL     1       2.633   4.816  19.774  0.00  0.00    +0.000 NA
ATOM     12  C   UNL     1       3.752   4.930  18.984  0.00  0.00    +0.000 A 
ATOM     13  O   UNL     1       4.664   5.684  19.321  0.00  0.00    +0.000 OA
ATOM     14  H   UNL     1      -0.292   3.687  19.881  0.00  0.00    +0.000 HD
ATOM     15  H   UNL     1       0.569   4.710  20.928  0.00  0.00    +0.000 HD
ENDBRANCH   3   6
BRANCH   2  16
ATOM     16  O   UNL     1       4.792   6.691  16.544  0.00  0.00    +0.000 OA
ATOM     17  H   UNL     1       5.405   7.046  17.224  0.00  0.00    +0.000 HD
ENDBRANCH   2  16
BRANCH   1  18
ATOM     18  O   UNL     1       7.417   4.618  15.021  0.00  0.00    +0.000 OA
BRANCH  18  19
ATOM     19  C   UNL     1       7.706   5.196  13.825  0.00  0.00    +0.000 C 
ATOM     20  O   UNL     1       8.666   5.922  13.618  0.00  0.00    +0.000 OA
BRANCH  19  21
ATOM     21  C   UNL     1       6.769   4.714  12.742  0.00  0.00    +0.000 C 
BRANCH  21  22
ATOM     22  C   UNL     1       6.006   3.441  13.083  0.00  0.00    +0.000 C 
BRANCH  22  23
ATOM     23  C   UNL     1       6.217   2.355  12.031  0.00  0.00    +0.000 C 
BRANCH  23  24
ATOM     24  C   UNL     1       5.370   2.629  10.794  0.00  0.00    +0.000 C 
BRANCH  24  25
ATOM     25  C   UNL     1       3.919   2.915  11.172  0.00  0.00    +0.000 C 
BRANCH  25  26
ATOM     26  C   UNL     1       3.450   4.217  10.527  0.00  0.00    +0.000 C 
BRANCH  26  28
ATOM     27  C   UNL     1       2.070   5.256   8.710  0.00  0.00    +0.000 C 
ATOM     28  C   UNL     1       2.584   3.953   9.300  0.00  0.00    +0.000 C 
ENDBRANCH  26  28
ENDBRANCH  25  26
ENDBRANCH  24  25
ENDBRANCH  23  24
ENDBRANCH  22  23
ENDBRANCH  21  22
ENDBRANCH  19  21
ENDBRANCH  18  19
ENDBRANCH   1  18
BRANCH   5  29
ATOM     29  C   UNL     1       7.549   6.027  18.405  0.00  0.00    +0.000 C 
BRANCH  29  30
ATOM     30  O   UNL     1       7.191   7.308  17.896  0.00  0.00    +0.000 OA
ATOM     31  H   UNL     1       6.255   7.261  17.625  0.00  0.00    +0.000 HD
ENDBRANCH  29  30
ENDBRANCH   5  29
TORSDOF 13
ENDMDL
MODEL 8
REMARK VINA RESULT:      -7.1      4.253      7.688
REMARK  Name = 
REMARK  14 active torsions:
REMARK  status: ('A' for Active; 'I' for Inactive)
REMARK    1  A    between atoms: C_1  and  C_2
REMARK    2  A    between atoms: C_2  and  C_3
REMARK    3  A    between atoms: C_3  and  C_4
REMARK    4  A    between atoms: C_4  and  C_5
REMARK    5  A    between atoms: C_5  and  C_6
REMARK    6  A    between atoms: C_6  and  C_7
REMARK    7  A    between atoms: C_7  and  C_8
REMARK    8  A    between atoms: C_8  and  C_9
REMARK    9  A    between atoms: C_9  and  O_11
REMARK   10  A    between atoms: O_11  and  C_12
REMARK   11  A    between atoms: C_13  and  O_14
REMARK   12  A    between atoms: C_15  and  N_16
REMARK   13  A    between atoms: C_25  and  C_26
REMARK   14  A    between atoms: C_26  and  O_27
REMARK                            x       y       z     vdW  Elec       q    Type
REMARK                         _______ _______ _______ _____ _____    ______ ____
ROOT
ATOM      1  C   UNL     1       6.951   6.318  17.331  0.00  0.00    +0.000 C 
ATOM      2  C   UNL     1       5.878   5.851  18.312  0.00  0.00    +0.000 C 
ATOM      3  C   UNL     1       4.605   5.901  17.446  0.00  0.00    +0.000 C 
ATOM      4  O   UNL     1       4.988   5.716  16.071  0.00  0.00    +0.000 OA
ATOM      5  C   UNL     1       6.417   5.832  15.974  0.00  0.00    +0.000 C 
ENDROOT
BRANCH   3   6
ATOM      6  N   UNL     1       3.504   4.987  17.762  0.00  0.00    +0.000 N 
ATOM      7  C   UNL     1       3.441   3.760  17.138  0.00  0.00    +0.000 A 
ATOM      8  C   UNL     1       2.525   2.855  17.481  0.00  0.00    +0.000 A 
ATOM      9  C   UNL     1       1.579   3.260  18.537  0.00  0.00    +0.000 A 
ATOM     10  N   UNL     1       0.597   2.399  18.944  0.00  0.00    +0.000 N 
ATOM     11  N   UNL     1       1.616   4.418  19.111  0.00  0.00    +0.000 NA
ATOM     12  C   UNL     1       2.589   5.326  18.764  0.00  0.00    +0.000 A 
ATOM     13  O   UNL     1       2.630   6.420  19.324  0.00  0.00    +0.000 OA
ATOM     14  H   UNL     1       0.261   1.712  18.284  0.00  0.00    +0.000 HD
ATOM     15  H   UNL     1      -0.142   2.871  19.457  0.00  0.00    +0.000 HD
ENDBRANCH   3   6
BRANCH   2  16
ATOM     16  O   UNL     1       6.233   4.564  18.822  0.00  0.00    +0.000 OA
ATOM     17  H   UNL     1       6.800   4.101  18.167  0.00  0.00    +0.000 HD
ENDBRANCH   2  16
BRANCH   1  18
ATOM     18  O   UNL     1       7.090   7.755  17.212  0.00  0.00    +0.000 OA
BRANCH  18  19
ATOM     19  C   UNL     1       7.977   8.331  18.065  0.00  0.00    +0.000 C 
ATOM     20  O   UNL     1       8.678   7.720  18.857  0.00  0.00    +0.000 OA
BRANCH  19  21
ATOM     21  C   UNL     1       8.093   9.817  17.815  0.00  0.00    +0.000 C 
BRANCH  21  22
ATOM     22  C   UNL     1       9.443  10.418  18.182  0.00  0.00    +0.000 C 
BRANCH  22  23
ATOM     23  C   UNL     1       9.293  11.762  18.891  0.00  0.00    +0.000 C 
BRANCH  23  24
ATOM     24  C   UNL     1      10.607  12.181  19.540  0.00  0.00    +0.000 C 
BRANCH  24  25
ATOM     25  C   UNL     1      11.585  12.724  18.502  0.00  0.00    +0.000 C 
BRANCH  25  26
ATOM     26  C   UNL     1      10.888  13.730  17.590  0.00  0.00    +0.000 C 
BRANCH  26  28
ATOM     27  C   UNL     1      11.001  16.084  16.735  0.00  0.00    +0.000 C 
ATOM     28  C   UNL     1      11.805  14.897  17.239  0.00  0.00    +0.000 C 
ENDBRANCH  26  28
ENDBRANCH  25  26
ENDBRANCH  24  25
ENDBRANCH  23  24
ENDBRANCH  22  23
ENDBRANCH  21  22
ENDBRANCH  19  21
ENDBRANCH  18  19
ENDBRANCH   1  18
BRANCH   5  29
ATOM     29  C   UNL     1       7.023   4.498  15.524  0.00  0.00    +0.000 C 
BRANCH  29  30
ATOM     30  O   UNL     1       7.896   3.985  16.525  0.00  0.00    +0.000 OA
ATOM     31  H   UNL     1       7.584   3.089  16.750  0.00  0.00    +0.000 HD
ENDBRANCH  29  30
ENDBRANCH   5  29
TORSDOF 13
ENDMDL
MODEL 9
REMARK VINA RESULT:      -7.0      3.032      4.556
REMARK  Name = 
REMARK  14 active torsions:
REMARK  status: ('A' for Active; 'I' for Inactive)
REMARK    1  A    between atoms: C_1  and  C_2
REMARK    2  A    between atoms: C_2  and  C_3
REMARK    3  A    between atoms: C_3  and  C_4
REMARK    4  A    between atoms: C_4  and  C_5
REMARK    5  A    between atoms: C_5  and  C_6
REMARK    6  A    between atoms: C_6  and  C_7
REMARK    7  A    between atoms: C_7  and  C_8
REMARK    8  A    between atoms: C_8  and  C_9
REMARK    9  A    between atoms: C_9  and  O_11
REMARK   10  A    between atoms: O_11  and  C_12
REMARK   11  A    between atoms: C_13  and  O_14
REMARK   12  A    between atoms: C_15  and  N_16
REMARK   13  A    between atoms: C_25  and  C_26
REMARK   14  A    between atoms: C_26  and  O_27
REMARK                            x       y       z     vdW  Elec       q    Type
REMARK                         _______ _______ _______ _____ _____    ______ ____
ROOT
ATOM      1  C   UNL     1       3.969   4.236  18.470  0.00  0.00    +0.000 C 
ATOM      2  C   UNL     1       3.973   5.582  19.191  0.00  0.00    +0.000 C 
ATOM      3  C   UNL     1       2.924   6.379  18.393  0.00  0.00    +0.000 C 
ATOM      4  O   UNL     1       1.989   5.446  17.820  0.00  0.00    +0.000 OA
ATOM      5  C   UNL     1       2.523   4.119  17.961  0.00  0.00    +0.000 C 
ENDROOT
BRANCH   3   6
ATOM      6  N   UNL     1       2.180   7.441  19.076  0.00  0.00    +0.000 N 
ATOM      7  C   UNL     1       1.793   7.264  20.387  0.00  0.00    +0.000 A 
ATOM      8  C   UNL     1       1.219   8.247  21.079  0.00  0.00    +0.000 A 
ATOM      9  C   UNL     1       1.001   9.510  20.349  0.00  0.00    +0.000 A 
ATOM     10  N   UNL     1       0.406  10.569  20.976  0.00  0.00    +0.000 N 
ATOM     11  N   UNL     1       1.338   9.677  19.112  0.00  0.00    +0.000 NA
ATOM     12  C   UNL     1       1.958   8.659  18.426  0.00  0.00    +0.000 A 
ATOM     13  O   UNL     1       2.292   8.828  17.254  0.00  0.00    +0.000 OA
ATOM     14  H   UNL     1      -0.231  10.378  21.736  0.00  0.00    +0.000 HD
ATOM     15  H   UNL     1       0.065  11.265  20.319  0.00  0.00    +0.000 HD
ENDBRANCH   3   6
BRANCH   2  16
ATOM     16  O   UNL     1       3.679   5.378  20.575  0.00  0.00    +0.000 OA
ATOM     17  H   UNL     1       2.717   5.215  20.682  0.00  0.00    +0.000 HD
ENDBRANCH   2  16
BRANCH   1  18
ATOM     18  O   UNL     1       4.812   4.166  17.295  0.00  0.00    +0.000 OA
BRANCH  18  19
ATOM     19  C   UNL     1       6.101   4.558  17.473  0.00  0.00    +0.000 C 
ATOM     20  O   UNL     1       6.800   4.237  18.422  0.00  0.00    +0.000 OA
BRANCH  19  21
ATOM     21  C   UNL     1       6.611   5.328  16.278  0.00  0.00    +0.000 C 
BRANCH  21  22
ATOM     22  C   UNL     1       5.586   5.531  15.170  0.00  0.00    +0.000 C 
BRANCH  22  23
ATOM     23  C   UNL     1       5.289   4.232  14.426  0.00  0.00    +0.000 C 
BRANCH  23  24
ATOM     24  C   UNL     1       6.450   3.855  13.512  0.00  0.00    +0.000 C 
BRANCH  24  25
ATOM     25  C   UNL     1       5.949   3.220  12.218  0.00  0.00    +0.000 C 
BRANCH  25  26
ATOM     26  C   UNL     1       4.706   3.948  11.716  0.00  0.00    +0.000 C 
BRANCH  26  28
ATOM     27  C   UNL     1       3.016   3.765   9.872  0.00  0.00    +0.000 C 
ATOM     28  C   UNL     1       3.779   3.010  10.949  0.00  0.00    +0.000 C 
ENDBRANCH  26  28
ENDBRANCH  25  26
ENDBRANCH  24  25
ENDBRANCH  23  24
ENDBRANCH  22  23
ENDBRANCH  21  22
ENDBRANCH  19  21
ENDBRANCH  18  19
ENDBRANCH   1  18
BRANCH   5  29
ATOM     29  C   UNL     1       1.621   3.284  18.876  0.00  0.00    +0.000 C 
BRANCH  29  30
ATOM     30  O   UNL     1       2.393   2.647  19.889  0.00  0.00    +0.000 OA
ATOM     31  H   UNL     1       1.858   2.650  20.706  0.00  0.00    +0.000 HD
ENDBRANCH  29  30
ENDBRANCH   5  29
TORSDOF 13
ENDMDL
