MODEL 1
REMARK VINA RESULT:      -6.5      0.000      0.000
REMARK  Name = 
REMARK  3 active torsions:
REMARK  status: ('A' for Active; 'I' for Inactive)
REMARK    1  A    between atoms: C_1  and  C_2
REMARK    2  A    between atoms: C_2  and  O_3
REMARK    3  A    between atoms: O_3  and  C_4
REMARK                            x       y       z     vdW  Elec       q    Type
REMARK                         _______ _______ _______ _____ _____    ______ ____
ROOT
ATOM      1  C   UNL     1       7.118   4.551  16.537  0.00  0.00    +0.000 C 
ATOM      2  C   UNL     1       5.792   3.852  16.310  0.00  0.00    +0.000 C 
ATOM      3  O   UNL     1       5.008   4.141  17.457  0.00  0.00    +0.000 OA
ATOM      4  C   UNL     1       5.328   5.489  17.865  0.00  0.00    +0.000 C 
ATOM      5  C   UNL     1       5.106   5.564  19.377  0.00  0.00    +0.000 C 
ATOM      6  C   UNL     1       3.633   5.331  19.724  0.00  0.00    +0.000 C 
ATOM      7  N   UNL     1       2.778   6.236  18.962  0.00  0.00    +0.000 N 
ATOM      8  C   UNL     1       2.143   7.314  19.548  0.00  0.00    +0.000 A 
ATOM      9  C   UNL     1       1.609   7.225  20.836  0.00  0.00    +0.000 A 
ATOM     10  C   UNL     1       0.897   8.294  21.379  0.00  0.00    +0.000 A 
ATOM     11  C   UNL     1       0.730   9.443  20.629  0.00  0.00    +0.000 A 
ATOM     12  C   UNL     1       1.290   9.472  19.367  0.00  0.00    +0.000 A 
ATOM     13  N   UNL     1       1.980   8.445  18.825  0.00  0.00    +0.000 NA
ATOM     14  C   UNL     1       2.948   6.228  17.511  0.00  0.00    +0.000 C 
ATOM     15  C   UNL     1       4.402   6.479  17.140  0.00  0.00    +0.000 C 
ATOM     16  C   UNL     1       6.788   5.717  17.455  0.00  0.00    +0.000 C 
ENDROOT
BRANCH   1  17
ATOM     17  O   UNL     1       7.742   4.979  15.328  0.00  0.00    +0.000 OA
BRANCH  17  19
ATOM     18  C   UNL     1       7.625   5.031  12.915  0.00  0.00    +0.000 C 
ATOM     19  C   UNL     1       6.866   4.859  14.209  0.00  0.00    +0.000 C 
ENDBRANCH  17  19
ENDBRANCH   1  17
TORSDOF 2
ENDMDL
MODEL 2
REMARK VINA RESULT:      -6.4      2.936      4.402
REMARK  Name = 
REMARK  3 active torsions:
REMARK  status: ('A' for Active; 'I' for Inactive)
REMARK    1  A    between atoms: C_1  and  C_2
REMARK    2  A    between atoms: C_2  and  O_3
REMARK    3  A    between atoms: O_3  and  C_4
REMARK                            x       y       z     vdW  Elec       q    Type
REMARK                         _______ _______ _______ _____ _____    ______ ____
ROOT
ATOM      1  C   UNL     1       8.026   7.110  17.936  0.00  0.00    +0.000 C 
ATOM      2  C   UNL     1       6.924   7.664  17.055  0.00  0.00    +0.000 C 
ATOM      3  O   UNL     1       6.035   6.582  16.829  0.00  0.00    +0.000 OA
ATOM      4  C   UNL     1       5.996   5.801  18.044  0.00  0.00    +0.000 C 
ATOM      5  C   UNL     1       5.685   4.359  17.638  0.00  0.00    +0.000 C 
ATOM      6  C   UNL     1       4.297   4.259  16.999  0.00  0.00    +0.000 C 
ATOM      7  N   UNL     1       3.288   4.852  17.871  0.00  0.00    +0.000 N 
ATOM      8  C   UNL     1       2.380   4.082  18.574  0.00  0.00    +0.000 A 
ATOM      9  C   UNL     1       1.818   2.934  18.010  0.00  0.00    +0.000 A 
ATOM     10  C   UNL     1       0.840   2.218  18.698  0.00  0.00    +0.000 A 
ATOM     11  C   UNL     1       0.437   2.654  19.946  0.00  0.00    +0.000 A 
ATOM     12  C   UNL     1       1.038   3.790  20.452  0.00  0.00    +0.000 A 
ATOM     13  N   UNL     1       1.984   4.497  19.797  0.00  0.00    +0.000 NA
ATOM     14  C   UNL     1       3.529   6.225  18.311  0.00  0.00    +0.000 C 
ATOM     15  C   UNL     1       4.895   6.344  18.969  0.00  0.00    +0.000 C 
ATOM     16  C   UNL     1       7.375   5.963  18.694  0.00  0.00    +0.000 C 
ENDROOT
BRANCH   1  17
ATOM     17  O   UNL     1       8.589   8.082  18.814  0.00  0.00    +0.000 OA
BRANCH  17  19
ATOM     18  C   UNL     1       9.287  10.376  19.110  0.00  0.00    +0.000 C 
ATOM     19  C   UNL     1       8.498   9.399  18.273  0.00  0.00    +0.000 C 
ENDBRANCH  17  19
ENDBRANCH   1  17
TORSDOF 2
ENDMDL
MODEL 3
REMARK VINA RESULT:      -6.4      2.512      3.489
REMARK  Name = 
REMARK  3 active torsions:
REMARK  status: ('A' for Active; 'I' for Inactive)
REMARK    1  A    between atoms: C_1  and  C_2
REMARK    2  A    between atoms: C_2  and  O_3
REMARK    3  A    between atoms: O_3  and  C_4
REMARK                            x       y       z     vdW  Elec       q    Type
REMARK                         _______ _______ _______ _____ _____    ______ ____
ROOT
ATOM      1  C   UNL     1       6.838   5.159  14.158  0.00  0.00    +0.000 C 
ATOM      2  C   UNL     1       7.603   4.835  15.426  0.00  0.00    +0.000 C 
ATOM      3  O   UNL     1       6.778   5.277  16.493  0.00  0.00    +0.000 OA
ATOM      4  C   UNL     1       5.409   5.032  16.104  0.00  0.00    +0.000 C 
ATOM      5  C   UNL     1       4.548   6.079  16.813  0.00  0.00    +0.000 C 
ATOM      6  C   UNL     1       4.619   5.906  18.332  0.00  0.00    +0.000 C 
ATOM      7  N   UNL     1       4.295   4.533  18.707  0.00  0.00    +0.000 N 
ATOM      8  C   UNL     1       3.096   4.199  19.308  0.00  0.00    +0.000 A 
ATOM      9  C   UNL     1       2.506   5.037  20.257  0.00  0.00    +0.000 A 
ATOM     10  C   UNL     1       1.342   4.645  20.916  0.00  0.00    +0.000 A 
ATOM     11  C   UNL     1       0.777   3.419  20.617  0.00  0.00    +0.000 A 
ATOM     12  C   UNL     1       1.404   2.642  19.663  0.00  0.00    +0.000 A 
ATOM     13  N   UNL     1       2.533   3.004  19.018  0.00  0.00    +0.000 NA
ATOM     14  C   UNL     1       5.069   3.478  18.056  0.00  0.00    +0.000 C 
ATOM     15  C   UNL     1       4.996   3.617  16.542  0.00  0.00    +0.000 C 
ATOM     16  C   UNL     1       5.376   5.154  14.576  0.00  0.00    +0.000 C 
ENDROOT
BRANCH   1  17
ATOM     17  O   UNL     1       7.096   4.245  13.095  0.00  0.00    +0.000 OA
BRANCH  17  19
ATOM     18  C   UNL     1       6.246   2.499  11.656  0.00  0.00    +0.000 C 
ATOM     19  C   UNL     1       5.943   3.470  12.772  0.00  0.00    +0.000 C 
ENDBRANCH  17  19
ENDBRANCH   1  17
TORSDOF 2
ENDMDL
MODEL 4
REMARK VINA RESULT:      -6.0      3.113      6.864
REMARK  Name = 
REMARK  3 active torsions:
REMARK  status: ('A' for Active; 'I' for Inactive)
REMARK    1  A    between atoms: C_1  and  C_2
REMARK    2  A    between atoms: C_2  and  O_3
REMARK    3  A    between atoms: O_3  and  C_4
REMARK                            x       y       z     vdW  Elec       q    Type
REMARK                         _______ _______ _______ _____ _____    ______ ____
ROOT
ATOM      1  C   UNL     1       3.454   3.581  20.488  0.00  0.00    +0.000 C 
ATOM      2  C   UNL     1       3.101   4.940  19.916  0.00  0.00    +0.000 C 
ATOM      3  O   UNL     1       4.186   5.292  19.071  0.00  0.00    +0.000 OA
ATOM      4  C   UNL     1       4.653   4.077  18.447  0.00  0.00    +0.000 C 
ATOM      5  C   UNL     1       6.142   4.268  18.154  0.00  0.00    +0.000 C 
ATOM      6  C   UNL     1       6.359   5.399  17.147  0.00  0.00    +0.000 C 
ATOM      7  N   UNL     1       5.553   5.182  15.950  0.00  0.00    +0.000 N 
ATOM      8  C   UNL     1       6.111   4.788  14.749  0.00  0.00    +0.000 A 
ATOM      9  C   UNL     1       7.347   5.286  14.329  0.00  0.00    +0.000 A 
ATOM     10  C   UNL     1       7.856   4.946  13.077  0.00  0.00    +0.000 A 
ATOM     11  C   UNL     1       7.124   4.107  12.257  0.00  0.00    +0.000 A 
ATOM     12  C   UNL     1       5.915   3.642  12.734  0.00  0.00    +0.000 A 
ATOM     13  N   UNL     1       5.406   3.964  13.942  0.00  0.00    +0.000 NA
ATOM     14  C   UNL     1       4.120   4.976  16.156  0.00  0.00    +0.000 C 
ATOM     15  C   UNL     1       3.879   3.840  17.140  0.00  0.00    +0.000 C 
ATOM     16  C   UNL     1       4.372   2.952  19.450  0.00  0.00    +0.000 C 
ENDROOT
BRANCH   1  17
ATOM     17  O   UNL     1       2.314   2.770  20.758  0.00  0.00    +0.000 OA
BRANCH  17  19
ATOM     18  C   UNL     1       0.803   2.353  18.918  0.00  0.00    +0.000 C 
ATOM     19  C   UNL     1       1.152   3.249  20.082  0.00  0.00    +0.000 C 
ENDBRANCH  17  19
ENDBRANCH   1  17
TORSDOF 2
ENDMDL
MODEL 5
REMARK VINA RESULT:      -5.7      3.251      4.800
REMARK  Name = 
REMARK  3 active torsions:
REMARK  status: ('A' for Active; 'I' for Inactive)
REMARK    1  A    between atoms: C_1  and  C_2
REMARK    2  A    between atoms: C_2  and  O_3
REMARK    3  A    between atoms: O_3  and  C_4
REMARK                            x       y       z     vdW  Elec       q    Type
REMARK                         _______ _______ _______ _____ _____    ______ ____
ROOT
ATOM      1  C   UNL     1       3.032   3.400  18.716  0.00  0.00    +0.000 C 
ATOM      2  C   UNL     1       4.014   4.284  19.460  0.00  0.00    +0.000 C 
ATOM      3  O   UNL     1       3.769   5.603  18.994  0.00  0.00    +0.000 OA
ATOM      4  C   UNL     1       2.347   5.719  18.769  0.00  0.00    +0.000 C 
ATOM      5  C   UNL     1       2.152   6.754  17.660  0.00  0.00    +0.000 C 
ATOM      6  C   UNL     1       2.648   8.132  18.108  0.00  0.00    +0.000 C 
ATOM      7  N   UNL     1       2.031   8.511  19.375  0.00  0.00    +0.000 N 
ATOM      8  C   UNL     1       1.050   9.481  19.454  0.00  0.00    +0.000 A 
ATOM      9  C   UNL     1       1.105  10.630  18.661  0.00  0.00    +0.000 A 
ATOM     10  C   UNL     1       0.154  11.638  18.815  0.00  0.00    +0.000 A 
ATOM     11  C   UNL     1      -0.844  11.485  19.758  0.00  0.00    +0.000 A 
ATOM     12  C   UNL     1      -0.849  10.323  20.503  0.00  0.00    +0.000 A 
ATOM     13  N   UNL     1       0.065   9.338  20.370  0.00  0.00    +0.000 NA
ATOM     14  C   UNL     1       2.164   7.559  20.476  0.00  0.00    +0.000 C 
ATOM     15  C   UNL     1       1.658   6.185  20.061  0.00  0.00    +0.000 C 
ATOM     16  C   UNL     1       1.866   4.316  18.378  0.00  0.00    +0.000 C 
ENDROOT
BRANCH   1  17
ATOM     17  O   UNL     1       2.621   2.260  19.466  0.00  0.00    +0.000 OA
BRANCH  17  19
ATOM     18  C   UNL     1       1.591   2.629  21.621  0.00  0.00    +0.000 C 
ATOM     19  C   UNL     1       1.380   2.486  20.133  0.00  0.00    +0.000 C 
ENDBRANCH  17  19
ENDBRANCH   1  17
TORSDOF 2
ENDMDL
MODEL 6
REMARK VINA RESULT:      -5.7      2.410      4.146
REMARK  Name = 
REMARK  3 active torsions:
REMARK  status: ('A' for Active; 'I' for Inactive)
REMARK    1  A    between atoms: C_1  and  C_2
REMARK    2  A    between atoms: C_2  and  O_3
REMARK    3  A    between atoms: O_3  and  C_4
REMARK                            x       y       z     vdW  Elec       q    Type
REMARK                         _______ _______ _______ _____ _____    ______ ____
ROOT
ATOM      1  C   UNL     1       6.678   4.175  12.433  0.00  0.00    +0.000 C 
ATOM      2  C   UNL     1       7.714   4.656  13.429  0.00  0.00    +0.000 C 
ATOM      3  O   UNL     1       6.993   5.394  14.404  0.00  0.00    +0.000 OA
ATOM      4  C   UNL     1       5.719   4.736  14.580  0.00  0.00    +0.000 C 
ATOM      5  C   UNL     1       4.716   5.810  15.005  0.00  0.00    +0.000 C 
ATOM      6  C   UNL     1       5.100   6.411  16.359  0.00  0.00    +0.000 C 
ATOM      7  N   UNL     1       5.283   5.357  17.353  0.00  0.00    +0.000 N 
ATOM      8  C   UNL     1       4.369   5.135  18.365  0.00  0.00    +0.000 A 
ATOM      9  C   UNL     1       3.725   6.198  19.003  0.00  0.00    +0.000 A 
ATOM     10  C   UNL     1       2.871   5.961  20.079  0.00  0.00    +0.000 A 
ATOM     11  C   UNL     1       2.666   4.662  20.504  0.00  0.00    +0.000 A 
ATOM     12  C   UNL     1       3.324   3.656  19.826  0.00  0.00    +0.000 A 
ATOM     13  N   UNL     1       4.157   3.867  18.785  0.00  0.00    +0.000 NA
ATOM     14  C   UNL     1       6.217   4.288  17.007  0.00  0.00    +0.000 C 
ATOM     15  C   UNL     1       5.842   3.661  15.672  0.00  0.00    +0.000 C 
ATOM     16  C   UNL     1       5.384   4.095  13.228  0.00  0.00    +0.000 C 
ENDROOT
BRANCH   1  17
ATOM     17  O   UNL     1       7.014   2.928  11.828  0.00  0.00    +0.000 OA
BRANCH  17  19
ATOM     18  C   UNL     1       6.240   0.767  11.072  0.00  0.00    +0.000 C 
ATOM     19  C   UNL     1       5.854   2.150  11.539  0.00  0.00    +0.000 C 
ENDBRANCH  17  19
ENDBRANCH   1  17
TORSDOF 2
ENDMDL
MODEL 7
REMARK VINA RESULT:      -5.6      2.593      3.569
REMARK  Name = 
REMARK  3 active torsions:
REMARK  status: ('A' for Active; 'I' for Inactive)
REMARK    1  A    between atoms: C_1  and  C_2
REMARK    2  A    between atoms: C_2  and  O_3
REMARK    3  A    between atoms: O_3  and  C_4
REMARK                            x       y       z     vdW  Elec       q    Type
REMARK                         _______ _______ _______ _____ _____    ______ ____
ROOT
ATOM      1  C   UNL     1       6.625   4.940  14.237  0.00  0.00    +0.000 C 
ATOM      2  C   UNL     1       7.460   4.853  15.500  0.00  0.00    +0.000 C 
ATOM      3  O   UNL     1       6.608   5.285  16.550  0.00  0.00    +0.000 OA
ATOM      4  C   UNL     1       5.278   4.816  16.241  0.00  0.00    +0.000 C 
ATOM      5  C   UNL     1       4.297   5.802  16.878  0.00  0.00    +0.000 C 
ATOM      6  C   UNL     1       4.430   5.796  18.403  0.00  0.00    +0.000 C 
ATOM      7  N   UNL     1       4.311   4.437  18.922  0.00  0.00    +0.000 N 
ATOM      8  C   UNL     1       3.186   4.004  19.599  0.00  0.00    +0.000 A 
ATOM      9  C   UNL     1       2.508   4.846  20.485  0.00  0.00    +0.000 A 
ATOM     10  C   UNL     1       1.428   4.367  21.224  0.00  0.00    +0.000 A 
ATOM     11  C   UNL     1       1.034   3.052  21.068  0.00  0.00    +0.000 A 
ATOM     12  C   UNL     1       1.739   2.275  20.170  0.00  0.00    +0.000 A 
ATOM     13  N   UNL     1       2.789   2.721  19.449  0.00  0.00    +0.000 NA
ATOM     14  C   UNL     1       5.208   3.437  18.346  0.00  0.00    +0.000 C 
ATOM     15  C   UNL     1       5.078   3.410  16.830  0.00  0.00    +0.000 C 
ATOM     16  C   UNL     1       5.189   4.776  14.711  0.00  0.00    +0.000 C 
ENDROOT
BRANCH   1  17
ATOM     17  O   UNL     1       6.982   3.966  13.259  0.00  0.00    +0.000 OA
BRANCH  17  19
ATOM     18  C   UNL     1       8.161   5.781  12.184  0.00  0.00    +0.000 C 
ATOM     19  C   UNL     1       7.283   4.566  12.000  0.00  0.00    +0.000 C 
ENDBRANCH  17  19
ENDBRANCH   1  17
TORSDOF 2
ENDMDL
MODEL 8
REMARK VINA RESULT:      -5.6      2.672      3.987
REMARK  Name = 
REMARK  3 active torsions:
REMARK  status: ('A' for Active; 'I' for Inactive)
REMARK    1  A    between atoms: C_1  and  C_2
REMARK    2  A    between atoms: C_2  and  O_3
REMARK    3  A    between atoms: O_3  and  C_4
REMARK                            x       y       z     vdW  Elec       q    Type
REMARK                         _______ _______ _______ _____ _____    ______ ____
ROOT
ATOM      1  C   UNL     1       7.029   6.085  15.982  0.00  0.00    +0.000 C 
ATOM      2  C   UNL     1       5.691   6.765  15.772  0.00  0.00    +0.000 C 
ATOM      3  O   UNL     1       4.711   5.788  16.089  0.00  0.00    +0.000 OA
ATOM      4  C   UNL     1       5.231   5.003  17.184  0.00  0.00    +0.000 C 
ATOM      5  C   UNL     1       4.615   3.607  17.066  0.00  0.00    +0.000 C 
ATOM      6  C   UNL     1       3.095   3.666  17.240  0.00  0.00    +0.000 C 
ATOM      7  N   UNL     1       2.748   4.355  18.479  0.00  0.00    +0.000 N 
ATOM      8  C   UNL     1       2.265   3.680  19.585  0.00  0.00    +0.000 A 
ATOM      9  C   UNL     1       1.382   2.606  19.447  0.00  0.00    +0.000 A 
ATOM     10  C   UNL     1       0.838   1.993  20.574  0.00  0.00    +0.000 A 
ATOM     11  C   UNL     1       1.186   2.457  21.829  0.00  0.00    +0.000 A 
ATOM     12  C   UNL     1       2.070   3.515  21.897  0.00  0.00    +0.000 A 
ATOM     13  N   UNL     1       2.603   4.123  20.816  0.00  0.00    +0.000 NA
ATOM     14  C   UNL     1       3.315   5.688  18.666  0.00  0.00    +0.000 C 
ATOM     15  C   UNL     1       4.829   5.652  18.518  0.00  0.00    +0.000 C 
ATOM     16  C   UNL     1       6.756   5.007  17.020  0.00  0.00    +0.000 C 
ENDROOT
BRANCH   1  17
ATOM     17  O   UNL     1       8.057   6.981  16.397  0.00  0.00    +0.000 OA
BRANCH  17  19
ATOM     18  C   UNL     1       8.103   8.967  17.772  0.00  0.00    +0.000 C 
ATOM     19  C   UNL     1       7.822   7.485  17.711  0.00  0.00    +0.000 C 
ENDBRANCH  17  19
ENDBRANCH   1  17
TORSDOF 2
ENDMDL
MODEL 9
REMARK VINA RESULT:      -5.6      2.403      3.545
REMARK  Name = 
REMARK  3 active torsions:
REMARK  status: ('A' for Active; 'I' for Inactive)
REMARK    1  A    between atoms: C_1  and  C_2
REMARK    2  A    between atoms: C_2  and  O_3
REMARK    3  A    between atoms: O_3  and  C_4
REMARK                            x       y       z     vdW  Elec       q    Type
REMARK                         _______ _______ _______ _____ _____    ______ ____
ROOT
ATOM      1  C   UNL     1       6.657   5.979  14.994  0.00  0.00    +0.000 C 
ATOM      2  C   UNL     1       7.292   6.297  16.333  0.00  0.00    +0.000 C 
ATOM      3  O   UNL     1       6.212   6.445  17.242  0.00  0.00    +0.000 OA
ATOM      4  C   UNL     1       5.198   5.490  16.859  0.00  0.00    +0.000 C 
ATOM      5  C   UNL     1       3.850   6.074  17.285  0.00  0.00    +0.000 C 
ATOM      6  C   UNL     1       3.775   6.219  18.807  0.00  0.00    +0.000 C 
ATOM      7  N   UNL     1       4.094   4.952  19.459  0.00  0.00    +0.000 N 
ATOM      8  C   UNL     1       3.128   4.174  20.067  0.00  0.00    +0.000 A 
ATOM      9  C   UNL     1       2.079   4.755  20.785  0.00  0.00    +0.000 A 
ATOM     10  C   UNL     1       1.162   3.955  21.464  0.00  0.00    +0.000 A 
ATOM     11  C   UNL     1       1.301   2.581  21.416  0.00  0.00    +0.000 A 
ATOM     12  C   UNL     1       2.353   2.069  20.683  0.00  0.00    +0.000 A 
ATOM     13  N   UNL     1       3.252   2.829  20.022  0.00  0.00    +0.000 NA
ATOM     14  C   UNL     1       5.363   4.328  19.087  0.00  0.00    +0.000 C 
ATOM     15  C   UNL     1       5.452   4.154  17.577  0.00  0.00    +0.000 C 
ATOM     16  C   UNL     1       5.332   5.319  15.341  0.00  0.00    +0.000 C 
ENDROOT
BRANCH   1  17
ATOM     17  O   UNL     1       7.470   5.148  14.168  0.00  0.00    +0.000 OA
BRANCH  17  19
ATOM     18  C   UNL     1       6.923   4.009  12.108  0.00  0.00    +0.000 C 
ATOM     19  C   UNL     1       6.724   4.071  13.603  0.00  0.00    +0.000 C 
ENDBRANCH  17  19
ENDBRANCH   1  17
TORSDOF 2
ENDMDL
