MODEL 1
REMARK VINA RESULT:      -8.4      0.000      0.000
REMARK  Name = 
REMARK  5 active torsions:
REMARK  status: ('A' for Active; 'I' for Inactive)
REMARK    1  A    between atoms: S_2  and  C_4
REMARK    2  A    between atoms: S_2  and  N_17
REMARK    3  A    between atoms: C_8  and  N_9
REMARK    4  A    between atoms: N_9  and  C_10
REMARK    5  A    between atoms: C_10  and  C_11
REMARK                            x       y       z     vdW  Elec       q    Type
REMARK                         _______ _______ _______ _____ _____    ______ ____
ROOT
ATOM      1  C   UNL     1       6.495   5.787  17.251  0.00  0.00    +0.000 A 
ATOM      2  C   UNL     1       7.091   5.079  18.315  0.00  0.00    +0.000 A 
ATOM      3  C   UNL     1       7.944   5.737  19.201  0.00  0.00    +0.000 A 
ATOM      4  C   UNL     1       8.263   7.077  18.993  0.00  0.00    +0.000 A 
ATOM      5  C   UNL     1       7.768   7.799  17.887  0.00  0.00    +0.000 A 
ATOM      6  C   UNL     1       6.868   7.135  17.015  0.00  0.00    +0.000 A 
ENDROOT
BRANCH   1   8
ATOM      7  O   UNL     1       5.102   5.599  14.982  0.00  0.00    +0.000 OA
ATOM      8  S   UNL     1       5.191   4.936  16.261  0.00  0.00    +0.000 S 
ATOM      9  O   UNL     1       5.472   3.510  16.352  0.00  0.00    +0.000 OA
BRANCH   8  10
ATOM     10  N   UNL     1       3.700   5.214  17.159  0.00  0.00    +0.000 N 
ATOM     11  C   UNL     1       3.631   6.613  17.625  0.00  0.00    +0.000 C 
ATOM     12  C   UNL     1       3.300   6.901  19.061  0.00  0.00    +0.000 C 
ATOM     13  C   UNL     1       2.692   5.815  19.890  0.00  0.00    +0.000 C 
ATOM     14  C   UNL     1       2.802   4.426  19.358  0.00  0.00    +0.000 A 
ATOM     15  C   UNL     1       2.219   3.457  20.210  0.00  0.00    +0.000 A 
ATOM     16  C   UNL     1       1.676   2.309  19.677  0.00  0.00    +0.000 A 
ATOM     17  C   UNL     1       1.821   2.089  18.310  0.00  0.00    +0.000 A 
ATOM     18  C   UNL     1       2.588   2.968  17.497  0.00  0.00    +0.000 A 
ATOM     19  C   UNL     1       3.105   4.168  18.008  0.00  0.00    +0.000 A 
ENDBRANCH   8  10
ENDBRANCH   1   8
BRANCH   5  20
ATOM     20  N   UNL     1       8.335   9.052  17.685  0.00  0.00    +0.000 N 
ATOM     21  H   UNL     1       8.854   9.141  16.812  0.00  0.00    +0.000 HD
BRANCH  20  22
ATOM     22  C   UNL     1       8.936   9.923  18.691  0.00  0.00    +0.000 C 
BRANCH  22  23
ATOM     23  C   UNL     1       9.376  11.263  18.142  0.00  0.00    +0.000 A 
ATOM     24  C   UNL     1       8.593  12.327  17.723  0.00  0.00    +0.000 A 
ATOM     25  N   UNL     1       9.483  13.280  17.282  0.00  0.00    +0.000 N 
ATOM     26  C   UNL     1      10.734  12.776  17.424  0.00  0.00    +0.000 A 
ATOM     27  N   UNL     1      10.718  11.572  17.940  0.00  0.00    +0.000 NA
ATOM     28  H   UNL     1       9.231  14.186  16.898  0.00  0.00    +0.000 HD
ENDBRANCH  22  23
ENDBRANCH  20  22
ENDBRANCH   5  20
TORSDOF 5
ENDMDL
MODEL 2
REMARK VINA RESULT:      -8.1      4.280      6.972
REMARK  Name = 
REMARK  5 active torsions:
REMARK  status: ('A' for Active; 'I' for Inactive)
REMARK    1  A    between atoms: S_2  and  C_4
REMARK    2  A    between atoms: S_2  and  N_17
REMARK    3  A    between atoms: C_8  and  N_9
REMARK    4  A    between atoms: N_9  and  C_10
REMARK    5  A    between atoms: C_10  and  C_11
REMARK                            x       y       z     vdW  Elec       q    Type
REMARK                         _______ _______ _______ _____ _____    ______ ____
ROOT
ATOM      1  C   UNL     1       2.797   5.529  18.737  0.00  0.00    +0.000 A 
ATOM      2  C   UNL     1       2.990   6.483  17.717  0.00  0.00    +0.000 A 
ATOM      3  C   UNL     1       2.721   7.831  17.962  0.00  0.00    +0.000 A 
ATOM      4  C   UNL     1       2.194   8.222  19.191  0.00  0.00    +0.000 A 
ATOM      5  C   UNL     1       1.893   7.289  20.205  0.00  0.00    +0.000 A 
ATOM      6  C   UNL     1       2.210   5.928  19.965  0.00  0.00    +0.000 A 
ENDROOT
BRANCH   1   8
ATOM      7  O   UNL     1       3.211   3.060  19.663  0.00  0.00    +0.000 OA
ATOM      8  S   UNL     1       3.396   3.808  18.444  0.00  0.00    +0.000 S 
ATOM      9  O   UNL     1       2.792   3.371  17.192  0.00  0.00    +0.000 OA
BRANCH   8  10
ATOM     10  N   UNL     1       5.123   3.988  18.133  0.00  0.00    +0.000 N 
ATOM     11  C   UNL     1       5.803   4.552  19.315  0.00  0.00    +0.000 C 
ATOM     12  C   UNL     1       6.732   5.720  19.148  0.00  0.00    +0.000 C 
ATOM     13  C   UNL     1       7.234   6.049  17.778  0.00  0.00    +0.000 C 
ATOM     14  C   UNL     1       6.495   5.446  16.632  0.00  0.00    +0.000 A 
ATOM     15  C   UNL     1       7.021   5.822  15.373  0.00  0.00    +0.000 A 
ATOM     16  C   UNL     1       6.924   4.960  14.301  0.00  0.00    +0.000 A 
ATOM     17  C   UNL     1       6.205   3.781  14.472  0.00  0.00    +0.000 A 
ATOM     18  C   UNL     1       5.506   3.509  15.680  0.00  0.00    +0.000 A 
ATOM     19  C   UNL     1       5.633   4.346  16.799  0.00  0.00    +0.000 A 
ENDBRANCH   8  10
ENDBRANCH   1   8
BRANCH   5  20
ATOM     20  N   UNL     1       1.177   7.788  21.287  0.00  0.00    +0.000 N 
ATOM     21  H   UNL     1       0.167   7.686  21.203  0.00  0.00    +0.000 HD
BRANCH  20  22
ATOM     22  C   UNL     1       1.475   8.986  22.068  0.00  0.00    +0.000 C 
BRANCH  22  23
ATOM     23  C   UNL     1       0.334   9.980  22.106  0.00  0.00    +0.000 A 
ATOM     24  C   UNL     1      -0.234  10.687  21.058  0.00  0.00    +0.000 A 
ATOM     25  N   UNL     1      -1.201  11.476  21.636  0.00  0.00    +0.000 N 
ATOM     26  C   UNL     1      -1.179  11.247  22.972  0.00  0.00    +0.000 A 
ATOM     27  N   UNL     1      -0.277  10.355  23.299  0.00  0.00    +0.000 NA
ATOM     28  H   UNL     1      -1.802  12.128  21.139  0.00  0.00    +0.000 HD
ENDBRANCH  22  23
ENDBRANCH  20  22
ENDBRANCH   5  20
TORSDOF 5
ENDMDL
MODEL 3
REMARK VINA RESULT:      -7.9      1.056      2.077
REMARK  Name = 
REMARK  5 active torsions:
REMARK  status: ('A' for Active; 'I' for Inactive)
REMARK    1  A    between atoms: S_2  and  C_4
REMARK    2  A    between atoms: S_2  and  N_17
REMARK    3  A    between atoms: C_8  and  N_9
REMARK    4  A    between atoms: N_9  and  C_10
REMARK    5  A    between atoms: C_10  and  C_11
REMARK                            x       y       z     vdW  Elec       q    Type
REMARK                         _______ _______ _______ _____ _____    ______ ____
ROOT
ATOM      1  C   UNL     1       6.271   6.432  17.539  0.00  0.00    +0.000 A 
ATOM      2  C   UNL     1       7.005   5.606  18.415  0.00  0.00    +0.000 A 
ATOM      3  C   UNL     1       8.088   6.127  19.124  0.00  0.00    +0.000 A 
ATOM      4  C   UNL     1       8.487   7.445  18.911  0.00  0.00    +0.000 A 
ATOM      5  C   UNL     1       7.843   8.278  17.973  0.00  0.00    +0.000 A 
ATOM      6  C   UNL     1       6.717   7.754  17.289  0.00  0.00    +0.000 A 
ENDROOT
BRANCH   1   8
ATOM      7  O   UNL     1       3.705   6.798  16.901  0.00  0.00    +0.000 OA
ATOM      8  S   UNL     1       4.708   5.765  16.818  0.00  0.00    +0.000 S 
ATOM      9  O   UNL     1       5.069   5.167  15.540  0.00  0.00    +0.000 OA
BRANCH   8  10
ATOM     10  N   UNL     1       4.259   4.437  17.886  0.00  0.00    +0.000 N 
ATOM     11  C   UNL     1       4.579   3.140  17.260  0.00  0.00    +0.000 C 
ATOM     12  C   UNL     1       3.538   2.058  17.221  0.00  0.00    +0.000 C 
ATOM     13  C   UNL     1       2.352   2.170  18.126  0.00  0.00    +0.000 C 
ATOM     14  C   UNL     1       2.089   3.511  18.721  0.00  0.00    +0.000 A 
ATOM     15  C   UNL     1       0.940   3.536  19.547  0.00  0.00    +0.000 A 
ATOM     16  C   UNL     1       0.877   4.407  20.614  0.00  0.00    +0.000 A 
ATOM     17  C   UNL     1       1.916   5.319  20.776  0.00  0.00    +0.000 A 
ATOM     18  C   UNL     1       2.965   5.423  19.822  0.00  0.00    +0.000 A 
ATOM     19  C   UNL     1       3.075   4.515  18.758  0.00  0.00    +0.000 A 
ENDBRANCH   8  10
ENDBRANCH   1   8
BRANCH   5  20
ATOM     20  N   UNL     1       8.476   9.488  17.710  0.00  0.00    +0.000 N 
ATOM     21  H   UNL     1       8.959   9.521  16.813  0.00  0.00    +0.000 HD
BRANCH  20  22
ATOM     22  C   UNL     1       9.175  10.346  18.662  0.00  0.00    +0.000 C 
BRANCH  22  23
ATOM     23  C   UNL     1       9.708  11.622  18.047  0.00  0.00    +0.000 A 
ATOM     24  C   UNL     1       9.011  12.761  17.674  0.00  0.00    +0.000 A 
ATOM     25  N   UNL     1       9.956  13.603  17.134  0.00  0.00    +0.000 N 
ATOM     26  C   UNL     1      11.152  12.965  17.177  0.00  0.00    +0.000 A 
ATOM     27  N   UNL     1      11.052  11.777  17.720  0.00  0.00    +0.000 NA
ATOM     28  H   UNL     1       9.771  14.526  16.753  0.00  0.00    +0.000 HD
ENDBRANCH  22  23
ENDBRANCH  20  22
ENDBRANCH   5  20
TORSDOF 5
ENDMDL
MODEL 4
REMARK VINA RESULT:      -7.9      5.575      8.015
REMARK  Name = 
REMARK  5 active torsions:
REMARK  status: ('A' for Active; 'I' for Inactive)
REMARK    1  A    between atoms: S_2  and  C_4
REMARK    2  A    between atoms: S_2  and  N_17
REMARK    3  A    between atoms: C_8  and  N_9
REMARK    4  A    between atoms: N_9  and  C_10
REMARK    5  A    between atoms: C_10  and  C_11
REMARK                            x       y       z     vdW  Elec       q    Type
REMARK                         _______ _______ _______ _____ _____    ______ ____
ROOT
ATOM      1  C   UNL     1       1.648   8.401  19.957  0.00  0.00    +0.000 A 
ATOM      2  C   UNL     1       1.889   8.961  18.685  0.00  0.00    +0.000 A 
ATOM      3  C   UNL     1       2.537   8.210  17.703  0.00  0.00    +0.000 A 
ATOM      4  C   UNL     1       3.010   6.935  18.003  0.00  0.00    +0.000 A 
ATOM      5  C   UNL     1       2.878   6.373  19.290  0.00  0.00    +0.000 A 
ATOM      6  C   UNL     1       2.180   7.124  20.269  0.00  0.00    +0.000 A 
ENDROOT
BRANCH   1   8
ATOM      7  O   UNL     1      -0.606   8.549  21.379  0.00  0.00    +0.000 OA
ATOM      8  S   UNL     1       0.577   9.337  21.132  0.00  0.00    +0.000 S 
ATOM      9  O   UNL     1       1.440   9.763  22.225  0.00  0.00    +0.000 OA
BRANCH   8  10
ATOM     10  N   UNL     1       0.123  10.796  20.252  0.00  0.00    +0.000 N 
ATOM     11  C   UNL     1       0.600  11.998  20.963  0.00  0.00    +0.000 C 
ATOM     12  C   UNL     1      -0.348  13.134  21.217  0.00  0.00    +0.000 C 
ATOM     13  C   UNL     1      -1.623  13.194  20.439  0.00  0.00    +0.000 C 
ATOM     14  C   UNL     1      -2.044  11.942  19.748  0.00  0.00    +0.000 A 
ATOM     15  C   UNL     1      -3.269  12.077  19.051  0.00  0.00    +0.000 A 
ATOM     16  C   UNL     1      -3.502  11.328  17.918  0.00  0.00    +0.000 A 
ATOM     17  C   UNL     1      -2.557  10.372  17.557  0.00  0.00    +0.000 A 
ATOM     18  C   UNL     1      -1.429  10.102  18.380  0.00  0.00    +0.000 A 
ATOM     19  C   UNL     1      -1.145  10.885  19.508  0.00  0.00    +0.000 A 
ENDBRANCH   8  10
ENDBRANCH   1   8
BRANCH   5  20
ATOM     20  N   UNL     1       3.581   5.193  19.505  0.00  0.00    +0.000 N 
ATOM     21  H   UNL     1       4.359   5.282  20.157  0.00  0.00    +0.000 HD
BRANCH  20  22
ATOM     22  C   UNL     1       3.894   4.158  18.523  0.00  0.00    +0.000 C 
BRANCH  22  23
ATOM     23  C   UNL     1       5.277   4.294  17.924  0.00  0.00    +0.000 A 
ATOM     24  C   UNL     1       5.676   4.094  16.612  0.00  0.00    +0.000 A 
ATOM     25  N   UNL     1       7.035   4.308  16.610  0.00  0.00    +0.000 N 
ATOM     26  C   UNL     1       7.410   4.603  17.879  0.00  0.00    +0.000 A 
ATOM     27  N   UNL     1       6.388   4.610  18.700  0.00  0.00    +0.000 NA
ATOM     28  H   UNL     1       7.641   4.232  15.798  0.00  0.00    +0.000 HD
ENDBRANCH  22  23
ENDBRANCH  20  22
ENDBRANCH   5  20
TORSDOF 5
ENDMDL
MODEL 5
REMARK VINA RESULT:      -7.8      5.864      9.193
REMARK  Name = 
REMARK  5 active torsions:
REMARK  status: ('A' for Active; 'I' for Inactive)
REMARK    1  A    between atoms: S_2  and  C_4
REMARK    2  A    between atoms: S_2  and  N_17
REMARK    3  A    between atoms: C_8  and  N_9
REMARK    4  A    between atoms: N_9  and  C_10
REMARK    5  A    between atoms: C_10  and  C_11
REMARK                            x       y       z     vdW  Elec       q    Type
REMARK                         _______ _______ _______ _____ _____    ______ ____
ROOT
ATOM      1  C   UNL     1       1.412   8.826  19.934  0.00  0.00    +0.000 A 
ATOM      2  C   UNL     1       1.654   9.283  18.622  0.00  0.00    +0.000 A 
ATOM      3  C   UNL     1       2.325   8.467  17.711  0.00  0.00    +0.000 A 
ATOM      4  C   UNL     1       2.819   7.230  18.119  0.00  0.00    +0.000 A 
ATOM      5  C   UNL     1       2.686   6.774  19.447  0.00  0.00    +0.000 A 
ATOM      6  C   UNL     1       1.965   7.590  20.355  0.00  0.00    +0.000 A 
ENDROOT
BRANCH   1   8
ATOM      7  O   UNL     1      -0.789   9.002  21.433  0.00  0.00    +0.000 OA
ATOM      8  S   UNL     1       0.313   9.836  21.019  0.00  0.00    +0.000 S 
ATOM      9  O   UNL     1       1.180  10.480  21.997  0.00  0.00    +0.000 OA
BRANCH   8  10
ATOM     10  N   UNL     1      -0.295  11.114  19.967  0.00  0.00    +0.000 N 
ATOM     11  C   UNL     1       0.046  12.440  20.517  0.00  0.00    +0.000 C 
ATOM     12  C   UNL     1      -1.021  13.490  20.636  0.00  0.00    +0.000 C 
ATOM     13  C   UNL     1      -2.293  13.312  19.871  0.00  0.00    +0.000 C 
ATOM     14  C   UNL     1      -2.573  11.944  19.348  0.00  0.00    +0.000 A 
ATOM     15  C   UNL     1      -3.803  11.856  18.653  0.00  0.00    +0.000 A 
ATOM     16  C   UNL     1      -3.951  10.949  17.626  0.00  0.00    +0.000 A 
ATOM     17  C   UNL     1      -2.906  10.065  17.378  0.00  0.00    +0.000 A 
ATOM     18  C   UNL     1      -1.757  10.024  18.215  0.00  0.00    +0.000 A 
ATOM     19  C   UNL     1      -1.563  10.970  19.233  0.00  0.00    +0.000 A 
ENDBRANCH   8  10
ENDBRANCH   1   8
BRANCH   5  20
ATOM     20  N   UNL     1       3.409   5.630  19.765  0.00  0.00    +0.000 N 
ATOM     21  H   UNL     1       4.040   5.315  19.029  0.00  0.00    +0.000 HD
BRANCH  20  22
ATOM     22  C   UNL     1       2.943   4.473  20.524  0.00  0.00    +0.000 C 
BRANCH  22  23
ATOM     23  C   UNL     1       2.324   3.395  19.662  0.00  0.00    +0.000 A 
ATOM     24  C   UNL     1       2.951   2.503  18.806  0.00  0.00    +0.000 A 
ATOM     25  N   UNL     1       1.935   1.768  18.240  0.00  0.00    +0.000 N 
ATOM     26  C   UNL     1       0.762   2.232  18.737  0.00  0.00    +0.000 A 
ATOM     27  N   UNL     1       0.947   3.204  19.596  0.00  0.00    +0.000 NA
ATOM     28  H   UNL     1       2.056   1.029  17.554  0.00  0.00    +0.000 HD
ENDBRANCH  22  23
ENDBRANCH  20  22
ENDBRANCH   5  20
TORSDOF 5
ENDMDL
MODEL 6
REMARK VINA RESULT:      -7.8      5.726      9.025
REMARK  Name = 
REMARK  5 active torsions:
REMARK  status: ('A' for Active; 'I' for Inactive)
REMARK    1  A    between atoms: S_2  and  C_4
REMARK    2  A    between atoms: S_2  and  N_17
REMARK    3  A    between atoms: C_8  and  N_9
REMARK    4  A    between atoms: N_9  and  C_10
REMARK    5  A    between atoms: C_10  and  C_11
REMARK                            x       y       z     vdW  Elec       q    Type
REMARK                         _______ _______ _______ _____ _____    ______ ____
ROOT
ATOM      1  C   UNL     1       1.641   8.503  19.880  0.00  0.00    +0.000 A 
ATOM      2  C   UNL     1       1.733   9.041  18.580  0.00  0.00    +0.000 A 
ATOM      3  C   UNL     1       2.394   8.333  17.576  0.00  0.00    +0.000 A 
ATOM      4  C   UNL     1       3.027   7.129  17.877  0.00  0.00    +0.000 A 
ATOM      5  C   UNL     1       3.045   6.602  19.185  0.00  0.00    +0.000 A 
ATOM      6  C   UNL     1       2.333   7.305  20.190  0.00  0.00    +0.000 A 
ENDROOT
BRANCH   1   8
ATOM      7  O   UNL     1      -0.617   8.534  21.304  0.00  0.00    +0.000 OA
ATOM      8  S   UNL     1       0.551   9.357  21.100  0.00  0.00    +0.000 S 
ATOM      9  O   UNL     1       1.405   9.740  22.216  0.00  0.00    +0.000 OA
BRANCH   8  10
ATOM     10  N   UNL     1       0.072  10.851  20.297  0.00  0.00    +0.000 N 
ATOM     11  C   UNL     1       0.606  12.021  21.021  0.00  0.00    +0.000 C 
ATOM     12  C   UNL     1      -0.308  13.160  21.367  0.00  0.00    +0.000 C 
ATOM     13  C   UNL     1      -1.624  13.264  20.665  0.00  0.00    +0.000 C 
ATOM     14  C   UNL     1      -2.103  12.043  19.957  0.00  0.00    +0.000 A 
ATOM     15  C   UNL     1      -3.363  12.218  19.335  0.00  0.00    +0.000 A 
ATOM     16  C   UNL     1      -3.671  11.512  18.192  0.00  0.00    +0.000 A 
ATOM     17  C   UNL     1      -2.762  10.557  17.747  0.00  0.00    +0.000 A 
ATOM     18  C   UNL     1      -1.594  10.243  18.494  0.00  0.00    +0.000 A 
ATOM     19  C   UNL     1      -1.235  10.983  19.631  0.00  0.00    +0.000 A 
ENDBRANCH   8  10
ENDBRANCH   1   8
BRANCH   5  20
ATOM     20  N   UNL     1       3.888   5.515  19.383  0.00  0.00    +0.000 N 
ATOM     21  H   UNL     1       4.872   5.709  19.202  0.00  0.00    +0.000 HD
BRANCH  20  22
ATOM     22  C   UNL     1       3.612   4.114  19.076  0.00  0.00    +0.000 C 
BRANCH  22  23
ATOM     23  C   UNL     1       2.493   3.523  19.907  0.00  0.00    +0.000 A 
ATOM     24  C   UNL     1       1.135   3.490  19.632  0.00  0.00    +0.000 A 
ATOM     25  N   UNL     1       0.559   2.879  20.722  0.00  0.00    +0.000 N 
ATOM     26  C   UNL     1       1.548   2.587  21.602  0.00  0.00    +0.000 A 
ATOM     27  N   UNL     1       2.724   2.951  21.154  0.00  0.00    +0.000 NA
ATOM     28  H   UNL     1      -0.435   2.706  20.842  0.00  0.00    +0.000 HD
ENDBRANCH  22  23
ENDBRANCH  20  22
ENDBRANCH   5  20
TORSDOF 5
ENDMDL
MODEL 7
REMARK VINA RESULT:      -7.7      5.920      8.912
REMARK  Name = 
REMARK  5 active torsions:
REMARK  status: ('A' for Active; 'I' for Inactive)
REMARK    1  A    between atoms: S_2  and  C_4
REMARK    2  A    between atoms: S_2  and  N_17
REMARK    3  A    between atoms: C_8  and  N_9
REMARK    4  A    between atoms: N_9  and  C_10
REMARK    5  A    between atoms: C_10  and  C_11
REMARK                            x       y       z     vdW  Elec       q    Type
REMARK                         _______ _______ _______ _____ _____    ______ ____
ROOT
ATOM      1  C   UNL     1       1.347   8.927  19.999  0.00  0.00    +0.000 A 
ATOM      2  C   UNL     1       1.607   9.327  18.671  0.00  0.00    +0.000 A 
ATOM      3  C   UNL     1       2.238   8.450  17.789  0.00  0.00    +0.000 A 
ATOM      4  C   UNL     1       2.677   7.207  18.239  0.00  0.00    +0.000 A 
ATOM      5  C   UNL     1       2.527   6.805  19.582  0.00  0.00    +0.000 A 
ATOM      6  C   UNL     1       1.845   7.683  20.462  0.00  0.00    +0.000 A 
ENDROOT
BRANCH   1   8
ATOM      7  O   UNL     1      -0.789   9.228  21.570  0.00  0.00    +0.000 OA
ATOM      8  S   UNL     1       0.296  10.022  21.048  0.00  0.00    +0.000 S 
ATOM      9  O   UNL     1       1.204  10.734  21.937  0.00  0.00    +0.000 OA
BRANCH   8  10
ATOM     10  N   UNL     1      -0.352  11.220  19.928  0.00  0.00    +0.000 N 
ATOM     11  C   UNL     1      -0.046  12.584  20.398  0.00  0.00    +0.000 C 
ATOM     12  C   UNL     1      -1.142  13.609  20.464  0.00  0.00    +0.000 C 
ATOM     13  C   UNL     1      -2.412  13.352  19.718  0.00  0.00    +0.000 C 
ATOM     14  C   UNL     1      -2.656  11.949  19.276  0.00  0.00    +0.000 A 
ATOM     15  C   UNL     1      -3.887  11.787  18.596  0.00  0.00    +0.000 A 
ATOM     16  C   UNL     1      -4.014  10.818  17.623  0.00  0.00    +0.000 A 
ATOM     17  C   UNL     1      -2.945   9.950  17.420  0.00  0.00    +0.000 A 
ATOM     18  C   UNL     1      -1.792   9.990  18.251  0.00  0.00    +0.000 A 
ATOM     19  C   UNL     1      -1.620  10.998  19.211  0.00  0.00    +0.000 A 
ENDBRANCH   8  10
ENDBRANCH   1   8
BRANCH   5  20
ATOM     20  N   UNL     1       3.198   5.641  19.940  0.00  0.00    +0.000 N 
ATOM     21  H   UNL     1       3.330   5.525  20.943  0.00  0.00    +0.000 HD
BRANCH  20  22
ATOM     22  C   UNL     1       4.309   5.008  19.234  0.00  0.00    +0.000 C 
BRANCH  22  23
ATOM     23  C   UNL     1       4.088   3.537  18.955  0.00  0.00    +0.000 A 
ATOM     24  C   UNL     1       4.471   2.444  19.716  0.00  0.00    +0.000 A 
ATOM     25  N   UNL     1       4.063   1.343  18.998  0.00  0.00    +0.000 N 
ATOM     26  C   UNL     1       3.483   1.784  17.856  0.00  0.00    +0.000 A 
ATOM     27  N   UNL     1       3.471   3.093  17.789  0.00  0.00    +0.000 NA
ATOM     28  H   UNL     1       4.202   0.376  19.277  0.00  0.00    +0.000 HD
ENDBRANCH  22  23
ENDBRANCH  20  22
ENDBRANCH   5  20
TORSDOF 5
ENDMDL
MODEL 8
REMARK VINA RESULT:      -7.6      2.056      3.518
REMARK  Name = 
REMARK  5 active torsions:
REMARK  status: ('A' for Active; 'I' for Inactive)
REMARK    1  A    between atoms: S_2  and  C_4
REMARK    2  A    between atoms: S_2  and  N_17
REMARK    3  A    between atoms: C_8  and  N_9
REMARK    4  A    between atoms: N_9  and  C_10
REMARK    5  A    between atoms: C_10  and  C_11
REMARK                            x       y       z     vdW  Elec       q    Type
REMARK                         _______ _______ _______ _____ _____    ______ ____
ROOT
ATOM      1  C   UNL     1       4.861   4.004  16.490  0.00  0.00    +0.000 A 
ATOM      2  C   UNL     1       5.068   3.651  15.140  0.00  0.00    +0.000 A 
ATOM      3  C   UNL     1       6.183   4.134  14.455  0.00  0.00    +0.000 A 
ATOM      4  C   UNL     1       7.053   5.022  15.083  0.00  0.00    +0.000 A 
ATOM      5  C   UNL     1       6.832   5.480  16.398  0.00  0.00    +0.000 A 
ATOM      6  C   UNL     1       5.721   4.950  17.103  0.00  0.00    +0.000 A 
ENDROOT
BRANCH   1   8
ATOM      7  O   UNL     1       2.257   3.525  16.823  0.00  0.00    +0.000 OA
ATOM      8  S   UNL     1       3.516   3.147  17.418  0.00  0.00    +0.000 S 
ATOM      9  O   UNL     1       3.912   1.748  17.518  0.00  0.00    +0.000 OA
BRANCH   8  10
ATOM     10  N   UNL     1       3.607   3.813  19.048  0.00  0.00    +0.000 N 
ATOM     11  C   UNL     1       3.762   2.732  20.039  0.00  0.00    +0.000 C 
ATOM     12  C   UNL     1       2.870   2.699  21.247  0.00  0.00    +0.000 C 
ATOM     13  C   UNL     1       2.111   3.934  21.613  0.00  0.00    +0.000 C 
ATOM     14  C   UNL     1       1.993   4.983  20.560  0.00  0.00    +0.000 A 
ATOM     15  C   UNL     1       1.244   6.109  20.980  0.00  0.00    +0.000 A 
ATOM     16  C   UNL     1       1.525   7.355  20.462  0.00  0.00    +0.000 A 
ATOM     17  C   UNL     1       2.475   7.444  19.448  0.00  0.00    +0.000 A 
ATOM     18  C   UNL     1       3.072   6.280  18.890  0.00  0.00    +0.000 A 
ATOM     19  C   UNL     1       2.839   5.008  19.436  0.00  0.00    +0.000 A 
ENDBRANCH   8  10
ENDBRANCH   1   8
BRANCH   5  20
ATOM     20  N   UNL     1       7.652   6.521  16.818  0.00  0.00    +0.000 N 
ATOM     21  H   UNL     1       8.540   6.581  16.322  0.00  0.00    +0.000 HD
BRANCH  20  22
ATOM     22  C   UNL     1       7.830   7.010  18.183  0.00  0.00    +0.000 C 
BRANCH  22  23
ATOM     23  C   UNL     1       8.189   8.479  18.254  0.00  0.00    +0.000 A 
ATOM     24  C   UNL     1       7.783   9.512  17.424  0.00  0.00    +0.000 A 
ATOM     25  N   UNL     1       8.423  10.632  17.901  0.00  0.00    +0.000 N 
ATOM     26  C   UNL     1       9.187  10.256  18.956  0.00  0.00    +0.000 A 
ATOM     27  N   UNL     1       9.074   8.975  19.207  0.00  0.00    +0.000 NA
ATOM     28  H   UNL     1       8.347  11.565  17.506  0.00  0.00    +0.000 HD
ENDBRANCH  22  23
ENDBRANCH  20  22
ENDBRANCH   5  20
TORSDOF 5
ENDMDL
MODEL 9
REMARK VINA RESULT:      -7.6      5.184      7.620
REMARK  Name = 
REMARK  5 active torsions:
REMARK  status: ('A' for Active; 'I' for Inactive)
REMARK    1  A    between atoms: S_2  and  C_4
REMARK    2  A    between atoms: S_2  and  N_17
REMARK    3  A    between atoms: C_8  and  N_9
REMARK    4  A    between atoms: N_9  and  C_10
REMARK    5  A    between atoms: C_10  and  C_11
REMARK                            x       y       z     vdW  Elec       q    Type
REMARK                         _______ _______ _______ _____ _____    ______ ____
ROOT
ATOM      1  C   UNL     1       1.534   7.662  20.368  0.00  0.00    +0.000 A 
ATOM      2  C   UNL     1       1.437   6.351  20.880  0.00  0.00    +0.000 A 
ATOM      3  C   UNL     1       2.193   5.323  20.315  0.00  0.00    +0.000 A 
ATOM      4  C   UNL     1       2.988   5.578  19.199  0.00  0.00    +0.000 A 
ATOM      5  C   UNL     1       3.040   6.851  18.595  0.00  0.00    +0.000 A 
ATOM      6  C   UNL     1       2.304   7.900  19.202  0.00  0.00    +0.000 A 
ENDROOT
BRANCH   1   8
ATOM      7  O   UNL     1      -0.632   8.596  21.616  0.00  0.00    +0.000 OA
ATOM      8  S   UNL     1       0.709   9.024  21.301  0.00  0.00    +0.000 S 
ATOM      9  O   UNL     1       1.637   9.425  22.350  0.00  0.00    +0.000 OA
BRANCH   8  10
ATOM     10  N   UNL     1       0.634  10.363  20.157  0.00  0.00    +0.000 N 
ATOM     11  C   UNL     1       1.228  11.578  20.745  0.00  0.00    +0.000 C 
ATOM     12  C   UNL     1       0.475  12.876  20.685  0.00  0.00    +0.000 C 
ATOM     13  C   UNL     1      -0.666  13.001  19.725  0.00  0.00    +0.000 C 
ATOM     14  C   UNL     1      -1.217  11.730  19.173  0.00  0.00    +0.000 A 
ATOM     15  C   UNL     1      -2.304  11.935  18.290  0.00  0.00    +0.000 A 
ATOM     16  C   UNL     1      -2.529  11.049  17.258  0.00  0.00    +0.000 A 
ATOM     17  C   UNL     1      -1.733   9.909  17.188  0.00  0.00    +0.000 A 
ATOM     18  C   UNL     1      -0.779   9.610  18.199  0.00  0.00    +0.000 A 
ATOM     19  C   UNL     1      -0.499  10.521  19.229  0.00  0.00    +0.000 A 
ENDBRANCH   8  10
ENDBRANCH   1   8
BRANCH   5  20
ATOM     20  N   UNL     1       3.699   6.909  17.372  0.00  0.00    +0.000 N 
ATOM     21  H   UNL     1       3.226   6.413  16.617  0.00  0.00    +0.000 HD
BRANCH  20  22
ATOM     22  C   UNL     1       5.140   6.870  17.142  0.00  0.00    +0.000 C 
BRANCH  22  23
ATOM     23  C   UNL     1       5.604   5.620  16.426  0.00  0.00    +0.000 A 
ATOM     24  C   UNL     1       5.319   4.296  16.722  0.00  0.00    +0.000 A 
ATOM     25  N   UNL     1       6.015   3.559  15.792  0.00  0.00    +0.000 N 
ATOM     26  C   UNL     1       6.692   4.426  14.998  0.00  0.00    +0.000 A 
ATOM     27  N   UNL     1       6.471   5.672  15.339  0.00  0.00    +0.000 NA
ATOM     28  H   UNL     1       6.029   2.545  15.737  0.00  0.00    +0.000 HD
ENDBRANCH  22  23
ENDBRANCH  20  22
ENDBRANCH   5  20
TORSDOF 5
ENDMDL
