MODEL 1
REMARK VINA RESULT:      -7.7      0.000      0.000
REMARK  Name = 
REMARK  3 active torsions:
REMARK  status: ('A' for Active; 'I' for Inactive)
REMARK    1  A    between atoms: C_1  and  N_2
REMARK    2  A    between atoms: N_2  and  C_3
REMARK    3  A    between atoms: N_6  and  C_7
REMARK                            x       y       z     vdW  Elec       q    Type
REMARK                         _______ _______ _______ _____ _____    ______ ____
ROOT
ATOM      1  C   UNL     1       5.183   4.617  18.744  0.00  0.00    +0.000 A 
ATOM      2  N   UNL     1       6.141   4.989  19.620  0.00  0.00    +0.000 NA
ATOM      3  C   UNL     1       7.378   5.211  19.163  0.00  0.00    +0.000 A 
ATOM      4  N   UNL     1       8.354   5.585  20.070  0.00  0.00    +0.000 N 
ATOM      5  N   UNL     1       7.766   5.059  17.904  0.00  0.00    +0.000 NA
ATOM      6  C   UNL     1       6.814   4.710  17.022  0.00  0.00    +0.000 A 
ATOM      7  C   UNL     1       5.491   4.493  17.390  0.00  0.00    +0.000 A 
ATOM      8  C   UNL     1       4.457   4.168  16.348  0.00  0.00    +0.000 C 
ATOM      9  C   UNL     1       4.869   4.503  14.919  0.00  0.00    +0.000 C 
ATOM     10  C   UNL     1       6.269   3.976  14.653  0.00  0.00    +0.000 C 
ATOM     11  C   UNL     1       7.261   4.670  15.581  0.00  0.00    +0.000 C 
ATOM     12  H   UNL     1       8.111   5.246  20.989  0.00  0.00    +0.000 HD
ATOM     13  H   UNL     1       9.260   5.335  19.698  0.00  0.00    +0.000 HD
ENDROOT
BRANCH   1  17
ATOM     14  C   UNL     1       2.043   3.609  20.492  0.00  0.00    +0.000 C 
ATOM     15  C   UNL     1       2.202   5.109  20.744  0.00  0.00    +0.000 C 
ATOM     16  C   UNL     1       3.082   5.598  19.592  0.00  0.00    +0.000 C 
ATOM     17  N   UNL     1       3.899   4.442  19.226  0.00  0.00    +0.000 N 
ATOM     18  C   UNL     1       3.455   3.253  19.959  0.00  0.00    +0.000 C 
BRANCH  14  20
ATOM     19  C   UNL     1       1.114   2.245  18.680  0.00  0.00    +0.000 C 
ATOM     20  N   UNL     1       0.917   3.387  19.561  0.00  0.00    +0.000 NA
ATOM     21  H   UNL     1       0.066   3.235  20.104  0.00  0.00    +0.000 HD
ENDBRANCH  14  20
ENDBRANCH   1  17
TORSDOF 2
ENDMDL
MODEL 2
REMARK VINA RESULT:      -7.3      0.860      1.659
REMARK  Name = 
REMARK  3 active torsions:
REMARK  status: ('A' for Active; 'I' for Inactive)
REMARK    1  A    between atoms: C_1  and  N_2
REMARK    2  A    between atoms: N_2  and  C_3
REMARK    3  A    between atoms: N_6  and  C_7
REMARK                            x       y       z     vdW  Elec       q    Type
REMARK                         _______ _______ _______ _____ _____    ______ ____
ROOT
ATOM      1  C   UNL     1       5.200   4.251  18.242  0.00  0.00    +0.000 A 
ATOM      2  N   UNL     1       6.003   4.678  19.240  0.00  0.00    +0.000 NA
ATOM      3  C   UNL     1       7.216   5.147  18.934  0.00  0.00    +0.000 A 
ATOM      4  N   UNL     1       8.034   5.575  19.965  0.00  0.00    +0.000 N 
ATOM      5  N   UNL     1       7.729   5.198  17.711  0.00  0.00    +0.000 NA
ATOM      6  C   UNL     1       6.929   4.796  16.709  0.00  0.00    +0.000 A 
ATOM      7  C   UNL     1       5.637   4.327  16.920  0.00  0.00    +0.000 A 
ATOM      8  C   UNL     1       4.765   3.953  15.754  0.00  0.00    +0.000 C 
ATOM      9  C   UNL     1       5.231   4.504  14.411  0.00  0.00    +0.000 C 
ATOM     10  C   UNL     1       6.718   4.245  14.240  0.00  0.00    +0.000 C 
ATOM     11  C   UNL     1       7.495   4.987  15.323  0.00  0.00    +0.000 C 
ATOM     12  H   UNL     1       7.777   5.103  20.819  0.00  0.00    +0.000 HD
ATOM     13  H   UNL     1       8.997   5.518  19.664  0.00  0.00    +0.000 HD
ENDROOT
BRANCH   1  17
ATOM     14  C   UNL     1       1.545   3.580  18.597  0.00  0.00    +0.000 C 
ATOM     15  C   UNL     1       2.190   2.234  18.268  0.00  0.00    +0.000 C 
ATOM     16  C   UNL     1       3.647   2.390  18.710  0.00  0.00    +0.000 C 
ATOM     17  N   UNL     1       3.930   3.818  18.574  0.00  0.00    +0.000 N 
ATOM     18  C   UNL     1       2.703   4.550  18.246  0.00  0.00    +0.000 C 
BRANCH  14  20
ATOM     19  C   UNL     1       1.424   4.806  20.717  0.00  0.00    +0.000 C 
ATOM     20  N   UNL     1       1.100   3.576  20.007  0.00  0.00    +0.000 NA
ATOM     21  H   UNL     1       0.089   3.444  20.032  0.00  0.00    +0.000 HD
ENDBRANCH  14  20
ENDBRANCH   1  17
TORSDOF 2
ENDMDL
MODEL 3
REMARK VINA RESULT:      -7.2      1.763      5.410
REMARK  Name = 
REMARK  3 active torsions:
REMARK  status: ('A' for Active; 'I' for Inactive)
REMARK    1  A    between atoms: C_1  and  N_2
REMARK    2  A    between atoms: N_2  and  C_3
REMARK    3  A    between atoms: N_6  and  C_7
REMARK                            x       y       z     vdW  Elec       q    Type
REMARK                         _______ _______ _______ _____ _____    ______ ____
ROOT
ATOM      1  C   UNL     1       3.905   5.423  18.821  0.00  0.00    +0.000 A 
ATOM      2  N   UNL     1       3.486   6.531  19.471  0.00  0.00    +0.000 NA
ATOM      3  C   UNL     1       2.310   6.496  20.106  0.00  0.00    +0.000 A 
ATOM      4  N   UNL     1       1.886   7.639  20.762  0.00  0.00    +0.000 N 
ATOM      5  N   UNL     1       1.483   5.460  20.126  0.00  0.00    +0.000 NA
ATOM      6  C   UNL     1       1.901   4.347  19.500  0.00  0.00    +0.000 A 
ATOM      7  C   UNL     1       3.124   4.269  18.843  0.00  0.00    +0.000 A 
ATOM      8  C   UNL     1       3.568   2.976  18.216  0.00  0.00    +0.000 C 
ATOM      9  C   UNL     1       2.817   1.743  18.707  0.00  0.00    +0.000 C 
ATOM     10  C   UNL     1       1.322   2.013  18.687  0.00  0.00    +0.000 C 
ATOM     11  C   UNL     1       0.995   3.149  19.649  0.00  0.00    +0.000 C 
ATOM     12  H   UNL     1       2.310   8.450  20.338  0.00  0.00    +0.000 HD
ATOM     13  H   UNL     1       0.879   7.617  20.840  0.00  0.00    +0.000 HD
ENDROOT
BRANCH   1  17
ATOM     14  C   UNL     1       6.968   6.137  16.810  0.00  0.00    +0.000 C 
ATOM     15  C   UNL     1       7.406   6.183  18.274  0.00  0.00    +0.000 C 
ATOM     16  C   UNL     1       6.366   5.337  19.011  0.00  0.00    +0.000 C 
ATOM     17  N   UNL     1       5.147   5.462  18.213  0.00  0.00    +0.000 N 
ATOM     18  C   UNL     1       5.426   6.181  16.967  0.00  0.00    +0.000 C 
BRANCH  14  20
ATOM     19  C   UNL     1       6.777   4.495  15.001  0.00  0.00    +0.000 C 
ATOM     20  N   UNL     1       7.527   4.927  16.172  0.00  0.00    +0.000 NA
ATOM     21  H   UNL     1       8.488   5.119  15.889  0.00  0.00    +0.000 HD
ENDBRANCH  14  20
ENDBRANCH   1  17
TORSDOF 2
ENDMDL
MODEL 4
REMARK VINA RESULT:      -6.9      1.923      5.565
REMARK  Name = 
REMARK  3 active torsions:
REMARK  status: ('A' for Active; 'I' for Inactive)
REMARK    1  A    between atoms: C_1  and  N_2
REMARK    2  A    between atoms: N_2  and  C_3
REMARK    3  A    between atoms: N_6  and  C_7
REMARK                            x       y       z     vdW  Elec       q    Type
REMARK                         _______ _______ _______ _____ _____    ______ ____
ROOT
ATOM      1  C   UNL     1       3.716   5.541  18.616  0.00  0.00    +0.000 A 
ATOM      2  N   UNL     1       3.299   6.604  19.337  0.00  0.00    +0.000 NA
ATOM      3  C   UNL     1       2.235   6.463  20.134  0.00  0.00    +0.000 A 
ATOM      4  N   UNL     1       1.812   7.561  20.862  0.00  0.00    +0.000 N 
ATOM      5  N   UNL     1       1.513   5.357  20.256  0.00  0.00    +0.000 NA
ATOM      6  C   UNL     1       1.934   4.288  19.559  0.00  0.00    +0.000 A 
ATOM      7  C   UNL     1       3.050   4.321  18.731  0.00  0.00    +0.000 A 
ATOM      8  C   UNL     1       3.511   3.075  18.027  0.00  0.00    +0.000 C 
ATOM      9  C   UNL     1       2.951   1.779  18.601  0.00  0.00    +0.000 C 
ATOM     10  C   UNL     1       1.451   1.914  18.800  0.00  0.00    +0.000 C 
ATOM     11  C   UNL     1       1.167   3.014  19.817  0.00  0.00    +0.000 C 
ATOM     12  H   UNL     1       2.097   8.408  20.395  0.00  0.00    +0.000 HD
ATOM     13  H   UNL     1       0.832   7.449  21.084  0.00  0.00    +0.000 HD
ENDROOT
BRANCH   1  17
ATOM     14  C   UNL     1       7.107   5.515  17.056  0.00  0.00    +0.000 C 
ATOM     15  C   UNL     1       6.156   4.943  16.005  0.00  0.00    +0.000 C 
ATOM     16  C   UNL     1       4.783   5.498  16.390  0.00  0.00    +0.000 C 
ATOM     17  N   UNL     1       4.848   5.692  17.837  0.00  0.00    +0.000 N 
ATOM     18  C   UNL     1       6.212   5.455  18.321  0.00  0.00    +0.000 C 
BRANCH  14  20
ATOM     19  C   UNL     1       7.774   7.771  17.746  0.00  0.00    +0.000 C 
ATOM     20  N   UNL     1       7.551   6.860  16.632  0.00  0.00    +0.000 NA
ATOM     21  H   UNL     1       8.421   6.769  16.107  0.00  0.00    +0.000 HD
ENDBRANCH  14  20
ENDBRANCH   1  17
TORSDOF 2
ENDMDL
MODEL 5
REMARK VINA RESULT:      -6.8      1.643      5.819
REMARK  Name = 
REMARK  3 active torsions:
REMARK  status: ('A' for Active; 'I' for Inactive)
REMARK    1  A    between atoms: C_1  and  N_2
REMARK    2  A    between atoms: N_2  and  C_3
REMARK    3  A    between atoms: N_6  and  C_7
REMARK                            x       y       z     vdW  Elec       q    Type
REMARK                         _______ _______ _______ _____ _____    ______ ____
ROOT
ATOM      1  C   UNL     1       4.095   4.202  18.238  0.00  0.00    +0.000 A 
ATOM      2  N   UNL     1       3.829   2.878  18.233  0.00  0.00    +0.000 NA
ATOM      3  C   UNL     1       2.788   2.428  18.941  0.00  0.00    +0.000 A 
ATOM      4  N   UNL     1       2.529   1.069  18.935  0.00  0.00    +0.000 N 
ATOM      5  N   UNL     1       1.997   3.179  19.696  0.00  0.00    +0.000 NA
ATOM      6  C   UNL     1       2.240   4.500  19.690  0.00  0.00    +0.000 A 
ATOM      7  C   UNL     1       3.275   5.071  18.957  0.00  0.00    +0.000 A 
ATOM      8  C   UNL     1       3.458   6.563  18.938  0.00  0.00    +0.000 C 
ATOM      9  C   UNL     1       2.243   7.357  19.401  0.00  0.00    +0.000 C 
ATOM     10  C   UNL     1       1.711   6.770  20.697  0.00  0.00    +0.000 C 
ATOM     11  C   UNL     1       1.246   5.338  20.456  0.00  0.00    +0.000 C 
ATOM     12  H   UNL     1       3.380   0.563  18.740  0.00  0.00    +0.000 HD
ATOM     13  H   UNL     1       2.017   0.829  19.772  0.00  0.00    +0.000 HD
ENDROOT
BRANCH   1  17
ATOM     14  C   UNL     1       7.361   5.029  16.633  0.00  0.00    +0.000 C 
ATOM     15  C   UNL     1       6.520   4.353  15.550  0.00  0.00    +0.000 C 
ATOM     16  C   UNL     1       5.074   4.568  16.001  0.00  0.00    +0.000 C 
ATOM     17  N   UNL     1       5.144   4.654  17.459  0.00  0.00    +0.000 N 
ATOM     18  C   UNL     1       6.541   4.676  17.901  0.00  0.00    +0.000 C 
BRANCH  14  20
ATOM     19  C   UNL     1       7.559   7.311  17.504  0.00  0.00    +0.000 C 
ATOM     20  N   UNL     1       7.496   6.467  16.319  0.00  0.00    +0.000 NA
ATOM     21  H   UNL     1       8.348   6.607  15.775  0.00  0.00    +0.000 HD
ENDBRANCH  14  20
ENDBRANCH   1  17
TORSDOF 2
ENDMDL
MODEL 6
REMARK VINA RESULT:      -6.8      1.903      5.826
REMARK  Name = 
REMARK  3 active torsions:
REMARK  status: ('A' for Active; 'I' for Inactive)
REMARK    1  A    between atoms: C_1  and  N_2
REMARK    2  A    between atoms: N_2  and  C_3
REMARK    3  A    between atoms: N_6  and  C_7
REMARK                            x       y       z     vdW  Elec       q    Type
REMARK                         _______ _______ _______ _____ _____    ______ ____
ROOT
ATOM      1  C   UNL     1       4.496   4.323  18.341  0.00  0.00    +0.000 A 
ATOM      2  N   UNL     1       4.590   2.998  18.097  0.00  0.00    +0.000 NA
ATOM      3  C   UNL     1       3.680   2.179  18.634  0.00  0.00    +0.000 A 
ATOM      4  N   UNL     1       3.790   0.823  18.384  0.00  0.00    +0.000 N 
ATOM      5  N   UNL     1       2.690   2.556  19.433  0.00  0.00    +0.000 NA
ATOM      6  C   UNL     1       2.576   3.875  19.664  0.00  0.00    +0.000 A 
ATOM      7  C   UNL     1       3.449   4.812  19.122  0.00  0.00    +0.000 A 
ATOM      8  C   UNL     1       3.232   6.280  19.362  0.00  0.00    +0.000 C 
ATOM      9  C   UNL     1       1.833   6.643  19.848  0.00  0.00    +0.000 C 
ATOM     10  C   UNL     1       1.429   5.717  20.982  0.00  0.00    +0.000 C 
ATOM     11  C   UNL     1       1.368   4.281  20.472  0.00  0.00    +0.000 C 
ATOM     12  H   UNL     1       4.751   0.593  18.181  0.00  0.00    +0.000 HD
ATOM     13  H   UNL     1       3.328   0.315  19.125  0.00  0.00    +0.000 HD
ENDROOT
BRANCH   1  17
ATOM     14  C   UNL     1       7.469   6.281  17.219  0.00  0.00    +0.000 C 
ATOM     15  C   UNL     1       6.983   5.513  15.990  0.00  0.00    +0.000 C 
ATOM     16  C   UNL     1       5.508   5.226  16.278  0.00  0.00    +0.000 C 
ATOM     17  N   UNL     1       5.415   5.159  17.735  0.00  0.00    +0.000 N 
ATOM     18  C   UNL     1       6.690   5.551  18.344  0.00  0.00    +0.000 C 
BRANCH  14  20
ATOM     19  C   UNL     1       8.036   8.584  17.837  0.00  0.00    +0.000 C 
ATOM     20  N   UNL     1       7.174   7.719  17.045  0.00  0.00    +0.000 NA
ATOM     21  H   UNL     1       7.287   7.961  16.060  0.00  0.00    +0.000 HD
ENDBRANCH  14  20
ENDBRANCH   1  17
TORSDOF 2
ENDMDL
MODEL 7
REMARK VINA RESULT:      -6.7      1.347      2.110
REMARK  Name = 
REMARK  3 active torsions:
REMARK  status: ('A' for Active; 'I' for Inactive)
REMARK    1  A    between atoms: C_1  and  N_2
REMARK    2  A    between atoms: N_2  and  C_3
REMARK    3  A    between atoms: N_6  and  C_7
REMARK                            x       y       z     vdW  Elec       q    Type
REMARK                         _______ _______ _______ _____ _____    ______ ____
ROOT
ATOM      1  C   UNL     1       5.351   5.152  18.949  0.00  0.00    +0.000 A 
ATOM      2  N   UNL     1       6.388   5.288  19.804  0.00  0.00    +0.000 NA
ATOM      3  C   UNL     1       7.629   5.101  19.345  0.00  0.00    +0.000 A 
ATOM      4  N   UNL     1       8.684   5.235  20.231  0.00  0.00    +0.000 N 
ATOM      5  N   UNL     1       7.939   4.748  18.104  0.00  0.00    +0.000 NA
ATOM      6  C   UNL     1       6.916   4.631  17.241  0.00  0.00    +0.000 A 
ATOM      7  C   UNL     1       5.593   4.842  17.611  0.00  0.00    +0.000 A 
ATOM      8  C   UNL     1       4.496   4.761  16.586  0.00  0.00    +0.000 C 
ATOM      9  C   UNL     1       4.971   4.852  15.140  0.00  0.00    +0.000 C 
ATOM     10  C   UNL     1       6.149   3.917  14.929  0.00  0.00    +0.000 C 
ATOM     11  C   UNL     1       7.313   4.353  15.812  0.00  0.00    +0.000 C 
ATOM     12  H   UNL     1       8.362   5.053  21.170  0.00  0.00    +0.000 HD
ATOM     13  H   UNL     1       9.470   4.702  19.888  0.00  0.00    +0.000 HD
ENDROOT
BRANCH   1  17
ATOM     14  C   UNL     1       1.829   6.209  19.587  0.00  0.00    +0.000 C 
ATOM     15  C   UNL     1       1.830   4.682  19.662  0.00  0.00    +0.000 C 
ATOM     16  C   UNL     1       3.278   4.317  19.998  0.00  0.00    +0.000 C 
ATOM     17  N   UNL     1       4.079   5.400  19.430  0.00  0.00    +0.000 N 
ATOM     18  C   UNL     1       3.210   6.468  18.929  0.00  0.00    +0.000 C 
BRANCH  14  20
ATOM     19  C   UNL     1       1.406   8.202  20.950  0.00  0.00    +0.000 C 
ATOM     20  N   UNL     1       1.636   6.764  20.944  0.00  0.00    +0.000 NA
ATOM     21  H   UNL     1       0.835   6.305  21.376  0.00  0.00    +0.000 HD
ENDBRANCH  14  20
ENDBRANCH   1  17
TORSDOF 2
ENDMDL
MODEL 8
REMARK VINA RESULT:      -6.7      2.248      5.629
REMARK  Name = 
REMARK  3 active torsions:
REMARK  status: ('A' for Active; 'I' for Inactive)
REMARK    1  A    between atoms: C_1  and  N_2
REMARK    2  A    between atoms: N_2  and  C_3
REMARK    3  A    between atoms: N_6  and  C_7
REMARK                            x       y       z     vdW  Elec       q    Type
REMARK                         _______ _______ _______ _____ _____    ______ ____
ROOT
ATOM      1  C   UNL     1       3.911   5.149  17.259  0.00  0.00    +0.000 A 
ATOM      2  N   UNL     1       3.730   6.462  17.522  0.00  0.00    +0.000 NA
ATOM      3  C   UNL     1       2.758   6.820  18.367  0.00  0.00    +0.000 A 
ATOM      4  N   UNL     1       2.576   8.168  18.623  0.00  0.00    +0.000 N 
ATOM      5  N   UNL     1       1.912   5.985  18.957  0.00  0.00    +0.000 NA
ATOM      6  C   UNL     1       2.099   4.676  18.718  0.00  0.00    +0.000 A 
ATOM      7  C   UNL     1       3.104   4.199  17.885  0.00  0.00    +0.000 A 
ATOM      8  C   UNL     1       3.306   2.720  17.707  0.00  0.00    +0.000 C 
ATOM      9  C   UNL     1       2.646   1.858  18.778  0.00  0.00    +0.000 C 
ATOM     10  C   UNL     1       1.213   2.312  18.990  0.00  0.00    +0.000 C 
ATOM     11  C   UNL     1       1.203   3.749  19.502  0.00  0.00    +0.000 C 
ATOM     12  H   UNL     1       2.916   8.710  17.843  0.00  0.00    +0.000 HD
ATOM     13  H   UNL     1       1.624   8.318  18.925  0.00  0.00    +0.000 HD
ENDROOT
BRANCH   1  17
ATOM     14  C   UNL     1       6.569   4.862  14.654  0.00  0.00    +0.000 C 
ATOM     15  C   UNL     1       7.288   4.773  16.000  0.00  0.00    +0.000 C 
ATOM     16  C   UNL     1       6.211   4.297  16.977  0.00  0.00    +0.000 C 
ATOM     17  N   UNL     1       4.953   4.795  16.423  0.00  0.00    +0.000 N 
ATOM     18  C   UNL     1       5.180   5.387  15.101  0.00  0.00    +0.000 C 
BRANCH  14  20
ATOM     19  C   UNL     1       5.976   3.536  12.680  0.00  0.00    +0.000 C 
ATOM     20  N   UNL     1       6.588   3.536  14.002  0.00  0.00    +0.000 NA
ATOM     21  H   UNL     1       7.557   3.229  13.910  0.00  0.00    +0.000 HD
ENDBRANCH  14  20
ENDBRANCH   1  17
TORSDOF 2
ENDMDL
MODEL 9
REMARK VINA RESULT:      -6.5      1.840      5.591
REMARK  Name = 
REMARK  3 active torsions:
REMARK  status: ('A' for Active; 'I' for Inactive)
REMARK    1  A    between atoms: C_1  and  N_2
REMARK    2  A    between atoms: N_2  and  C_3
REMARK    3  A    between atoms: N_6  and  C_7
REMARK                            x       y       z     vdW  Elec       q    Type
REMARK                         _______ _______ _______ _____ _____    ______ ____
ROOT
ATOM      1  C   UNL     1       4.039   4.876  18.715  0.00  0.00    +0.000 A 
ATOM      2  N   UNL     1       3.865   3.786  19.494  0.00  0.00    +0.000 NA
ATOM      3  C   UNL     1       2.961   3.836  20.478  0.00  0.00    +0.000 A 
ATOM      4  N   UNL     1       2.796   2.717  21.275  0.00  0.00    +0.000 N 
ATOM      5  N   UNL     1       2.229   4.898  20.788  0.00  0.00    +0.000 NA
ATOM      6  C   UNL     1       2.379   5.980  20.005  0.00  0.00    +0.000 A 
ATOM      7  C   UNL     1       3.265   6.015  18.934  0.00  0.00    +0.000 A 
ATOM      8  C   UNL     1       3.343   7.231  18.053  0.00  0.00    +0.000 C 
ATOM      9  C   UNL     1       2.149   8.172  18.165  0.00  0.00    +0.000 C 
ATOM     10  C   UNL     1       1.837   8.431  19.629  0.00  0.00    +0.000 C 
ATOM     11  C   UNL     1       1.442   7.123  20.306  0.00  0.00    +0.000 C 
ATOM     12  H   UNL     1       3.646   2.173  21.274  0.00  0.00    +0.000 HD
ATOM     13  H   UNL     1       2.418   3.003  22.167  0.00  0.00    +0.000 HD
ENDROOT
BRANCH   1  17
ATOM     14  C   UNL     1       6.961   4.397  16.443  0.00  0.00    +0.000 C 
ATOM     15  C   UNL     1       5.844   3.516  15.883  0.00  0.00    +0.000 C 
ATOM     16  C   UNL     1       4.556   4.150  16.413  0.00  0.00    +0.000 C 
ATOM     17  N   UNL     1       4.941   4.787  17.671  0.00  0.00    +0.000 N 
ATOM     18  C   UNL     1       6.394   4.726  17.849  0.00  0.00    +0.000 C 
BRANCH  14  20
ATOM     19  C   UNL     1       7.242   5.169  14.133  0.00  0.00    +0.000 C 
ATOM     20  N   UNL     1       7.175   5.547  15.538  0.00  0.00    +0.000 NA
ATOM     21  H   UNL     1       6.409   6.209  15.660  0.00  0.00    +0.000 HD
ENDBRANCH  14  20
ENDBRANCH   1  17
TORSDOF 2
ENDMDL
