MODEL 1
REMARK VINA RESULT:      -6.9      0.000      0.000
REMARK  Name = 
REMARK  12 active torsions:
REMARK  status: ('A' for Active; 'I' for Inactive)
REMARK    1  A    between atoms: C_1  and  O_2
REMARK    2  A    between atoms: O_2  and  C_3
REMARK    3  A    between atoms: C_8  and  C_9
REMARK    4  A    between atoms: C_11  and  C_12
REMARK    5  A    between atoms: C_15  and  C_17
REMARK    6  A    between atoms: C_17  and  N_18
REMARK    7  A    between atoms: N_18  and  C_19
REMARK    8  A    between atoms: N_18  and  C_22
REMARK    9  A    between atoms: C_19  and  C_20
REMARK   10  A    between atoms: C_19  and  C_21
REMARK   11  A    between atoms: C_22  and  C_23
REMARK   12  A    between atoms: C_22  and  C_24
REMARK                            x       y       z     vdW  Elec       q    Type
REMARK                         _______ _______ _______ _____ _____    ______ ____
ROOT
ATOM      1  C   UNL     1       3.277   5.080  18.027  0.00  0.00    +0.000 C 
ATOM      2  C   UNL     1       2.887   3.634  18.312  0.00  0.00    +0.000 C 
ATOM      3  C   UNL     1       2.096   3.831  19.571  0.00  0.00    +0.000 C 
ATOM      4  C   UNL     1       1.719   2.688  20.458  0.00  0.00    +0.000 C 
ATOM      5  N   UNL     1       1.823   5.060  19.892  0.00  0.00    +0.000 NA
ATOM      6  N   UNL     1       2.529   5.846  19.012  0.00  0.00    +0.000 N 
ATOM      7  C   UNL     1       2.470   7.242  19.010  0.00  0.00    +0.000 C 
ATOM      8  O   UNL     1       3.166   7.931  18.262  0.00  0.00    +0.000 OA
ENDROOT
BRANCH   1  14
ATOM      9  C   UNL     1       5.553   5.645  16.790  0.00  0.00    +0.000 A 
ATOM     10  C   UNL     1       6.948   5.766  16.929  0.00  0.00    +0.000 A 
ATOM     11  C   UNL     1       7.592   5.635  18.158  0.00  0.00    +0.000 A 
ATOM     12  C   UNL     1       6.838   5.382  19.283  0.00  0.00    +0.000 A 
ATOM     13  C   UNL     1       5.450   5.279  19.173  0.00  0.00    +0.000 A 
ATOM     14  C   UNL     1       4.763   5.395  17.930  0.00  0.00    +0.000 A 
BRANCH   9  16
ATOM     15  C   UNL     1       5.728   4.641  14.608  0.00  0.00    +0.000 C 
ATOM     16  O   UNL     1       5.228   5.638  15.463  0.00  0.00    +0.000 OA
ENDBRANCH   9  16
ENDBRANCH   1  14
BRANCH   7  17
ATOM     17  C   UNL     1       1.482   7.828  20.020  0.00  0.00    +0.000 C 
BRANCH  17  18
ATOM     18  N   UNL     1       1.245   9.305  19.917  0.00  0.00    +0.000 NA
BRANCH  18  19
ATOM     19  C   UNL     1       1.088   9.772  18.499  0.00  0.00    +0.000 C 
ATOM     20  C   UNL     1      -0.390  10.006  18.121  0.00  0.00    +0.000 C 
ATOM     21  C   UNL     1       1.816  11.082  18.145  0.00  0.00    +0.000 C 
ENDBRANCH  18  19
BRANCH  18  22
ATOM     22  C   UNL     1       0.087   9.692  20.784  0.00  0.00    +0.000 C 
ATOM     23  C   UNL     1      -0.389   8.596  21.751  0.00  0.00    +0.000 C 
ATOM     24  C   UNL     1       0.302  11.005  21.559  0.00  0.00    +0.000 C 
ENDBRANCH  18  22
ENDBRANCH  17  18
ENDBRANCH   7  17
TORSDOF 6
ENDMDL
MODEL 2
REMARK VINA RESULT:      -6.9      1.346      1.968
REMARK  Name = 
REMARK  12 active torsions:
REMARK  status: ('A' for Active; 'I' for Inactive)
REMARK    1  A    between atoms: C_1  and  O_2
REMARK    2  A    between atoms: O_2  and  C_3
REMARK    3  A    between atoms: C_8  and  C_9
REMARK    4  A    between atoms: C_11  and  C_12
REMARK    5  A    between atoms: C_15  and  C_17
REMARK    6  A    between atoms: C_17  and  N_18
REMARK    7  A    between atoms: N_18  and  C_19
REMARK    8  A    between atoms: N_18  and  C_22
REMARK    9  A    between atoms: C_19  and  C_20
REMARK   10  A    between atoms: C_19  and  C_21
REMARK   11  A    between atoms: C_22  and  C_23
REMARK   12  A    between atoms: C_22  and  C_24
REMARK                            x       y       z     vdW  Elec       q    Type
REMARK                         _______ _______ _______ _____ _____    ______ ____
ROOT
ATOM      1  C   UNL     1       3.013   4.785  17.352  0.00  0.00    +0.000 C 
ATOM      2  C   UNL     1       2.263   3.458  17.361  0.00  0.00    +0.000 C 
ATOM      3  C   UNL     1       1.484   3.618  18.632  0.00  0.00    +0.000 C 
ATOM      4  C   UNL     1       0.793   2.467  19.290  0.00  0.00    +0.000 C 
ATOM      5  N   UNL     1       1.509   4.798  19.176  0.00  0.00    +0.000 NA
ATOM      6  N   UNL     1       2.430   5.526  18.460  0.00  0.00    +0.000 N 
ATOM      7  C   UNL     1       2.719   6.868  18.719  0.00  0.00    +0.000 C 
ATOM      8  O   UNL     1       3.599   7.482  18.114  0.00  0.00    +0.000 OA
ENDROOT
BRANCH   1  14
ATOM      9  C   UNL     1       5.436   4.328  18.325  0.00  0.00    +0.000 A 
ATOM     10  C   UNL     1       6.818   4.501  18.122  0.00  0.00    +0.000 A 
ATOM     11  C   UNL     1       7.339   5.070  16.962  0.00  0.00    +0.000 A 
ATOM     12  C   UNL     1       6.471   5.475  15.970  0.00  0.00    +0.000 A 
ATOM     13  C   UNL     1       5.098   5.294  16.140  0.00  0.00    +0.000 A 
ATOM     14  C   UNL     1       4.533   4.728  17.319  0.00  0.00    +0.000 A 
BRANCH   9  16
ATOM     15  C   UNL     1       4.687   2.646  19.878  0.00  0.00    +0.000 C 
ATOM     16  O   UNL     1       5.214   3.921  19.610  0.00  0.00    +0.000 OA
ENDBRANCH   9  16
ENDBRANCH   1  14
BRANCH   7  17
ATOM     17  C   UNL     1       1.857   7.493  19.817  0.00  0.00    +0.000 C 
BRANCH  17  18
ATOM     18  N   UNL     1       1.617   8.967  19.696  0.00  0.00    +0.000 NA
BRANCH  18  19
ATOM     19  C   UNL     1       1.396   9.407  18.278  0.00  0.00    +0.000 C 
ATOM     20  C   UNL     1      -0.095   9.664  17.972  0.00  0.00    +0.000 C 
ATOM     21  C   UNL     1       2.131  10.693  17.857  0.00  0.00    +0.000 C 
ENDBRANCH  18  19
BRANCH  18  22
ATOM     22  C   UNL     1       0.500   9.374  20.607  0.00  0.00    +0.000 C 
ATOM     23  C   UNL     1       0.084   8.306  21.633  0.00  0.00    +0.000 C 
ATOM     24  C   UNL     1       0.739  10.713  21.327  0.00  0.00    +0.000 C 
ENDBRANCH  18  22
ENDBRANCH  17  18
ENDBRANCH   7  17
TORSDOF 6
ENDMDL
MODEL 3
REMARK VINA RESULT:      -6.9      0.543      1.145
REMARK  Name = 
REMARK  12 active torsions:
REMARK  status: ('A' for Active; 'I' for Inactive)
REMARK    1  A    between atoms: C_1  and  O_2
REMARK    2  A    between atoms: O_2  and  C_3
REMARK    3  A    between atoms: C_8  and  C_9
REMARK    4  A    between atoms: C_11  and  C_12
REMARK    5  A    between atoms: C_15  and  C_17
REMARK    6  A    between atoms: C_17  and  N_18
REMARK    7  A    between atoms: N_18  and  C_19
REMARK    8  A    between atoms: N_18  and  C_22
REMARK    9  A    between atoms: C_19  and  C_20
REMARK   10  A    between atoms: C_19  and  C_21
REMARK   11  A    between atoms: C_22  and  C_23
REMARK   12  A    between atoms: C_22  and  C_24
REMARK                            x       y       z     vdW  Elec       q    Type
REMARK                         _______ _______ _______ _____ _____    ______ ____
ROOT
ATOM      1  C   UNL     1       3.514   5.295  17.774  0.00  0.00    +0.000 C 
ATOM      2  C   UNL     1       3.151   3.837  18.026  0.00  0.00    +0.000 C 
ATOM      3  C   UNL     1       2.154   4.013  19.132  0.00  0.00    +0.000 C 
ATOM      4  C   UNL     1       1.690   2.867  19.973  0.00  0.00    +0.000 C 
ATOM      5  N   UNL     1       1.774   5.232  19.374  0.00  0.00    +0.000 NA
ATOM      6  N   UNL     1       2.578   6.038  18.603  0.00  0.00    +0.000 N 
ATOM      7  C   UNL     1       2.454   7.429  18.557  0.00  0.00    +0.000 C 
ATOM      8  O   UNL     1       3.231   8.141  17.917  0.00  0.00    +0.000 OA
ENDROOT
BRANCH   1  14
ATOM      9  C   UNL     1       5.880   6.150  16.937  0.00  0.00    +0.000 A 
ATOM     10  C   UNL     1       7.239   6.305  17.266  0.00  0.00    +0.000 A 
ATOM     11  C   UNL     1       7.742   6.001  18.530  0.00  0.00    +0.000 A 
ATOM     12  C   UNL     1       6.878   5.536  19.498  0.00  0.00    +0.000 A 
ATOM     13  C   UNL     1       5.522   5.394  19.200  0.00  0.00    +0.000 A 
ATOM     14  C   UNL     1       4.979   5.684  17.915  0.00  0.00    +0.000 A 
BRANCH   9  16
ATOM     15  C   UNL     1       5.695   5.258  14.707  0.00  0.00    +0.000 C 
ATOM     16  O   UNL     1       5.714   6.347  15.595  0.00  0.00    +0.000 OA
ENDBRANCH   9  16
ENDBRANCH   1  14
BRANCH   7  17
ATOM     17  C   UNL     1       1.285   7.981  19.376  0.00  0.00    +0.000 C 
BRANCH  17  18
ATOM     18  N   UNL     1       1.458   9.375  19.899  0.00  0.00    +0.000 NA
BRANCH  18  19
ATOM     19  C   UNL     1       0.841  10.412  19.007  0.00  0.00    +0.000 C 
ATOM     20  C   UNL     1       1.903  11.217  18.227  0.00  0.00    +0.000 C 
ATOM     21  C   UNL     1      -0.136   9.880  17.942  0.00  0.00    +0.000 C 
ENDBRANCH  18  19
BRANCH  18  22
ATOM     22  C   UNL     1       0.954   9.451  21.308  0.00  0.00    +0.000 C 
ATOM     23  C   UNL     1       0.344  10.808  21.700  0.00  0.00    +0.000 C 
ATOM     24  C   UNL     1      -0.021   8.321  21.683  0.00  0.00    +0.000 C 
ENDBRANCH  18  22
ENDBRANCH  17  18
ENDBRANCH   7  17
TORSDOF 6
ENDMDL
MODEL 4
REMARK VINA RESULT:      -6.6      1.778      3.810
REMARK  Name = 
REMARK  12 active torsions:
REMARK  status: ('A' for Active; 'I' for Inactive)
REMARK    1  A    between atoms: C_1  and  O_2
REMARK    2  A    between atoms: O_2  and  C_3
REMARK    3  A    between atoms: C_8  and  C_9
REMARK    4  A    between atoms: C_11  and  C_12
REMARK    5  A    between atoms: C_15  and  C_17
REMARK    6  A    between atoms: C_17  and  N_18
REMARK    7  A    between atoms: N_18  and  C_19
REMARK    8  A    between atoms: N_18  and  C_22
REMARK    9  A    between atoms: C_19  and  C_20
REMARK   10  A    between atoms: C_19  and  C_21
REMARK   11  A    between atoms: C_22  and  C_23
REMARK   12  A    between atoms: C_22  and  C_24
REMARK                            x       y       z     vdW  Elec       q    Type
REMARK                         _______ _______ _______ _____ _____    ______ ____
ROOT
ATOM      1  C   UNL     1       3.756   5.797  19.334  0.00  0.00    +0.000 C 
ATOM      2  C   UNL     1       4.880   5.489  18.353  0.00  0.00    +0.000 C 
ATOM      3  C   UNL     1       4.537   6.461  17.264  0.00  0.00    +0.000 C 
ATOM      4  C   UNL     1       5.152   6.379  15.903  0.00  0.00    +0.000 C 
ATOM      5  N   UNL     1       3.615   7.333  17.542  0.00  0.00    +0.000 NA
ATOM      6  N   UNL     1       3.099   6.962  18.762  0.00  0.00    +0.000 N 
ATOM      7  C   UNL     1       2.100   7.679  19.424  0.00  0.00    +0.000 C 
ATOM      8  O   UNL     1       1.599   7.291  20.482  0.00  0.00    +0.000 OA
ENDROOT
BRANCH   1  14
ATOM      9  C   UNL     1       1.942   3.905  18.940  0.00  0.00    +0.000 A 
ATOM     10  C   UNL     1       1.080   2.979  19.556  0.00  0.00    +0.000 A 
ATOM     11  C   UNL     1       1.067   2.771  20.934  0.00  0.00    +0.000 A 
ATOM     12  C   UNL     1       1.933   3.494  21.726  0.00  0.00    +0.000 A 
ATOM     13  C   UNL     1       2.812   4.403  21.134  0.00  0.00    +0.000 A 
ATOM     14  C   UNL     1       2.841   4.648  19.731  0.00  0.00    +0.000 A 
BRANCH   9  16
ATOM     15  C   UNL     1       2.421   3.461  16.621  0.00  0.00    +0.000 C 
ATOM     16  O   UNL     1       1.609   4.025  17.620  0.00  0.00    +0.000 OA
ENDBRANCH   9  16
ENDBRANCH   1  14
BRANCH   7  17
ATOM     17  C   UNL     1       1.682   8.970  18.718  0.00  0.00    +0.000 C 
BRANCH  17  18
ATOM     18  N   UNL     1       1.188  10.069  19.608  0.00  0.00    +0.000 NA
BRANCH  18  19
ATOM     19  C   UNL     1       1.330  11.429  18.989  0.00  0.00    +0.000 C 
ATOM     20  C   UNL     1       1.649  12.518  20.036  0.00  0.00    +0.000 C 
ATOM     21  C   UNL     1       2.424  11.560  17.912  0.00  0.00    +0.000 C 
ENDBRANCH  18  19
BRANCH  18  22
ATOM     22  C   UNL     1      -0.215   9.776  20.042  0.00  0.00    +0.000 C 
ATOM     23  C   UNL     1      -0.489  10.010  21.537  0.00  0.00    +0.000 C 
ATOM     24  C   UNL     1      -1.288  10.494  19.204  0.00  0.00    +0.000 C 
ENDBRANCH  18  22
ENDBRANCH  17  18
ENDBRANCH   7  17
TORSDOF 6
ENDMDL
MODEL 5
REMARK VINA RESULT:      -6.6      2.570      5.345
REMARK  Name = 
REMARK  12 active torsions:
REMARK  status: ('A' for Active; 'I' for Inactive)
REMARK    1  A    between atoms: C_1  and  O_2
REMARK    2  A    between atoms: O_2  and  C_3
REMARK    3  A    between atoms: C_8  and  C_9
REMARK    4  A    between atoms: C_11  and  C_12
REMARK    5  A    between atoms: C_15  and  C_17
REMARK    6  A    between atoms: C_17  and  N_18
REMARK    7  A    between atoms: N_18  and  C_19
REMARK    8  A    between atoms: N_18  and  C_22
REMARK    9  A    between atoms: C_19  and  C_20
REMARK   10  A    between atoms: C_19  and  C_21
REMARK   11  A    between atoms: C_22  and  C_23
REMARK   12  A    between atoms: C_22  and  C_24
REMARK                            x       y       z     vdW  Elec       q    Type
REMARK                         _______ _______ _______ _____ _____    ______ ____
ROOT
ATOM      1  C   UNL     1       4.955   6.527  17.828  0.00  0.00    +0.000 C 
ATOM      2  C   UNL     1       4.065   7.693  17.416  0.00  0.00    +0.000 C 
ATOM      3  C   UNL     1       2.779   7.268  18.061  0.00  0.00    +0.000 C 
ATOM      4  C   UNL     1       1.472   7.911  17.724  0.00  0.00    +0.000 C 
ATOM      5  N   UNL     1       2.851   6.256  18.872  0.00  0.00    +0.000 NA
ATOM      6  N   UNL     1       4.128   5.761  18.748  0.00  0.00    +0.000 N 
ATOM      7  C   UNL     1       4.610   4.681  19.491  0.00  0.00    +0.000 C 
ATOM      8  O   UNL     1       5.733   4.206  19.314  0.00  0.00    +0.000 OA
ENDROOT
BRANCH   1  14
ATOM      9  C   UNL     1       6.925   5.840  16.192  0.00  0.00    +0.000 A 
ATOM     10  C   UNL     1       7.278   5.095  15.051  0.00  0.00    +0.000 A 
ATOM     11  C   UNL     1       6.378   4.252  14.400  0.00  0.00    +0.000 A 
ATOM     12  C   UNL     1       5.096   4.138  14.892  0.00  0.00    +0.000 A 
ATOM     13  C   UNL     1       4.730   4.852  16.034  0.00  0.00    +0.000 A 
ATOM     14  C   UNL     1       5.621   5.730  16.715  0.00  0.00    +0.000 A 
BRANCH   9  16
ATOM     15  C   UNL     1       7.761   7.698  17.477  0.00  0.00    +0.000 C 
ATOM     16  O   UNL     1       7.938   6.703  16.500  0.00  0.00    +0.000 OA
ENDBRANCH   9  16
ENDBRANCH   1  14
BRANCH   7  17
ATOM     17  C   UNL     1       3.621   4.142  20.526  0.00  0.00    +0.000 C 
BRANCH  17  18
ATOM     18  N   UNL     1       2.961   2.842  20.181  0.00  0.00    +0.000 NA
BRANCH  18  19
ATOM     19  C   UNL     1       1.506   2.811  20.549  0.00  0.00    +0.000 C 
ATOM     20  C   UNL     1       1.280   2.331  21.999  0.00  0.00    +0.000 C 
ATOM     21  C   UNL     1       0.763   4.155  20.440  0.00  0.00    +0.000 C 
ENDBRANCH  18  19
BRANCH  18  22
ATOM     22  C   UNL     1       3.198   2.522  18.737  0.00  0.00    +0.000 C 
ATOM     23  C   UNL     1       3.807   1.134  18.477  0.00  0.00    +0.000 C 
ATOM     24  C   UNL     1       1.959   2.717  17.845  0.00  0.00    +0.000 C 
ENDBRANCH  18  22
ENDBRANCH  17  18
ENDBRANCH   7  17
TORSDOF 6
ENDMDL
MODEL 6
REMARK VINA RESULT:      -6.4      1.365      2.674
REMARK  Name = 
REMARK  12 active torsions:
REMARK  status: ('A' for Active; 'I' for Inactive)
REMARK    1  A    between atoms: C_1  and  O_2
REMARK    2  A    between atoms: O_2  and  C_3
REMARK    3  A    between atoms: C_8  and  C_9
REMARK    4  A    between atoms: C_11  and  C_12
REMARK    5  A    between atoms: C_15  and  C_17
REMARK    6  A    between atoms: C_17  and  N_18
REMARK    7  A    between atoms: N_18  and  C_19
REMARK    8  A    between atoms: N_18  and  C_22
REMARK    9  A    between atoms: C_19  and  C_20
REMARK   10  A    between atoms: C_19  and  C_21
REMARK   11  A    between atoms: C_22  and  C_23
REMARK   12  A    between atoms: C_22  and  C_24
REMARK                            x       y       z     vdW  Elec       q    Type
REMARK                         _______ _______ _______ _____ _____    ______ ____
ROOT
ATOM      1  C   UNL     1       3.209   4.267  18.195  0.00  0.00    +0.000 C 
ATOM      2  C   UNL     1       2.834   3.006  18.964  0.00  0.00    +0.000 C 
ATOM      3  C   UNL     1       2.590   3.600  20.319  0.00  0.00    +0.000 C 
ATOM      4  C   UNL     1       2.477   2.756  21.547  0.00  0.00    +0.000 C 
ATOM      5  N   UNL     1       2.561   4.898  20.380  0.00  0.00    +0.000 NA
ATOM      6  N   UNL     1       2.950   5.344  19.139  0.00  0.00    +0.000 N 
ATOM      7  C   UNL     1       3.011   6.695  18.792  0.00  0.00    +0.000 C 
ATOM      8  O   UNL     1       3.432   7.078  17.698  0.00  0.00    +0.000 OA
ENDROOT
BRANCH   1  14
ATOM      9  C   UNL     1       5.842   4.549  18.072  0.00  0.00    +0.000 A 
ATOM     10  C   UNL     1       6.957   4.669  17.220  0.00  0.00    +0.000 A 
ATOM     11  C   UNL     1       6.855   4.557  15.835  0.00  0.00    +0.000 A 
ATOM     12  C   UNL     1       5.620   4.314  15.274  0.00  0.00    +0.000 A 
ATOM     13  C   UNL     1       4.504   4.171  16.100  0.00  0.00    +0.000 A 
ATOM     14  C   UNL     1       4.572   4.292  17.518  0.00  0.00    +0.000 A 
BRANCH   9  16
ATOM     15  C   UNL     1       7.390   5.603  19.588  0.00  0.00    +0.000 C 
ATOM     16  O   UNL     1       6.208   4.882  19.346  0.00  0.00    +0.000 OA
ENDBRANCH   9  16
ENDBRANCH   1  14
BRANCH   7  17
ATOM     17  C   UNL     1       2.524   7.646  19.887  0.00  0.00    +0.000 C 
BRANCH  17  18
ATOM     18  N   UNL     1       1.306   8.453  19.554  0.00  0.00    +0.000 NA
BRANCH  18  19
ATOM     19  C   UNL     1       0.936   9.423  20.638  0.00  0.00    +0.000 C 
ATOM     20  C   UNL     1      -0.585   9.687  20.691  0.00  0.00    +0.000 C 
ATOM     21  C   UNL     1       1.332   9.008  22.067  0.00  0.00    +0.000 C 
ENDBRANCH  18  19
BRANCH  18  22
ATOM     22  C   UNL     1       1.487   9.116  18.223  0.00  0.00    +0.000 C 
ATOM     23  C   UNL     1       0.223   9.159  17.347  0.00  0.00    +0.000 C 
ATOM     24  C   UNL     1       2.103  10.524  18.308  0.00  0.00    +0.000 C 
ENDBRANCH  18  22
ENDBRANCH  17  18
ENDBRANCH   7  17
TORSDOF 6
ENDMDL
MODEL 7
REMARK VINA RESULT:      -6.4      1.841      4.168
REMARK  Name = 
REMARK  12 active torsions:
REMARK  status: ('A' for Active; 'I' for Inactive)
REMARK    1  A    between atoms: C_1  and  O_2
REMARK    2  A    between atoms: O_2  and  C_3
REMARK    3  A    between atoms: C_8  and  C_9
REMARK    4  A    between atoms: C_11  and  C_12
REMARK    5  A    between atoms: C_15  and  C_17
REMARK    6  A    between atoms: C_17  and  N_18
REMARK    7  A    between atoms: N_18  and  C_19
REMARK    8  A    between atoms: N_18  and  C_22
REMARK    9  A    between atoms: C_19  and  C_20
REMARK   10  A    between atoms: C_19  and  C_21
REMARK   11  A    between atoms: C_22  and  C_23
REMARK   12  A    between atoms: C_22  and  C_24
REMARK                            x       y       z     vdW  Elec       q    Type
REMARK                         _______ _______ _______ _____ _____    ______ ____
ROOT
ATOM      1  C   UNL     1       3.619   5.736  19.551  0.00  0.00    +0.000 C 
ATOM      2  C   UNL     1       4.714   5.554  18.507  0.00  0.00    +0.000 C 
ATOM      3  C   UNL     1       4.327   6.637  17.544  0.00  0.00    +0.000 C 
ATOM      4  C   UNL     1       4.899   6.714  16.165  0.00  0.00    +0.000 C 
ATOM      5  N   UNL     1       3.406   7.460  17.946  0.00  0.00    +0.000 NA
ATOM      6  N   UNL     1       2.932   6.949  19.132  0.00  0.00    +0.000 N 
ATOM      7  C   UNL     1       1.948   7.574  19.900  0.00  0.00    +0.000 C 
ATOM      8  O   UNL     1       1.484   7.064  20.922  0.00  0.00    +0.000 OA
ENDROOT
BRANCH   1  14
ATOM      9  C   UNL     1       1.879   3.820  18.978  0.00  0.00    +0.000 A 
ATOM     10  C   UNL     1       1.027   2.832  19.506  0.00  0.00    +0.000 A 
ATOM     11  C   UNL     1       0.976   2.538  20.868  0.00  0.00    +0.000 A 
ATOM     12  C   UNL     1       1.793   3.235  21.732  0.00  0.00    +0.000 A 
ATOM     13  C   UNL     1       2.661   4.204  21.227  0.00  0.00    +0.000 A 
ATOM     14  C   UNL     1       2.728   4.537  19.844  0.00  0.00    +0.000 A 
BRANCH   9  16
ATOM     15  C   UNL     1       2.442   3.529  16.654  0.00  0.00    +0.000 C 
ATOM     16  O   UNL     1       1.585   4.012  17.658  0.00  0.00    +0.000 OA
ENDBRANCH   9  16
ENDBRANCH   1  14
BRANCH   7  17
ATOM     17  C   UNL     1       1.495   8.930  19.355  0.00  0.00    +0.000 C 
BRANCH  17  18
ATOM     18  N   UNL     1       0.255   9.500  19.975  0.00  0.00    +0.000 NA
BRANCH  18  19
ATOM     19  C   UNL     1       0.463   9.935  21.398  0.00  0.00    +0.000 C 
ATOM     20  C   UNL     1       0.163  11.436  21.599  0.00  0.00    +0.000 C 
ATOM     21  C   UNL     1      -0.388   9.199  22.450  0.00  0.00    +0.000 C 
ENDBRANCH  18  19
BRANCH  18  22
ATOM     22  C   UNL     1      -0.285  10.596  19.110  0.00  0.00    +0.000 C 
ATOM     23  C   UNL     1       0.778  11.369  18.311  0.00  0.00    +0.000 C 
ATOM     24  C   UNL     1      -1.413  10.144  18.164  0.00  0.00    +0.000 C 
ENDBRANCH  18  22
ENDBRANCH  17  18
ENDBRANCH   7  17
TORSDOF 6
ENDMDL
MODEL 8
REMARK VINA RESULT:      -6.4      1.679      6.750
REMARK  Name = 
REMARK  12 active torsions:
REMARK  status: ('A' for Active; 'I' for Inactive)
REMARK    1  A    between atoms: C_1  and  O_2
REMARK    2  A    between atoms: O_2  and  C_3
REMARK    3  A    between atoms: C_8  and  C_9
REMARK    4  A    between atoms: C_11  and  C_12
REMARK    5  A    between atoms: C_15  and  C_17
REMARK    6  A    between atoms: C_17  and  N_18
REMARK    7  A    between atoms: N_18  and  C_19
REMARK    8  A    between atoms: N_18  and  C_22
REMARK    9  A    between atoms: C_19  and  C_20
REMARK   10  A    between atoms: C_19  and  C_21
REMARK   11  A    between atoms: C_22  and  C_23
REMARK   12  A    between atoms: C_22  and  C_24
REMARK                            x       y       z     vdW  Elec       q    Type
REMARK                         _______ _______ _______ _____ _____    ______ ____
ROOT
ATOM      1  C   UNL     1       2.660   6.341  19.733  0.00  0.00    +0.000 C 
ATOM      2  C   UNL     1       1.795   5.258  20.367  0.00  0.00    +0.000 C 
ATOM      3  C   UNL     1       1.891   4.205  19.304  0.00  0.00    +0.000 C 
ATOM      4  C   UNL     1       0.977   3.022  19.273  0.00  0.00    +0.000 C 
ATOM      5  N   UNL     1       2.761   4.417  18.362  0.00  0.00    +0.000 NA
ATOM      6  N   UNL     1       3.230   5.694  18.561  0.00  0.00    +0.000 N 
ATOM      7  C   UNL     1       4.217   6.283  17.767  0.00  0.00    +0.000 C 
ATOM      8  O   UNL     1       4.573   7.454  17.915  0.00  0.00    +0.000 OA
ENDROOT
BRANCH   1  14
ATOM      9  C   UNL     1       1.431   8.588  20.416  0.00  0.00    +0.000 A 
ATOM     10  C   UNL     1       0.754   9.729  19.944  0.00  0.00    +0.000 A 
ATOM     11  C   UNL     1       0.622  10.012  18.586  0.00  0.00    +0.000 A 
ATOM     12  C   UNL     1       1.179   9.149  17.667  0.00  0.00    +0.000 A 
ATOM     13  C   UNL     1       1.872   8.023  18.112  0.00  0.00    +0.000 A 
ATOM     14  C   UNL     1       2.014   7.698  19.492  0.00  0.00    +0.000 A 
BRANCH   9  16
ATOM     15  C   UNL     1       0.528   9.456  22.474  0.00  0.00    +0.000 C 
ATOM     16  O   UNL     1       1.244   8.476  21.765  0.00  0.00    +0.000 OA
ENDBRANCH   9  16
ENDBRANCH   1  14
BRANCH   7  17
ATOM     17  C   UNL     1       4.801   5.353  16.701  0.00  0.00    +0.000 C 
BRANCH  17  18
ATOM     18  N   UNL     1       5.978   5.889  15.944  0.00  0.00    +0.000 NA
BRANCH  18  19
ATOM     19  C   UNL     1       7.268   5.750  16.698  0.00  0.00    +0.000 C 
ATOM     20  C   UNL     1       7.648   7.043  17.450  0.00  0.00    +0.000 C 
ATOM     21  C   UNL     1       7.303   4.632  17.758  0.00  0.00    +0.000 C 
ENDBRANCH  18  19
BRANCH  18  22
ATOM     22  C   UNL     1       6.033   5.261  14.585  0.00  0.00    +0.000 C 
ATOM     23  C   UNL     1       7.432   5.225  13.949  0.00  0.00    +0.000 C 
ATOM     24  C   UNL     1       5.401   3.859  14.521  0.00  0.00    +0.000 C 
ENDBRANCH  18  22
ENDBRANCH  17  18
ENDBRANCH   7  17
TORSDOF 6
ENDMDL
MODEL 9
REMARK VINA RESULT:      -6.4      1.060      1.560
REMARK  Name = 
REMARK  12 active torsions:
REMARK  status: ('A' for Active; 'I' for Inactive)
REMARK    1  A    between atoms: C_1  and  O_2
REMARK    2  A    between atoms: O_2  and  C_3
REMARK    3  A    between atoms: C_8  and  C_9
REMARK    4  A    between atoms: C_11  and  C_12
REMARK    5  A    between atoms: C_15  and  C_17
REMARK    6  A    between atoms: C_17  and  N_18
REMARK    7  A    between atoms: N_18  and  C_19
REMARK    8  A    between atoms: N_18  and  C_22
REMARK    9  A    between atoms: C_19  and  C_20
REMARK   10  A    between atoms: C_19  and  C_21
REMARK   11  A    between atoms: C_22  and  C_23
REMARK   12  A    between atoms: C_22  and  C_24
REMARK                            x       y       z     vdW  Elec       q    Type
REMARK                         _______ _______ _______ _____ _____    ______ ____
ROOT
ATOM      1  C   UNL     1       3.676   4.553  17.265  0.00  0.00    +0.000 C 
ATOM      2  C   UNL     1       3.145   3.142  17.486  0.00  0.00    +0.000 C 
ATOM      3  C   UNL     1       2.051   3.435  18.469  0.00  0.00    +0.000 C 
ATOM      4  C   UNL     1       1.384   2.356  19.260  0.00  0.00    +0.000 C 
ATOM      5  N   UNL     1       1.768   4.690  18.655  0.00  0.00    +0.000 NA
ATOM      6  N   UNL     1       2.730   5.400  17.975  0.00  0.00    +0.000 N 
ATOM      7  C   UNL     1       2.749   6.794  17.904  0.00  0.00    +0.000 C 
ATOM      8  O   UNL     1       3.660   7.415  17.351  0.00  0.00    +0.000 OA
ENDROOT
BRANCH   1  14
ATOM      9  C   UNL     1       6.284   4.513  16.791  0.00  0.00    +0.000 A 
ATOM     10  C   UNL     1       7.566   4.694  17.343  0.00  0.00    +0.000 A 
ATOM     11  C   UNL     1       7.762   5.138  18.650  0.00  0.00    +0.000 A 
ATOM     12  C   UNL     1       6.661   5.417  19.431  0.00  0.00    +0.000 A 
ATOM     13  C   UNL     1       5.381   5.265  18.897  0.00  0.00    +0.000 A 
ATOM     14  C   UNL     1       5.147   4.801  17.571  0.00  0.00    +0.000 A 
BRANCH   9  16
ATOM     15  C   UNL     1       6.068   4.592  14.393  0.00  0.00    +0.000 C 
ATOM     16  O   UNL     1       6.398   3.904  15.573  0.00  0.00    +0.000 OA
ENDBRANCH   9  16
ENDBRANCH   1  14
BRANCH   7  17
ATOM     17  C   UNL     1       1.555   7.473  18.578  0.00  0.00    +0.000 C 
BRANCH  17  18
ATOM     18  N   UNL     1       1.868   8.705  19.371  0.00  0.00    +0.000 NA
BRANCH  18  19
ATOM     19  C   UNL     1       1.182   9.930  18.839  0.00  0.00    +0.000 C 
ATOM     20  C   UNL     1       2.150  10.854  18.069  0.00  0.00    +0.000 C 
ATOM     21  C   UNL     1       0.007   9.671  17.877  0.00  0.00    +0.000 C 
ENDBRANCH  18  19
BRANCH  18  22
ATOM     22  C   UNL     1       1.575   8.462  20.819  0.00  0.00    +0.000 C 
ATOM     23  C   UNL     1       0.559   9.434  21.442  0.00  0.00    +0.000 C 
ATOM     24  C   UNL     1       1.163   7.013  21.137  0.00  0.00    +0.000 C 
ENDBRANCH  18  22
ENDBRANCH  17  18
ENDBRANCH   7  17
TORSDOF 6
ENDMDL
