MODEL 1
REMARK VINA RESULT:      -7.2      0.000      0.000
REMARK  Name = 
REMARK  8 active torsions:
REMARK  status: ('A' for Active; 'I' for Inactive)
REMARK    1  A    between atoms: C_1  and  C_2
REMARK    2  A    between atoms: N_4  and  C_5
REMARK    3  A    between atoms: C_14  and  C_15
REMARK    4  A    between atoms: C_15  and  C_16
REMARK    5  A    between atoms: C_15  and  C_18
REMARK    6  A    between atoms: C_18  and  O_20
REMARK    7  A    between atoms: O_20  and  C_21
REMARK    8  A    between atoms: C_28  and  C_29
REMARK                            x       y       z     vdW  Elec       q    Type
REMARK                         _______ _______ _______ _____ _____    ______ ____
ROOT
ATOM      1  C   UNL     1      -0.116  11.241  19.813  0.00  0.00    +0.000 A 
ATOM      2  N   UNL     1      -1.398  11.669  19.645  0.00  0.00    +0.000 NA
ATOM      3  C   UNL     1      -2.155  11.233  18.643  0.00  0.00    +0.000 A 
ATOM      4  C   UNL     1      -3.466  11.713  18.567  0.00  0.00    +0.000 A 
ATOM      5  C   UNL     1      -4.305  11.332  17.525  0.00  0.00    +0.000 A 
ATOM      6  C   UNL     1      -3.818  10.457  16.566  0.00  0.00    +0.000 A 
ATOM      7  C   UNL     1      -2.502   9.967  16.666  0.00  0.00    +0.000 A 
ATOM      8  C   UNL     1      -1.638  10.342  17.700  0.00  0.00    +0.000 A 
ATOM      9  N   UNL     1      -0.361   9.860  17.842  0.00  0.00    +0.000 NA
ATOM     10  C   UNL     1       0.405  10.243  18.932  0.00  0.00    +0.000 A 
ENDROOT
BRANCH   1  14
ATOM     11  C   UNL     1      -1.666  14.549  20.334  0.00  0.00    +0.000 C 
ATOM     12  C   UNL     1      -0.518  14.193  21.287  0.00  0.00    +0.000 C 
ATOM     13  C   UNL     1      -0.392  12.719  21.765  0.00  0.00    +0.000 C 
ATOM     14  N   UNL     1       0.490  11.827  20.922  0.00  0.00    +0.000 N 
ATOM     15  C   UNL     1       1.786  12.486  20.730  0.00  0.00    +0.000 C 
ATOM     16  C   UNL     1       1.652  13.937  20.196  0.00  0.00    +0.000 C 
ATOM     17  C   UNL     1       3.007  14.632  20.369  0.00  0.00    +0.000 C 
ATOM     18  O   UNL     1       0.730  14.779  20.908  0.00  0.00    +0.000 OA
ENDBRANCH   1  14
BRANCH  10  19
ATOM     19  C   UNL     1       1.581   9.261  19.286  0.00  0.00    +0.000 C 
BRANCH  19  20
ATOM     20  C   UNL     1       1.213   8.471  20.500  0.00  0.00    +0.000 C 
ATOM     21  N   UNL     1       0.964   7.854  21.463  0.00  0.00    +0.000 NA
ENDBRANCH  19  20
BRANCH  19  22
ATOM     22  C   UNL     1       2.195   8.285  18.210  0.00  0.00    +0.000 C 
ATOM     23  O   UNL     1       2.565   8.625  17.098  0.00  0.00    +0.000 OA
BRANCH  22  24
ATOM     24  O   UNL     1       2.397   7.022  18.742  0.00  0.00    +0.000 OA
BRANCH  24  25
ATOM     25  C   UNL     1       3.444   5.998  18.439  0.00  0.00    +0.000 C 
ATOM     26  C   UNL     1       3.758   5.306  19.785  0.00  0.00    +0.000 C 
ATOM     27  C   UNL     1       2.455   4.863  20.454  0.00  0.00    +0.000 C 
ATOM     28  C   UNL     1       1.374   4.289  19.518  0.00  0.00    +0.000 C 
ATOM     29  C   UNL     1       1.591   4.358  17.998  0.00  0.00    +0.000 C 
ATOM     30  C   UNL     1       2.972   4.815  17.570  0.00  0.00    +0.000 C 
ENDBRANCH  24  25
ENDBRANCH  22  24
ENDBRANCH  19  22
ENDBRANCH  10  19
TORSDOF 6
ENDMDL
MODEL 2
REMARK VINA RESULT:      -7.0      0.833      1.156
REMARK  Name = 
REMARK  8 active torsions:
REMARK  status: ('A' for Active; 'I' for Inactive)
REMARK    1  A    between atoms: C_1  and  C_2
REMARK    2  A    between atoms: N_4  and  C_5
REMARK    3  A    between atoms: C_14  and  C_15
REMARK    4  A    between atoms: C_15  and  C_16
REMARK    5  A    between atoms: C_15  and  C_18
REMARK    6  A    between atoms: C_18  and  O_20
REMARK    7  A    between atoms: O_20  and  C_21
REMARK    8  A    between atoms: C_28  and  C_29
REMARK                            x       y       z     vdW  Elec       q    Type
REMARK                         _______ _______ _______ _____ _____    ______ ____
ROOT
ATOM      1  C   UNL     1      -0.028  11.355  19.496  0.00  0.00    +0.000 A 
ATOM      2  N   UNL     1      -1.282  11.821  19.245  0.00  0.00    +0.000 NA
ATOM      3  C   UNL     1      -2.049  11.290  18.298  0.00  0.00    +0.000 A 
ATOM      4  C   UNL     1      -3.331  11.822  18.129  0.00  0.00    +0.000 A 
ATOM      5  C   UNL     1      -4.176  11.343  17.134  0.00  0.00    +0.000 A 
ATOM      6  C   UNL     1      -3.725  10.318  16.315  0.00  0.00    +0.000 A 
ATOM      7  C   UNL     1      -2.438   9.779  16.509  0.00  0.00    +0.000 A 
ATOM      8  C   UNL     1      -1.569  10.250  17.499  0.00  0.00    +0.000 A 
ATOM      9  N   UNL     1      -0.322   9.727  17.732  0.00  0.00    +0.000 NA
ATOM     10  C   UNL     1       0.449  10.218  18.774  0.00  0.00    +0.000 A 
ENDROOT
BRANCH   1  14
ATOM     11  C   UNL     1      -2.632  12.397  21.894  0.00  0.00    +0.000 C 
ATOM     12  C   UNL     1      -1.209  12.878  22.205  0.00  0.00    +0.000 C 
ATOM     13  C   UNL     1      -0.026  11.917  21.896  0.00  0.00    +0.000 C 
ATOM     14  N   UNL     1       0.595  12.058  20.525  0.00  0.00    +0.000 N 
ATOM     15  C   UNL     1       0.920  13.470  20.295  0.00  0.00    +0.000 C 
ATOM     16  C   UNL     1      -0.283  14.416  20.550  0.00  0.00    +0.000 C 
ATOM     17  C   UNL     1       0.251  15.850  20.626  0.00  0.00    +0.000 C 
ATOM     18  O   UNL     1      -0.969  14.227  21.798  0.00  0.00    +0.000 OA
ENDBRANCH   1  14
BRANCH  10  19
ATOM     19  C   UNL     1       1.566   9.235  19.284  0.00  0.00    +0.000 C 
BRANCH  19  20
ATOM     20  C   UNL     1       1.124   8.615  20.569  0.00  0.00    +0.000 C 
ATOM     21  N   UNL     1       0.748   8.108  21.555  0.00  0.00    +0.000 NA
ENDBRANCH  19  20
BRANCH  19  22
ATOM     22  C   UNL     1       2.166   8.111  18.355  0.00  0.00    +0.000 C 
ATOM     23  O   UNL     1       2.680   8.313  17.267  0.00  0.00    +0.000 OA
BRANCH  22  24
ATOM     24  O   UNL     1       2.165   6.883  18.997  0.00  0.00    +0.000 OA
BRANCH  24  25
ATOM     25  C   UNL     1       3.301   5.984  19.368  0.00  0.00    +0.000 C 
ATOM     26  C   UNL     1       2.745   5.027  20.446  0.00  0.00    +0.000 C 
ATOM     27  C   UNL     1       1.433   4.408  19.961  0.00  0.00    +0.000 C 
ATOM     28  C   UNL     1       1.379   4.016  18.472  0.00  0.00    +0.000 C 
ATOM     29  C   UNL     1       2.542   4.420  17.552  0.00  0.00    +0.000 C 
ATOM     30  C   UNL     1       3.747   5.003  18.265  0.00  0.00    +0.000 C 
ENDBRANCH  24  25
ENDBRANCH  22  24
ENDBRANCH  19  22
ENDBRANCH  10  19
TORSDOF 6
ENDMDL
MODEL 3
REMARK VINA RESULT:      -7.0      2.826      8.104
REMARK  Name = 
REMARK  8 active torsions:
REMARK  status: ('A' for Active; 'I' for Inactive)
REMARK    1  A    between atoms: C_1  and  C_2
REMARK    2  A    between atoms: N_4  and  C_5
REMARK    3  A    between atoms: C_14  and  C_15
REMARK    4  A    between atoms: C_15  and  C_16
REMARK    5  A    between atoms: C_15  and  C_18
REMARK    6  A    between atoms: C_18  and  O_20
REMARK    7  A    between atoms: O_20  and  C_21
REMARK    8  A    between atoms: C_28  and  C_29
REMARK                            x       y       z     vdW  Elec       q    Type
REMARK                         _______ _______ _______ _____ _____    ______ ____
ROOT
ATOM      1  C   UNL     1       3.675   6.190  17.938  0.00  0.00    +0.000 A 
ATOM      2  N   UNL     1       3.540   4.919  17.469  0.00  0.00    +0.000 NA
ATOM      3  C   UNL     1       2.749   4.033  18.068  0.00  0.00    +0.000 A 
ATOM      4  C   UNL     1       2.658   2.759  17.499  0.00  0.00    +0.000 A 
ATOM      5  C   UNL     1       1.881   1.769  18.091  0.00  0.00    +0.000 A 
ATOM      6  C   UNL     1       1.189   2.073  19.254  0.00  0.00    +0.000 A 
ATOM      7  C   UNL     1       1.274   3.366  19.804  0.00  0.00    +0.000 A 
ATOM      8  C   UNL     1       2.056   4.375  19.231  0.00  0.00    +0.000 A 
ATOM      9  N   UNL     1       2.137   5.653  19.726  0.00  0.00    +0.000 NA
ATOM     10  C   UNL     1       2.891   6.605  19.058  0.00  0.00    +0.000 A 
ENDROOT
BRANCH   1  14
ATOM     11  C   UNL     1       5.886   3.849  16.136  0.00  0.00    +0.000 C 
ATOM     12  C   UNL     1       6.182   5.339  15.927  0.00  0.00    +0.000 C 
ATOM     13  C   UNL     1       4.978   6.322  15.851  0.00  0.00    +0.000 C 
ATOM     14  N   UNL     1       4.553   6.943  17.161  0.00  0.00    +0.000 N 
ATOM     15  C   UNL     1       5.731   7.520  17.817  0.00  0.00    +0.000 C 
ATOM     16  C   UNL     1       6.906   6.514  17.941  0.00  0.00    +0.000 C 
ATOM     17  C   UNL     1       8.168   7.303  18.305  0.00  0.00    +0.000 C 
ATOM     18  O   UNL     1       7.259   5.818  16.734  0.00  0.00    +0.000 OA
ENDBRANCH   1  14
BRANCH  10  19
ATOM     19  C   UNL     1       2.496   8.094  19.373  0.00  0.00    +0.000 C 
BRANCH  19  20
ATOM     20  C   UNL     1       2.179   8.799  18.094  0.00  0.00    +0.000 C 
ATOM     21  N   UNL     1       1.893   9.334  17.093  0.00  0.00    +0.000 NA
ENDBRANCH  19  20
BRANCH  19  22
ATOM     22  C   UNL     1       1.387   8.448  20.438  0.00  0.00    +0.000 C 
ATOM     23  O   UNL     1       1.374   8.036  21.586  0.00  0.00    +0.000 OA
BRANCH  22  24
ATOM     24  O   UNL     1       0.512   9.403  19.946  0.00  0.00    +0.000 OA
BRANCH  24  25
ATOM     25  C   UNL     1      -0.453  10.294  20.662  0.00  0.00    +0.000 C 
ATOM     26  C   UNL     1       0.400  11.414  21.297  0.00  0.00    +0.000 C 
ATOM     27  C   UNL     1       1.329  12.018  20.242  0.00  0.00    +0.000 C 
ATOM     28  C   UNL     1       0.726  12.202  18.835  0.00  0.00    +0.000 C 
ATOM     29  C   UNL     1      -0.667  11.623  18.540  0.00  0.00    +0.000 C 
ATOM     30  C   UNL     1      -1.407  11.091  19.752  0.00  0.00    +0.000 C 
ENDBRANCH  24  25
ENDBRANCH  22  24
ENDBRANCH  19  22
ENDBRANCH  10  19
TORSDOF 6
ENDMDL
MODEL 4
REMARK VINA RESULT:      -6.7      3.590      7.710
REMARK  Name = 
REMARK  8 active torsions:
REMARK  status: ('A' for Active; 'I' for Inactive)
REMARK    1  A    between atoms: C_1  and  C_2
REMARK    2  A    between atoms: N_4  and  C_5
REMARK    3  A    between atoms: C_14  and  C_15
REMARK    4  A    between atoms: C_15  and  C_16
REMARK    5  A    between atoms: C_15  and  C_18
REMARK    6  A    between atoms: C_18  and  O_20
REMARK    7  A    between atoms: O_20  and  C_21
REMARK    8  A    between atoms: C_28  and  C_29
REMARK                            x       y       z     vdW  Elec       q    Type
REMARK                         _______ _______ _______ _____ _____    ______ ____
ROOT
ATOM      1  C   UNL     1      -1.699  12.082  20.119  0.00  0.00    +0.000 A 
ATOM      2  N   UNL     1      -1.444  11.653  18.852  0.00  0.00    +0.000 NA
ATOM      3  C   UNL     1      -2.415  11.499  17.957  0.00  0.00    +0.000 A 
ATOM      4  C   UNL     1      -2.052  11.074  16.675  0.00  0.00    +0.000 A 
ATOM      5  C   UNL     1      -3.016  10.855  15.698  0.00  0.00    +0.000 A 
ATOM      6  C   UNL     1      -4.348  11.074  16.017  0.00  0.00    +0.000 A 
ATOM      7  C   UNL     1      -4.697  11.520  17.306  0.00  0.00    +0.000 A 
ATOM      8  C   UNL     1      -3.745  11.740  18.307  0.00  0.00    +0.000 A 
ATOM      9  N   UNL     1      -4.050  12.202  19.563  0.00  0.00    +0.000 NA
ATOM     10  C   UNL     1      -3.034  12.447  20.474  0.00  0.00    +0.000 A 
ENDROOT
BRANCH   1  14
ATOM     11  C   UNL     1       0.721   9.633  18.790  0.00  0.00    +0.000 C 
ATOM     12  C   UNL     1       1.173  10.409  20.033  0.00  0.00    +0.000 C 
ATOM     13  C   UNL     1       0.759  11.904  20.156  0.00  0.00    +0.000 C 
ATOM     14  N   UNL     1      -0.538  12.168  20.885  0.00  0.00    +0.000 N 
ATOM     15  C   UNL     1      -0.510  11.467  22.173  0.00  0.00    +0.000 C 
ATOM     16  C   UNL     1      -0.154   9.964  22.034  0.00  0.00    +0.000 C 
ATOM     17  C   UNL     1       0.189   9.428  23.428  0.00  0.00    +0.000 C 
ATOM     18  O   UNL     1       1.012   9.671  21.246  0.00  0.00    +0.000 OA
ENDBRANCH   1  14
BRANCH  10  19
ATOM     19  C   UNL     1      -3.414  13.446  21.627  0.00  0.00    +0.000 C 
BRANCH  19  20
ATOM     20  C   UNL     1      -4.024  14.674  21.033  0.00  0.00    +0.000 C 
ATOM     21  N   UNL     1      -4.497  15.654  20.603  0.00  0.00    +0.000 NA
ENDBRANCH  19  20
BRANCH  19  22
ATOM     22  C   UNL     1      -4.284  12.992  22.862  0.00  0.00    +0.000 C 
ATOM     23  O   UNL     1      -3.909  13.027  24.023  0.00  0.00    +0.000 OA
BRANCH  22  24
ATOM     24  O   UNL     1      -5.578  12.687  22.473  0.00  0.00    +0.000 OA
BRANCH  24  25
ATOM     25  C   UNL     1      -6.879  13.319  22.854  0.00  0.00    +0.000 C 
ATOM     26  C   UNL     1      -7.571  13.690  21.524  0.00  0.00    +0.000 C 
ATOM     27  C   UNL     1      -7.577  12.478  20.589  0.00  0.00    +0.000 C 
ATOM     28  C   UNL     1      -7.846  11.113  21.252  0.00  0.00    +0.000 C 
ATOM     29  C   UNL     1      -7.912  11.029  22.785  0.00  0.00    +0.000 C 
ATOM     30  C   UNL     1      -7.906  12.367  23.499  0.00  0.00    +0.000 C 
ENDBRANCH  24  25
ENDBRANCH  22  24
ENDBRANCH  19  22
ENDBRANCH  10  19
TORSDOF 6
ENDMDL
MODEL 5
REMARK VINA RESULT:      -6.7      0.818      1.366
REMARK  Name = 
REMARK  8 active torsions:
REMARK  status: ('A' for Active; 'I' for Inactive)
REMARK    1  A    between atoms: C_1  and  C_2
REMARK    2  A    between atoms: N_4  and  C_5
REMARK    3  A    between atoms: C_14  and  C_15
REMARK    4  A    between atoms: C_15  and  C_16
REMARK    5  A    between atoms: C_15  and  C_18
REMARK    6  A    between atoms: C_18  and  O_20
REMARK    7  A    between atoms: O_20  and  C_21
REMARK    8  A    between atoms: C_28  and  C_29
REMARK                            x       y       z     vdW  Elec       q    Type
REMARK                         _______ _______ _______ _____ _____    ______ ____
ROOT
ATOM      1  C   UNL     1       0.095  11.425  19.285  0.00  0.00    +0.000 A 
ATOM      2  N   UNL     1      -1.172  11.905  19.153  0.00  0.00    +0.000 NA
ATOM      3  C   UNL     1      -2.056  11.333  18.341  0.00  0.00    +0.000 A 
ATOM      4  C   UNL     1      -3.340  11.886  18.289  0.00  0.00    +0.000 A 
ATOM      5  C   UNL     1      -4.305  11.364  17.436  0.00  0.00    +0.000 A 
ATOM      6  C   UNL     1      -3.973  10.278  16.640  0.00  0.00    +0.000 A 
ATOM      7  C   UNL     1      -2.682   9.720  16.717  0.00  0.00    +0.000 A 
ATOM      8  C   UNL     1      -1.693  10.232  17.563  0.00  0.00    +0.000 A 
ATOM      9  N   UNL     1      -0.436   9.694  17.682  0.00  0.00    +0.000 NA
ATOM     10  C   UNL     1       0.463  10.232  18.590  0.00  0.00    +0.000 A 
ENDROOT
BRANCH   1  14
ATOM     11  C   UNL     1      -1.949  11.959  22.310  0.00  0.00    +0.000 C 
ATOM     12  C   UNL     1      -0.577  12.644  22.304  0.00  0.00    +0.000 C 
ATOM     13  C   UNL     1       0.616  11.890  21.649  0.00  0.00    +0.000 C 
ATOM     14  N   UNL     1       0.848  12.178  20.183  0.00  0.00    +0.000 N 
ATOM     15  C   UNL     1       0.903  13.630  19.988  0.00  0.00    +0.000 C 
ATOM     16  C   UNL     1      -0.320  14.368  20.594  0.00  0.00    +0.000 C 
ATOM     17  C   UNL     1       0.007  15.863  20.646  0.00  0.00    +0.000 C 
ATOM     18  O   UNL     1      -0.640  14.028  21.953  0.00  0.00    +0.000 OA
ENDBRANCH   1  14
BRANCH  10  19
ATOM     19  C   UNL     1       1.615   9.257  19.030  0.00  0.00    +0.000 C 
BRANCH  19  20
ATOM     20  C   UNL     1       1.200   8.534  20.270  0.00  0.00    +0.000 C 
ATOM     21  N   UNL     1       0.840   7.957  21.222  0.00  0.00    +0.000 NA
ENDBRANCH  19  20
BRANCH  19  22
ATOM     22  C   UNL     1       2.250   8.220  18.025  0.00  0.00    +0.000 C 
ATOM     23  O   UNL     1       2.877   8.524  17.022  0.00  0.00    +0.000 OA
BRANCH  22  24
ATOM     24  O   UNL     1       2.132   6.926  18.504  0.00  0.00    +0.000 OA
BRANCH  24  25
ATOM     25  C   UNL     1       2.379   5.616  17.827  0.00  0.00    +0.000 C 
ATOM     26  C   UNL     1       3.805   5.189  18.244  0.00  0.00    +0.000 C 
ATOM     27  C   UNL     1       3.948   5.281  19.764  0.00  0.00    +0.000 C 
ATOM     28  C   UNL     1       2.728   4.825  20.588  0.00  0.00    +0.000 C 
ATOM     29  C   UNL     1       1.420   4.485  19.857  0.00  0.00    +0.000 C 
ATOM     30  C   UNL     1       1.526   4.440  18.345  0.00  0.00    +0.000 C 
ENDBRANCH  24  25
ENDBRANCH  22  24
ENDBRANCH  19  22
ENDBRANCH  10  19
TORSDOF 6
ENDMDL
MODEL 6
REMARK VINA RESULT:      -6.6      4.125      6.842
REMARK  Name = 
REMARK  8 active torsions:
REMARK  status: ('A' for Active; 'I' for Inactive)
REMARK    1  A    between atoms: C_1  and  C_2
REMARK    2  A    between atoms: N_4  and  C_5
REMARK    3  A    between atoms: C_14  and  C_15
REMARK    4  A    between atoms: C_15  and  C_16
REMARK    5  A    between atoms: C_15  and  C_18
REMARK    6  A    between atoms: C_18  and  O_20
REMARK    7  A    between atoms: O_20  and  C_21
REMARK    8  A    between atoms: C_28  and  C_29
REMARK                            x       y       z     vdW  Elec       q    Type
REMARK                         _______ _______ _______ _____ _____    ______ ____
ROOT
ATOM      1  C   UNL     1      -3.628  12.888  20.600  0.00  0.00    +0.000 A 
ATOM      2  N   UNL     1      -4.101  12.321  19.456  0.00  0.00    +0.000 NA
ATOM      3  C   UNL     1      -3.343  11.530  18.702  0.00  0.00    +0.000 A 
ATOM      4  C   UNL     1      -3.925  10.978  17.556  0.00  0.00    +0.000 A 
ATOM      5  C   UNL     1      -3.183  10.171  16.700  0.00  0.00    +0.000 A 
ATOM      6  C   UNL     1      -1.855   9.918  17.008  0.00  0.00    +0.000 A 
ATOM      7  C   UNL     1      -1.288  10.466  18.175  0.00  0.00    +0.000 A 
ATOM      8  C   UNL     1      -2.013  11.286  19.047  0.00  0.00    +0.000 A 
ATOM      9  N   UNL     1      -1.498  11.810  20.207  0.00  0.00    +0.000 NA
ATOM     10  C   UNL     1      -2.308  12.565  21.042  0.00  0.00    +0.000 A 
ENDROOT
BRANCH   1  14
ATOM     11  C   UNL     1      -6.866  11.133  20.373  0.00  0.00    +0.000 C 
ATOM     12  C   UNL     1      -6.904  12.519  21.030  0.00  0.00    +0.000 C 
ATOM     13  C   UNL     1      -5.704  12.938  21.927  0.00  0.00    +0.000 C 
ATOM     14  N   UNL     1      -4.588  13.679  21.227  0.00  0.00    +0.000 N 
ATOM     15  C   UNL     1      -5.162  14.795  20.469  0.00  0.00    +0.000 C 
ATOM     16  C   UNL     1      -6.319  14.358  19.533  0.00  0.00    +0.000 C 
ATOM     17  C   UNL     1      -7.059  15.618  19.074  0.00  0.00    +0.000 C 
ATOM     18  O   UNL     1      -7.340  13.550  20.143  0.00  0.00    +0.000 OA
ENDBRANCH   1  14
BRANCH  10  19
ATOM     19  C   UNL     1      -1.815  12.649  22.533  0.00  0.00    +0.000 C 
BRANCH  19  20
ATOM     20  C   UNL     1      -1.223  11.336  22.929  0.00  0.00    +0.000 C 
ATOM     21  N   UNL     1      -0.778  10.310  23.276  0.00  0.00    +0.000 NA
ENDBRANCH  19  20
BRANCH  19  22
ATOM     22  C   UNL     1      -0.864  13.806  23.026  0.00  0.00    +0.000 C 
ATOM     23  O   UNL     1      -0.975  14.385  24.094  0.00  0.00    +0.000 OA
BRANCH  22  24
ATOM     24  O   UNL     1       0.201  13.979  22.156  0.00  0.00    +0.000 OA
BRANCH  24  25
ATOM     25  C   UNL     1       1.022  15.193  21.859  0.00  0.00    +0.000 C 
ATOM     26  C   UNL     1       2.423  14.669  21.473  0.00  0.00    +0.000 C 
ATOM     27  C   UNL     1       2.292  13.579  20.407  0.00  0.00    +0.000 C 
ATOM     28  C   UNL     1       1.226  13.820  19.321  0.00  0.00    +0.000 C 
ATOM     29  C   UNL     1       0.267  15.012  19.468  0.00  0.00    +0.000 C 
ATOM     30  C   UNL     1       0.608  15.970  20.593  0.00  0.00    +0.000 C 
ENDBRANCH  24  25
ENDBRANCH  22  24
ENDBRANCH  19  22
ENDBRANCH  10  19
TORSDOF 6
ENDMDL
MODEL 7
REMARK VINA RESULT:      -6.6      0.449      1.123
REMARK  Name = 
REMARK  8 active torsions:
REMARK  status: ('A' for Active; 'I' for Inactive)
REMARK    1  A    between atoms: C_1  and  C_2
REMARK    2  A    between atoms: N_4  and  C_5
REMARK    3  A    between atoms: C_14  and  C_15
REMARK    4  A    between atoms: C_15  and  C_16
REMARK    5  A    between atoms: C_15  and  C_18
REMARK    6  A    between atoms: C_18  and  O_20
REMARK    7  A    between atoms: O_20  and  C_21
REMARK    8  A    between atoms: C_28  and  C_29
REMARK                            x       y       z     vdW  Elec       q    Type
REMARK                         _______ _______ _______ _____ _____    ______ ____
ROOT
ATOM      1  C   UNL     1      -0.113  11.308  19.794  0.00  0.00    +0.000 A 
ATOM      2  N   UNL     1      -1.401  11.722  19.643  0.00  0.00    +0.000 NA
ATOM      3  C   UNL     1      -2.171  11.269  18.657  0.00  0.00    +0.000 A 
ATOM      4  C   UNL     1      -3.488  11.736  18.598  0.00  0.00    +0.000 A 
ATOM      5  C   UNL     1      -4.339  11.336  17.574  0.00  0.00    +0.000 A 
ATOM      6  C   UNL     1      -3.859  10.455  16.616  0.00  0.00    +0.000 A 
ATOM      7  C   UNL     1      -2.537   9.978  16.700  0.00  0.00    +0.000 A 
ATOM      8  C   UNL     1      -1.660  10.373  17.716  0.00  0.00    +0.000 A 
ATOM      9  N   UNL     1      -0.377   9.904  17.842  0.00  0.00    +0.000 NA
ATOM     10  C   UNL     1       0.403  10.306  18.916  0.00  0.00    +0.000 A 
ENDROOT
BRANCH   1  14
ATOM     11  C   UNL     1      -1.410  14.752  20.070  0.00  0.00    +0.000 C 
ATOM     12  C   UNL     1      -0.322  14.367  21.079  0.00  0.00    +0.000 C 
ATOM     13  C   UNL     1      -0.327  12.918  21.647  0.00  0.00    +0.000 C 
ATOM     14  N   UNL     1       0.505  11.912  20.886  0.00  0.00    +0.000 N 
ATOM     15  C   UNL     1       1.854  12.457  20.700  0.00  0.00    +0.000 C 
ATOM     16  C   UNL     1       1.851  13.878  20.079  0.00  0.00    +0.000 C 
ATOM     17  C   UNL     1       3.251  14.476  20.255  0.00  0.00    +0.000 C 
ATOM     18  O   UNL     1       0.978  14.830  20.709  0.00  0.00    +0.000 OA
ENDBRANCH   1  14
BRANCH  10  19
ATOM     19  C   UNL     1       1.594   9.339  19.260  0.00  0.00    +0.000 C 
BRANCH  19  20
ATOM     20  C   UNL     1       1.226   8.510  20.448  0.00  0.00    +0.000 C 
ATOM     21  N   UNL     1       0.922   7.895  21.396  0.00  0.00    +0.000 NA
ENDBRANCH  19  20
BRANCH  19  22
ATOM     22  C   UNL     1       2.242   8.403  18.168  0.00  0.00    +0.000 C 
ATOM     23  O   UNL     1       2.627   8.781  17.074  0.00  0.00    +0.000 OA
BRANCH  22  24
ATOM     24  O   UNL     1       2.453   7.128  18.668  0.00  0.00    +0.000 OA
BRANCH  24  25
ATOM     25  C   UNL     1       2.140   5.791  18.074  0.00  0.00    +0.000 C 
ATOM     26  C   UNL     1       3.439   5.326  17.378  0.00  0.00    +0.000 C 
ATOM     27  C   UNL     1       4.618   5.455  18.345  0.00  0.00    +0.000 C 
ATOM     28  C   UNL     1       4.338   5.065  19.810  0.00  0.00    +0.000 C 
ATOM     29  C   UNL     1       2.895   4.753  20.235  0.00  0.00    +0.000 C 
ATOM     30  C   UNL     1       1.898   4.662  19.095  0.00  0.00    +0.000 C 
ENDBRANCH  24  25
ENDBRANCH  22  24
ENDBRANCH  19  22
ENDBRANCH  10  19
TORSDOF 6
ENDMDL
MODEL 8
REMARK VINA RESULT:      -6.6      7.316      9.554
REMARK  Name = 
REMARK  8 active torsions:
REMARK  status: ('A' for Active; 'I' for Inactive)
REMARK    1  A    between atoms: C_1  and  C_2
REMARK    2  A    between atoms: N_4  and  C_5
REMARK    3  A    between atoms: C_14  and  C_15
REMARK    4  A    between atoms: C_15  and  C_16
REMARK    5  A    between atoms: C_15  and  C_18
REMARK    6  A    between atoms: C_18  and  O_20
REMARK    7  A    between atoms: O_20  and  C_21
REMARK    8  A    between atoms: C_28  and  C_29
REMARK                            x       y       z     vdW  Elec       q    Type
REMARK                         _______ _______ _______ _____ _____    ______ ____
ROOT
ATOM      1  C   UNL     1       6.460  15.712  21.100  0.00  0.00    +0.000 A 
ATOM      2  N   UNL     1       6.306  15.790  22.451  0.00  0.00    +0.000 NA
ATOM      3  C   UNL     1       6.950  14.971  23.277  0.00  0.00    +0.000 A 
ATOM      4  C   UNL     1       6.743  15.142  24.650  0.00  0.00    +0.000 A 
ATOM      5  C   UNL     1       7.353  14.299  25.572  0.00  0.00    +0.000 A 
ATOM      6  C   UNL     1       8.179  13.288  25.104  0.00  0.00    +0.000 A 
ATOM      7  C   UNL     1       8.392  13.139  23.720  0.00  0.00    +0.000 A 
ATOM      8  C   UNL     1       7.784  13.970  22.774  0.00  0.00    +0.000 A 
ATOM      9  N   UNL     1       7.994  13.870  21.421  0.00  0.00    +0.000 NA
ATOM     10  C   UNL     1       7.394  14.776  20.560  0.00  0.00    +0.000 A 
ENDROOT
BRANCH   1  14
ATOM     11  C   UNL     1       2.924  15.133  21.982  0.00  0.00    +0.000 C 
ATOM     12  C   UNL     1       3.182  16.249  20.963  0.00  0.00    +0.000 C 
ATOM     13  C   UNL     1       4.448  17.134  21.149  0.00  0.00    +0.000 C 
ATOM     14  N   UNL     1       5.691  16.662  20.431  0.00  0.00    +0.000 N 
ATOM     15  C   UNL     1       5.361  16.412  19.024  0.00  0.00    +0.000 C 
ATOM     16  C   UNL     1       4.132  15.481  18.848  0.00  0.00    +0.000 C 
ATOM     17  C   UNL     1       3.672  15.575  17.390  0.00  0.00    +0.000 C 
ATOM     18  O   UNL     1       2.967  15.838  19.611  0.00  0.00    +0.000 OA
ENDBRANCH   1  14
BRANCH  10  19
ATOM     19  C   UNL     1       8.098  14.917  19.161  0.00  0.00    +0.000 C 
BRANCH  19  20
ATOM     20  C   UNL     1       9.465  15.488  19.355  0.00  0.00    +0.000 C 
ATOM     21  N   UNL     1      10.544  15.928  19.468  0.00  0.00    +0.000 NA
ENDBRANCH  19  20
BRANCH  19  22
ATOM     22  C   UNL     1       8.191  13.706  18.155  0.00  0.00    +0.000 C 
ATOM     23  O   UNL     1       7.327  13.413  17.345  0.00  0.00    +0.000 OA
BRANCH  22  24
ATOM     24  O   UNL     1       9.439  13.109  18.209  0.00  0.00    +0.000 OA
BRANCH  24  25
ATOM     25  C   UNL     1       9.864  11.718  17.858  0.00  0.00    +0.000 C 
ATOM     26  C   UNL     1      11.400  11.693  18.026  0.00  0.00    +0.000 C 
ATOM     27  C   UNL     1      11.779  12.265  19.394  0.00  0.00    +0.000 C 
ATOM     28  C   UNL     1      10.862  11.875  20.569  0.00  0.00    +0.000 C 
ATOM     29  C   UNL     1       9.563  11.108  20.278  0.00  0.00    +0.000 C 
ATOM     30  C   UNL     1       9.413  10.626  18.847  0.00  0.00    +0.000 C 
ENDBRANCH  24  25
ENDBRANCH  22  24
ENDBRANCH  19  22
ENDBRANCH  10  19
TORSDOF 6
ENDMDL
MODEL 9
REMARK VINA RESULT:      -6.5      3.760      8.054
REMARK  Name = 
REMARK  8 active torsions:
REMARK  status: ('A' for Active; 'I' for Inactive)
REMARK    1  A    between atoms: C_1  and  C_2
REMARK    2  A    between atoms: N_4  and  C_5
REMARK    3  A    between atoms: C_14  and  C_15
REMARK    4  A    between atoms: C_15  and  C_16
REMARK    5  A    between atoms: C_15  and  C_18
REMARK    6  A    between atoms: C_18  and  O_20
REMARK    7  A    between atoms: O_20  and  C_21
REMARK    8  A    between atoms: C_28  and  C_29
REMARK                            x       y       z     vdW  Elec       q    Type
REMARK                         _______ _______ _______ _____ _____    ______ ____
ROOT
ATOM      1  C   UNL     1      -1.699  11.990  20.006  0.00  0.00    +0.000 A 
ATOM      2  N   UNL     1      -1.502  11.604  18.715  0.00  0.00    +0.000 NA
ATOM      3  C   UNL     1      -2.513  11.478  17.860  0.00  0.00    +0.000 A 
ATOM      4  C   UNL     1      -2.209  11.097  16.550  0.00  0.00    +0.000 A 
ATOM      5  C   UNL     1      -3.217  10.909  15.611  0.00  0.00    +0.000 A 
ATOM      6  C   UNL     1      -4.533  11.114  15.998  0.00  0.00    +0.000 A 
ATOM      7  C   UNL     1      -4.823  11.516  17.316  0.00  0.00    +0.000 A 
ATOM      8  C   UNL     1      -3.826  11.704  18.279  0.00  0.00    +0.000 A 
ATOM      9  N   UNL     1      -4.074  12.123  19.562  0.00  0.00    +0.000 NA
ATOM     10  C   UNL     1      -3.017  12.340  20.434  0.00  0.00    +0.000 A 
ENDROOT
BRANCH   1  14
ATOM     11  C   UNL     1       0.591   9.455  18.612  0.00  0.00    +0.000 C 
ATOM     12  C   UNL     1       1.118  10.234  19.823  0.00  0.00    +0.000 C 
ATOM     13  C   UNL     1       0.752  11.742  19.941  0.00  0.00    +0.000 C 
ATOM     14  N   UNL     1      -0.505  12.053  20.720  0.00  0.00    +0.000 N 
ATOM     15  C   UNL     1      -0.442  11.369  22.016  0.00  0.00    +0.000 C 
ATOM     16  C   UNL     1      -0.134   9.855  21.885  0.00  0.00    +0.000 C 
ATOM     17  C   UNL     1       0.253   9.328  23.271  0.00  0.00    +0.000 C 
ATOM     18  O   UNL     1       0.988   9.518  21.053  0.00  0.00    +0.000 OA
ENDBRANCH   1  14
BRANCH  10  19
ATOM     19  C   UNL     1      -3.344  13.300  21.636  0.00  0.00    +0.000 C 
BRANCH  19  20
ATOM     20  C   UNL     1      -3.738  14.639  21.102  0.00  0.00    +0.000 C 
ATOM     21  N   UNL     1      -4.017  15.684  20.656  0.00  0.00    +0.000 NA
ENDBRANCH  19  20
BRANCH  19  22
ATOM     22  C   UNL     1      -4.357  12.886  22.772  0.00  0.00    +0.000 C 
ATOM     23  O   UNL     1      -4.041  12.330  23.811  0.00  0.00    +0.000 OA
BRANCH  22  24
ATOM     24  O   UNL     1      -5.628  13.367  22.504  0.00  0.00    +0.000 OA
BRANCH  24  25
ATOM     25  C   UNL     1      -6.924  12.638  22.336  0.00  0.00    +0.000 C 
ATOM     26  C   UNL     1      -7.681  12.814  23.671  0.00  0.00    +0.000 C 
ATOM     27  C   UNL     1      -7.703  14.293  24.063  0.00  0.00    +0.000 C 
ATOM     28  C   UNL     1      -7.915  15.295  22.912  0.00  0.00    +0.000 C 
ATOM     29  C   UNL     1      -7.913  14.779  21.464  0.00  0.00    +0.000 C 
ATOM     30  C   UNL     1      -7.903  13.268  21.325  0.00  0.00    +0.000 C 
ENDBRANCH  24  25
ENDBRANCH  22  24
ENDBRANCH  19  22
ENDBRANCH  10  19
TORSDOF 6
ENDMDL
