MODEL 1
REMARK VINA RESULT:      -7.0      0.000      0.000
REMARK  Name = 
REMARK  12 active torsions:
REMARK  status: ('A' for Active; 'I' for Inactive)
REMARK    1  A    between atoms: C_1  and  C_2
REMARK    2  A    between atoms: C_2  and  N_3
REMARK    3  A    between atoms: N_3  and  C_4
REMARK    4  A    between atoms: N_3  and  S_6
REMARK    5  A    between atoms: C_4  and  C_5
REMARK    6  A    between atoms: S_6  and  N_9
REMARK    7  A    between atoms: C_10  and  C_12
REMARK    8  A    between atoms: C_12  and  C_13
REMARK    9  A    between atoms: C_13  and  C_14
REMARK   10  A    between atoms: C_14  and  C_15
REMARK   11  A    between atoms: C_16  and  C_17
REMARK   12  A    between atoms: C_28  and  C_29
REMARK                            x       y       z     vdW  Elec       q    Type
REMARK                         _______ _______ _______ _____ _____    ______ ____
ROOT
ATOM      1  C   UNL     1       1.839   7.725  19.713  0.00  0.00    +0.000 A 
ATOM      2  C   UNL     1       1.820   8.720  18.720  0.00  0.00    +0.000 A 
ATOM      3  N   UNL     1       2.614   8.262  17.690  0.00  0.00    +0.000 N 
ATOM      4  C   UNL     1       3.173   7.043  17.978  0.00  0.00    +0.000 A 
ATOM      5  C   UNL     1       4.043   6.258  17.210  0.00  0.00    +0.000 A 
ATOM      6  C   UNL     1       4.465   5.036  17.741  0.00  0.00    +0.000 A 
ATOM      7  C   UNL     1       4.028   4.619  18.994  0.00  0.00    +0.000 A 
ATOM      8  C   UNL     1       3.159   5.426  19.742  0.00  0.00    +0.000 A 
ATOM      9  C   UNL     1       2.709   6.670  19.237  0.00  0.00    +0.000 A 
ATOM     10  H   UNL     1       2.767   8.758  16.823  0.00  0.00    +0.000 HD
ENDROOT
BRANCH   2  11
ATOM     11  C   UNL     1       1.149  10.037  18.623  0.00  0.00    +0.000 A 
ATOM     12  C   UNL     1      -0.253  10.123  18.509  0.00  0.00    +0.000 A 
ATOM     13  C   UNL     1      -0.896  11.362  18.404  0.00  0.00    +0.000 A 
ATOM     14  C   UNL     1      -0.145  12.528  18.395  0.00  0.00    +0.000 A 
ATOM     15  F   UNL     1      -0.758  13.712  18.275  0.00  0.00    +0.000 F 
ATOM     16  C   UNL     1       1.234  12.477  18.514  0.00  0.00    +0.000 A 
ATOM     17  C   UNL     1       1.872  11.239  18.643  0.00  0.00    +0.000 A 
ENDBRANCH   2  11
BRANCH   7  18
ATOM     18  C   UNL     1       4.457   3.361  19.533  0.00  0.00    +0.000 C 
ATOM     19  N   UNL     1       4.808   2.354  19.988  0.00  0.00    +0.000 NA
ENDBRANCH   7  18
BRANCH   1  20
ATOM     20  C   UNL     1       1.080   7.795  21.023  0.00  0.00    +0.000 C 
BRANCH  20  21
ATOM     21  C   UNL     1       1.115   9.122  21.789  0.00  0.00    +0.000 C 
BRANCH  21  22
ATOM     22  C   UNL     1      -0.260   9.697  22.131  0.00  0.00    +0.000 C 
BRANCH  22  24
ATOM     23  N   UNL     1      -1.466  11.846  22.431  0.00  0.00    +0.000 N 
ATOM     24  C   UNL     1      -0.243  11.208  22.130  0.00  0.00    +0.000 C 
ATOM     25  O   UNL     1       0.787  11.805  21.841  0.00  0.00    +0.000 OA
ATOM     26  H   UNL     1      -2.112  11.364  23.054  0.00  0.00    +0.000 HD
BRANCH  23  27
ATOM     27  S   UNL     1      -1.533  13.495  22.597  0.00  0.00    +0.000 S 
ATOM     28  O   UNL     1      -1.237  14.136  21.338  0.00  0.00    +0.000 OA
ATOM     29  O   UNL     1      -0.830  13.833  23.812  0.00  0.00    +0.000 OA
BRANCH  27  30
ATOM     30  N   UNL     1      -3.198  13.770  22.899  0.00  0.00    +0.000 NA
BRANCH  30  32
ATOM     31  C   UNL     1      -4.935  14.004  21.043  0.00  0.00    +0.000 C 
ATOM     32  C   UNL     1      -3.761  14.619  21.784  0.00  0.00    +0.000 C 
ENDBRANCH  30  32
BRANCH  30  33
ATOM     33  C   UNL     1      -4.043  12.605  23.276  0.00  0.00    +0.000 C 
ATOM     34  C   UNL     1      -4.364  12.504  24.754  0.00  0.00    +0.000 C 
ENDBRANCH  30  33
ENDBRANCH  27  30
ENDBRANCH  23  27
ENDBRANCH  22  24
ENDBRANCH  21  22
ENDBRANCH  20  21
ENDBRANCH   1  20
TORSDOF 10
ENDMDL
MODEL 2
REMARK VINA RESULT:      -7.0      1.021      1.444
REMARK  Name = 
REMARK  12 active torsions:
REMARK  status: ('A' for Active; 'I' for Inactive)
REMARK    1  A    between atoms: C_1  and  C_2
REMARK    2  A    between atoms: C_2  and  N_3
REMARK    3  A    between atoms: N_3  and  C_4
REMARK    4  A    between atoms: N_3  and  S_6
REMARK    5  A    between atoms: C_4  and  C_5
REMARK    6  A    between atoms: S_6  and  N_9
REMARK    7  A    between atoms: C_10  and  C_12
REMARK    8  A    between atoms: C_12  and  C_13
REMARK    9  A    between atoms: C_13  and  C_14
REMARK   10  A    between atoms: C_14  and  C_15
REMARK   11  A    between atoms: C_16  and  C_17
REMARK   12  A    between atoms: C_28  and  C_29
REMARK                            x       y       z     vdW  Elec       q    Type
REMARK                         _______ _______ _______ _____ _____    ______ ____
ROOT
ATOM      1  C   UNL     1       1.406   8.140  19.848  0.00  0.00    +0.000 A 
ATOM      2  C   UNL     1       1.536   9.176  18.906  0.00  0.00    +0.000 A 
ATOM      3  N   UNL     1       2.418   8.725  17.947  0.00  0.00    +0.000 N 
ATOM      4  C   UNL     1       2.892   7.471  18.236  0.00  0.00    +0.000 A 
ATOM      5  C   UNL     1       3.808   6.680  17.529  0.00  0.00    +0.000 A 
ATOM      6  C   UNL     1       4.119   5.418  18.044  0.00  0.00    +0.000 A 
ATOM      7  C   UNL     1       3.531   4.969  19.222  0.00  0.00    +0.000 A 
ATOM      8  C   UNL     1       2.619   5.783  19.910  0.00  0.00    +0.000 A 
ATOM      9  C   UNL     1       2.278   7.067  19.419  0.00  0.00    +0.000 A 
ATOM     10  H   UNL     1       2.685   9.249  17.126  0.00  0.00    +0.000 HD
ENDROOT
BRANCH   2  11
ATOM     11  C   UNL     1       0.934  10.525  18.800  0.00  0.00    +0.000 A 
ATOM     12  C   UNL     1       1.748  11.676  18.784  0.00  0.00    +0.000 A 
ATOM     13  C   UNL     1       1.188  12.956  18.696  0.00  0.00    +0.000 A 
ATOM     14  C   UNL     1      -0.189  13.102  18.640  0.00  0.00    +0.000 A 
ATOM     15  F   UNL     1      -0.725  14.327  18.575  0.00  0.00    +0.000 F 
ATOM     16  C   UNL     1      -1.015  11.991  18.644  0.00  0.00    +0.000 A 
ATOM     17  C   UNL     1      -0.453  10.711  18.708  0.00  0.00    +0.000 A 
ENDBRANCH   2  11
BRANCH   7  18
ATOM     18  C   UNL     1       3.846   3.671  19.745  0.00  0.00    +0.000 C 
ATOM     19  N   UNL     1       4.117   2.631  20.180  0.00  0.00    +0.000 NA
ENDBRANCH   7  18
BRANCH   1  20
ATOM     20  C   UNL     1       0.512   8.190  21.071  0.00  0.00    +0.000 C 
BRANCH  20  21
ATOM     21  C   UNL     1       0.844   9.229  22.146  0.00  0.00    +0.000 C 
BRANCH  21  22
ATOM     22  C   UNL     1      -0.366   9.762  22.914  0.00  0.00    +0.000 C 
BRANCH  22  24
ATOM     23  N   UNL     1      -1.724  11.812  23.248  0.00  0.00    +0.000 N 
ATOM     24  C   UNL     1      -0.577  11.236  22.660  0.00  0.00    +0.000 C 
ATOM     25  O   UNL     1       0.206  11.849  21.945  0.00  0.00    +0.000 OA
ATOM     26  H   UNL     1      -2.060  11.413  24.123  0.00  0.00    +0.000 HD
BRANCH  23  27
ATOM     27  S   UNL     1      -1.982  13.448  23.154  0.00  0.00    +0.000 S 
ATOM     28  O   UNL     1      -2.494  13.799  21.851  0.00  0.00    +0.000 OA
ATOM     29  O   UNL     1      -0.825  14.098  23.722  0.00  0.00    +0.000 OA
BRANCH  27  30
ATOM     30  N   UNL     1      -3.271  13.685  24.259  0.00  0.00    +0.000 NA
BRANCH  30  32
ATOM     31  C   UNL     1      -3.762  16.094  24.947  0.00  0.00    +0.000 C 
ATOM     32  C   UNL     1      -3.963  14.986  23.929  0.00  0.00    +0.000 C 
ENDBRANCH  30  32
BRANCH  30  33
ATOM     33  C   UNL     1      -4.193  12.544  24.515  0.00  0.00    +0.000 C 
ATOM     34  C   UNL     1      -5.621  12.768  24.062  0.00  0.00    +0.000 C 
ENDBRANCH  30  33
ENDBRANCH  27  30
ENDBRANCH  23  27
ENDBRANCH  22  24
ENDBRANCH  21  22
ENDBRANCH  20  21
ENDBRANCH   1  20
TORSDOF 10
ENDMDL
MODEL 3
REMARK VINA RESULT:      -6.8      3.820      6.581
REMARK  Name = 
REMARK  12 active torsions:
REMARK  status: ('A' for Active; 'I' for Inactive)
REMARK    1  A    between atoms: C_1  and  C_2
REMARK    2  A    between atoms: C_2  and  N_3
REMARK    3  A    between atoms: N_3  and  C_4
REMARK    4  A    between atoms: N_3  and  S_6
REMARK    5  A    between atoms: C_4  and  C_5
REMARK    6  A    between atoms: S_6  and  N_9
REMARK    7  A    between atoms: C_10  and  C_12
REMARK    8  A    between atoms: C_12  and  C_13
REMARK    9  A    between atoms: C_13  and  C_14
REMARK   10  A    between atoms: C_14  and  C_15
REMARK   11  A    between atoms: C_16  and  C_17
REMARK   12  A    between atoms: C_28  and  C_29
REMARK                            x       y       z     vdW  Elec       q    Type
REMARK                         _______ _______ _______ _____ _____    ______ ____
ROOT
ATOM      1  C   UNL     1       4.559   4.701  17.547  0.00  0.00    +0.000 A 
ATOM      2  C   UNL     1       5.050   3.972  16.450  0.00  0.00    +0.000 A 
ATOM      3  N   UNL     1       4.628   2.671  16.622  0.00  0.00    +0.000 N 
ATOM      4  C   UNL     1       3.922   2.513  17.788  0.00  0.00    +0.000 A 
ATOM      5  C   UNL     1       3.345   1.356  18.329  0.00  0.00    +0.000 A 
ATOM      6  C   UNL     1       2.665   1.470  19.545  0.00  0.00    +0.000 A 
ATOM      7  C   UNL     1       2.568   2.699  20.190  0.00  0.00    +0.000 A 
ATOM      8  C   UNL     1       3.158   3.840  19.626  0.00  0.00    +0.000 A 
ATOM      9  C   UNL     1       3.854   3.764  18.395  0.00  0.00    +0.000 A 
ATOM     10  H   UNL     1       4.809   1.921  15.971  0.00  0.00    +0.000 HD
ENDROOT
BRANCH   2  11
ATOM     11  C   UNL     1       5.859   4.349  15.268  0.00  0.00    +0.000 A 
ATOM     12  C   UNL     1       5.538   3.853  13.988  0.00  0.00    +0.000 A 
ATOM     13  C   UNL     1       6.304   4.193  12.867  0.00  0.00    +0.000 A 
ATOM     14  C   UNL     1       7.408   5.019  13.013  0.00  0.00    +0.000 A 
ATOM     15  F   UNL     1       8.152   5.328  11.944  0.00  0.00    +0.000 F 
ATOM     16  C   UNL     1       7.745   5.530  14.255  0.00  0.00    +0.000 A 
ATOM     17  C   UNL     1       6.963   5.208  15.371  0.00  0.00    +0.000 A 
ENDBRANCH   2  11
BRANCH   7  18
ATOM     18  C   UNL     1       1.863   2.815  21.434  0.00  0.00    +0.000 C 
ATOM     19  N   UNL     1       1.312   2.904  22.450  0.00  0.00    +0.000 NA
ENDBRANCH   7  18
BRANCH   1  20
ATOM     20  C   UNL     1       4.764   6.188  17.759  0.00  0.00    +0.000 C 
BRANCH  20  21
ATOM     21  C   UNL     1       3.591   7.116  17.426  0.00  0.00    +0.000 C 
BRANCH  21  22
ATOM     22  C   UNL     1       2.661   7.416  18.602  0.00  0.00    +0.000 C 
BRANCH  22  24
ATOM     23  N   UNL     1       1.109   9.143  19.479  0.00  0.00    +0.000 N 
ATOM     24  C   UNL     1       1.935   8.727  18.412  0.00  0.00    +0.000 C 
ATOM     25  O   UNL     1       2.055   9.343  17.360  0.00  0.00    +0.000 OA
ATOM     26  H   UNL     1       1.374   8.862  20.422  0.00  0.00    +0.000 HD
BRANCH  23  27
ATOM     27  S   UNL     1       0.375  10.630  19.441  0.00  0.00    +0.000 S 
ATOM     28  O   UNL     1      -0.624  10.668  18.400  0.00  0.00    +0.000 OA
ATOM     29  O   UNL     1       1.417  11.625  19.539  0.00  0.00    +0.000 OA
BRANCH  27  30
ATOM     30  N   UNL     1      -0.477  10.662  20.928  0.00  0.00    +0.000 NA
BRANCH  30  32
ATOM     31  C   UNL     1      -0.170   9.551  23.206  0.00  0.00    +0.000 C 
ATOM     32  C   UNL     1      -0.166   9.399  21.696  0.00  0.00    +0.000 C 
ENDBRANCH  30  32
BRANCH  30  33
ATOM     33  C   UNL     1      -0.421  11.908  21.741  0.00  0.00    +0.000 C 
ATOM     34  C   UNL     1      -1.745  12.630  21.889  0.00  0.00    +0.000 C 
ENDBRANCH  30  33
ENDBRANCH  27  30
ENDBRANCH  23  27
ENDBRANCH  22  24
ENDBRANCH  21  22
ENDBRANCH  20  21
ENDBRANCH   1  20
TORSDOF 10
ENDMDL
MODEL 4
REMARK VINA RESULT:      -6.7      0.945      1.324
REMARK  Name = 
REMARK  12 active torsions:
REMARK  status: ('A' for Active; 'I' for Inactive)
REMARK    1  A    between atoms: C_1  and  C_2
REMARK    2  A    between atoms: C_2  and  N_3
REMARK    3  A    between atoms: N_3  and  C_4
REMARK    4  A    between atoms: N_3  and  S_6
REMARK    5  A    between atoms: C_4  and  C_5
REMARK    6  A    between atoms: S_6  and  N_9
REMARK    7  A    between atoms: C_10  and  C_12
REMARK    8  A    between atoms: C_12  and  C_13
REMARK    9  A    between atoms: C_13  and  C_14
REMARK   10  A    between atoms: C_14  and  C_15
REMARK   11  A    between atoms: C_16  and  C_17
REMARK   12  A    between atoms: C_28  and  C_29
REMARK                            x       y       z     vdW  Elec       q    Type
REMARK                         _______ _______ _______ _____ _____    ______ ____
ROOT
ATOM      1  C   UNL     1       1.386   8.386  19.840  0.00  0.00    +0.000 A 
ATOM      2  C   UNL     1       1.502   9.438  18.915  0.00  0.00    +0.000 A 
ATOM      3  N   UNL     1       2.358   8.999  17.927  0.00  0.00    +0.000 N 
ATOM      4  C   UNL     1       2.829   7.736  18.182  0.00  0.00    +0.000 A 
ATOM      5  C   UNL     1       3.722   6.952  17.440  0.00  0.00    +0.000 A 
ATOM      6  C   UNL     1       4.036   5.679  17.924  0.00  0.00    +0.000 A 
ATOM      7  C   UNL     1       3.472   5.212  19.107  0.00  0.00    +0.000 A 
ATOM      8  C   UNL     1       2.583   6.020  19.831  0.00  0.00    +0.000 A 
ATOM      9  C   UNL     1       2.240   7.315  19.371  0.00  0.00    +0.000 A 
ATOM     10  H   UNL     1       2.610   9.536  17.110  0.00  0.00    +0.000 HD
ENDROOT
BRANCH   2  11
ATOM     11  C   UNL     1       0.909  10.793  18.848  0.00  0.00    +0.000 A 
ATOM     12  C   UNL     1       1.725  11.940  18.917  0.00  0.00    +0.000 A 
ATOM     13  C   UNL     1       1.172  13.226  18.866  0.00  0.00    +0.000 A 
ATOM     14  C   UNL     1      -0.202  13.380  18.763  0.00  0.00    +0.000 A 
ATOM     15  F   UNL     1      -0.732  14.608  18.734  0.00  0.00    +0.000 F 
ATOM     16  C   UNL     1      -1.030  12.273  18.684  0.00  0.00    +0.000 A 
ATOM     17  C   UNL     1      -0.473  10.989  18.710  0.00  0.00    +0.000 A 
ENDBRANCH   2  11
BRANCH   7  18
ATOM     18  C   UNL     1       3.790   3.903  19.598  0.00  0.00    +0.000 C 
ATOM     19  N   UNL     1       4.025   2.841  20.001  0.00  0.00    +0.000 NA
ENDBRANCH   7  18
BRANCH   1  20
ATOM     20  C   UNL     1       0.521   8.419  21.085  0.00  0.00    +0.000 C 
BRANCH  20  21
ATOM     21  C   UNL     1       0.773   9.549  22.089  0.00  0.00    +0.000 C 
BRANCH  21  22
ATOM     22  C   UNL     1      -0.461   9.985  22.880  0.00  0.00    +0.000 C 
BRANCH  22  24
ATOM     23  N   UNL     1      -2.116  11.833  22.930  0.00  0.00    +0.000 N 
ATOM     24  C   UNL     1      -0.796  11.436  22.626  0.00  0.00    +0.000 C 
ATOM     25  O   UNL     1       0.049  12.181  22.146  0.00  0.00    +0.000 OA
ATOM     26  H   UNL     1      -2.598  11.344  23.683  0.00  0.00    +0.000 HD
BRANCH  23  27
ATOM     27  S   UNL     1      -2.556  13.429  22.825  0.00  0.00    +0.000 S 
ATOM     28  O   UNL     1      -2.283  13.937  21.502  0.00  0.00    +0.000 OA
ATOM     29  O   UNL     1      -2.069  14.088  24.014  0.00  0.00    +0.000 OA
BRANCH  27  30
ATOM     30  N   UNL     1      -4.263  13.354  22.969  0.00  0.00    +0.000 NA
BRANCH  30  32
ATOM     31  C   UNL     1      -5.610  13.774  20.841  0.00  0.00    +0.000 C 
ATOM     32  C   UNL     1      -4.835  12.785  21.692  0.00  0.00    +0.000 C 
ENDBRANCH  30  32
BRANCH  30  33
ATOM     33  C   UNL     1      -4.836  12.773  24.214  0.00  0.00    +0.000 C 
ATOM     34  C   UNL     1      -6.344  12.616  24.206  0.00  0.00    +0.000 C 
ENDBRANCH  30  33
ENDBRANCH  27  30
ENDBRANCH  23  27
ENDBRANCH  22  24
ENDBRANCH  21  22
ENDBRANCH  20  21
ENDBRANCH   1  20
TORSDOF 10
ENDMDL
MODEL 5
REMARK VINA RESULT:      -6.7      3.847      6.524
REMARK  Name = 
REMARK  12 active torsions:
REMARK  status: ('A' for Active; 'I' for Inactive)
REMARK    1  A    between atoms: C_1  and  C_2
REMARK    2  A    between atoms: C_2  and  N_3
REMARK    3  A    between atoms: N_3  and  C_4
REMARK    4  A    between atoms: N_3  and  S_6
REMARK    5  A    between atoms: C_4  and  C_5
REMARK    6  A    between atoms: S_6  and  N_9
REMARK    7  A    between atoms: C_10  and  C_12
REMARK    8  A    between atoms: C_12  and  C_13
REMARK    9  A    between atoms: C_13  and  C_14
REMARK   10  A    between atoms: C_14  and  C_15
REMARK   11  A    between atoms: C_16  and  C_17
REMARK   12  A    between atoms: C_28  and  C_29
REMARK                            x       y       z     vdW  Elec       q    Type
REMARK                         _______ _______ _______ _____ _____    ______ ____
ROOT
ATOM      1  C   UNL     1       4.591   4.678  17.641  0.00  0.00    +0.000 A 
ATOM      2  C   UNL     1       5.031   3.965  16.513  0.00  0.00    +0.000 A 
ATOM      3  N   UNL     1       4.534   2.685  16.640  0.00  0.00    +0.000 N 
ATOM      4  C   UNL     1       3.828   2.523  17.804  0.00  0.00    +0.000 A 
ATOM      5  C   UNL     1       3.188   1.383  18.307  0.00  0.00    +0.000 A 
ATOM      6  C   UNL     1       2.523   1.489  19.532  0.00  0.00    +0.000 A 
ATOM      7  C   UNL     1       2.503   2.696  20.224  0.00  0.00    +0.000 A 
ATOM      8  C   UNL     1       3.155   3.821  19.698  0.00  0.00    +0.000 A 
ATOM      9  C   UNL     1       3.837   3.752  18.459  0.00  0.00    +0.000 A 
ATOM     10  H   UNL     1       4.667   1.951  15.959  0.00  0.00    +0.000 HD
ENDROOT
BRANCH   2  11
ATOM     11  C   UNL     1       5.853   4.339  15.339  0.00  0.00    +0.000 A 
ATOM     12  C   UNL     1       5.538   3.850  14.055  0.00  0.00    +0.000 A 
ATOM     13  C   UNL     1       6.316   4.187  12.941  0.00  0.00    +0.000 A 
ATOM     14  C   UNL     1       7.426   5.003  13.099  0.00  0.00    +0.000 A 
ATOM     15  F   UNL     1       8.181   5.310  12.038  0.00  0.00    +0.000 F 
ATOM     16  C   UNL     1       7.757   5.507  14.346  0.00  0.00    +0.000 A 
ATOM     17  C   UNL     1       6.964   5.188  15.454  0.00  0.00    +0.000 A 
ENDBRANCH   2  11
BRANCH   7  18
ATOM     18  C   UNL     1       1.815   2.805  21.477  0.00  0.00    +0.000 C 
ATOM     19  N   UNL     1       1.269   2.875  22.498  0.00  0.00    +0.000 NA
ENDBRANCH   7  18
BRANCH   1  20
ATOM     20  C   UNL     1       4.884   6.142  17.908  0.00  0.00    +0.000 C 
BRANCH  20  21
ATOM     21  C   UNL     1       3.835   7.164  17.459  0.00  0.00    +0.000 C 
BRANCH  21  22
ATOM     22  C   UNL     1       2.660   7.337  18.422  0.00  0.00    +0.000 C 
BRANCH  22  24
ATOM     23  N   UNL     1       1.189   9.120  19.327  0.00  0.00    +0.000 N 
ATOM     24  C   UNL     1       2.006   8.690  18.260  0.00  0.00    +0.000 C 
ATOM     25  O   UNL     1       2.172   9.326  17.226  0.00  0.00    +0.000 OA
ATOM     26  H   UNL     1       1.426   8.800  20.265  0.00  0.00    +0.000 HD
BRANCH  23  27
ATOM     27  S   UNL     1       0.536  10.645  19.321  0.00  0.00    +0.000 S 
ATOM     28  O   UNL     1      -0.597  10.699  18.428  0.00  0.00    +0.000 OA
ATOM     29  O   UNL     1       1.631  11.581  19.227  0.00  0.00    +0.000 OA
BRANCH  27  30
ATOM     30  N   UNL     1      -0.095  10.785  20.909  0.00  0.00    +0.000 NA
BRANCH  30  32
ATOM     31  C   UNL     1      -1.170  13.075  21.251  0.00  0.00    +0.000 C 
ATOM     32  C   UNL     1      -1.353  11.619  20.862  0.00  0.00    +0.000 C 
ENDBRANCH  30  32
BRANCH  30  33
ATOM     33  C   UNL     1      -0.206   9.548  21.730  0.00  0.00    +0.000 C 
ATOM     34  C   UNL     1      -0.305   9.784  23.224  0.00  0.00    +0.000 C 
ENDBRANCH  30  33
ENDBRANCH  27  30
ENDBRANCH  23  27
ENDBRANCH  22  24
ENDBRANCH  21  22
ENDBRANCH  20  21
ENDBRANCH   1  20
TORSDOF 10
ENDMDL
MODEL 6
REMARK VINA RESULT:      -6.7      3.569      6.501
REMARK  Name = 
REMARK  12 active torsions:
REMARK  status: ('A' for Active; 'I' for Inactive)
REMARK    1  A    between atoms: C_1  and  C_2
REMARK    2  A    between atoms: C_2  and  N_3
REMARK    3  A    between atoms: N_3  and  C_4
REMARK    4  A    between atoms: N_3  and  S_6
REMARK    5  A    between atoms: C_4  and  C_5
REMARK    6  A    between atoms: S_6  and  N_9
REMARK    7  A    between atoms: C_10  and  C_12
REMARK    8  A    between atoms: C_12  and  C_13
REMARK    9  A    between atoms: C_13  and  C_14
REMARK   10  A    between atoms: C_14  and  C_15
REMARK   11  A    between atoms: C_16  and  C_17
REMARK   12  A    between atoms: C_28  and  C_29
REMARK                            x       y       z     vdW  Elec       q    Type
REMARK                         _______ _______ _______ _____ _____    ______ ____
ROOT
ATOM      1  C   UNL     1       0.845   9.283  19.489  0.00  0.00    +0.000 A 
ATOM      2  C   UNL     1       1.647   8.167  19.785  0.00  0.00    +0.000 A 
ATOM      3  N   UNL     1       1.557   7.971  21.147  0.00  0.00    +0.000 N 
ATOM      4  C   UNL     1       0.771   8.919  21.750  0.00  0.00    +0.000 A 
ATOM      5  C   UNL     1       0.448   9.078  23.104  0.00  0.00    +0.000 A 
ATOM      6  C   UNL     1      -0.391  10.139  23.458  0.00  0.00    +0.000 A 
ATOM      7  C   UNL     1      -0.887  11.004  22.488  0.00  0.00    +0.000 A 
ATOM      8  C   UNL     1      -0.544  10.823  21.141  0.00  0.00    +0.000 A 
ATOM      9  C   UNL     1       0.302   9.759  20.744  0.00  0.00    +0.000 A 
ATOM     10  H   UNL     1       2.010   7.219  21.647  0.00  0.00    +0.000 HD
ENDROOT
BRANCH   2  11
ATOM     11  C   UNL     1       2.478   7.270  18.950  0.00  0.00    +0.000 A 
ATOM     12  C   UNL     1       3.322   7.795  17.952  0.00  0.00    +0.000 A 
ATOM     13  C   UNL     1       4.102   6.954  17.148  0.00  0.00    +0.000 A 
ATOM     14  C   UNL     1       4.035   5.580  17.321  0.00  0.00    +0.000 A 
ATOM     15  F   UNL     1       4.766   4.775  16.540  0.00  0.00    +0.000 F 
ATOM     16  C   UNL     1       3.221   5.034  18.299  0.00  0.00    +0.000 A 
ATOM     17  C   UNL     1       2.460   5.877  19.117  0.00  0.00    +0.000 A 
ENDBRANCH   2  11
BRANCH   7  18
ATOM     18  C   UNL     1      -1.753  12.087  22.853  0.00  0.00    +0.000 C 
ATOM     19  N   UNL     1      -2.467  12.958  23.130  0.00  0.00    +0.000 NA
ENDBRANCH   7  18
BRANCH   1  20
ATOM     20  C   UNL     1       0.627   9.847  18.098  0.00  0.00    +0.000 C 
BRANCH  20  21
ATOM     21  C   UNL     1      -0.805   9.848  17.553  0.00  0.00    +0.000 C 
BRANCH  21  22
ATOM     22  C   UNL     1      -1.593  11.127  17.835  0.00  0.00    +0.000 C 
BRANCH  22  24
ATOM     23  N   UNL     1      -3.901  11.956  18.222  0.00  0.00    +0.000 N 
ATOM     24  C   UNL     1      -3.081  10.866  17.856  0.00  0.00    +0.000 C 
ATOM     25  O   UNL     1      -3.506   9.746  17.600  0.00  0.00    +0.000 OA
ATOM     26  H   UNL     1      -3.571  12.893  17.999  0.00  0.00    +0.000 HD
BRANCH  23  27
ATOM     27  S   UNL     1      -5.552  11.826  18.143  0.00  0.00    +0.000 S 
ATOM     28  O   UNL     1      -5.963  10.477  18.452  0.00  0.00    +0.000 OA
ATOM     29  O   UNL     1      -5.979  12.499  16.939  0.00  0.00    +0.000 OA
BRANCH  27  30
ATOM     30  N   UNL     1      -6.065  12.799  19.458  0.00  0.00    +0.000 NA
BRANCH  30  32
ATOM     31  C   UNL     1      -7.543  12.102  21.419  0.00  0.00    +0.000 C 
ATOM     32  C   UNL     1      -7.419  12.318  19.922  0.00  0.00    +0.000 C 
ENDBRANCH  30  32
BRANCH  30  33
ATOM     33  C   UNL     1      -5.094  13.060  20.556  0.00  0.00    +0.000 C 
ATOM     34  C   UNL     1      -4.732  14.520  20.749  0.00  0.00    +0.000 C 
ENDBRANCH  30  33
ENDBRANCH  27  30
ENDBRANCH  23  27
ENDBRANCH  22  24
ENDBRANCH  21  22
ENDBRANCH  20  21
ENDBRANCH   1  20
TORSDOF 10
ENDMDL
MODEL 7
REMARK VINA RESULT:      -6.5      0.869      1.400
REMARK  Name = 
REMARK  12 active torsions:
REMARK  status: ('A' for Active; 'I' for Inactive)
REMARK    1  A    between atoms: C_1  and  C_2
REMARK    2  A    between atoms: C_2  and  N_3
REMARK    3  A    between atoms: N_3  and  C_4
REMARK    4  A    between atoms: N_3  and  S_6
REMARK    5  A    between atoms: C_4  and  C_5
REMARK    6  A    between atoms: S_6  and  N_9
REMARK    7  A    between atoms: C_10  and  C_12
REMARK    8  A    between atoms: C_12  and  C_13
REMARK    9  A    between atoms: C_13  and  C_14
REMARK   10  A    between atoms: C_14  and  C_15
REMARK   11  A    between atoms: C_16  and  C_17
REMARK   12  A    between atoms: C_28  and  C_29
REMARK                            x       y       z     vdW  Elec       q    Type
REMARK                         _______ _______ _______ _____ _____    ______ ____
ROOT
ATOM      1  C   UNL     1       1.769   7.986  19.813  0.00  0.00    +0.000 A 
ATOM      2  C   UNL     1       1.709   8.977  18.819  0.00  0.00    +0.000 A 
ATOM      3  N   UNL     1       2.438   8.505  17.749  0.00  0.00    +0.000 N 
ATOM      4  C   UNL     1       2.996   7.279  18.011  0.00  0.00    +0.000 A 
ATOM      5  C   UNL     1       3.812   6.480  17.199  0.00  0.00    +0.000 A 
ATOM      6  C   UNL     1       4.247   5.254  17.711  0.00  0.00    +0.000 A 
ATOM      7  C   UNL     1       3.874   4.848  18.988  0.00  0.00    +0.000 A 
ATOM      8  C   UNL     1       3.058   5.669  19.779  0.00  0.00    +0.000 A 
ATOM      9  C   UNL     1       2.597   6.917  19.295  0.00  0.00    +0.000 A 
ATOM     10  H   UNL     1       2.550   8.995  16.873  0.00  0.00    +0.000 HD
ENDROOT
BRANCH   2  11
ATOM     11  C   UNL     1       1.051  10.303  18.754  0.00  0.00    +0.000 A 
ATOM     12  C   UNL     1      -0.338  10.406  18.538  0.00  0.00    +0.000 A 
ATOM     13  C   UNL     1      -0.968  11.655  18.462  0.00  0.00    +0.000 A 
ATOM     14  C   UNL     1      -0.215  12.813  18.584  0.00  0.00    +0.000 A 
ATOM     15  F   UNL     1      -0.813  14.007  18.492  0.00  0.00    +0.000 F 
ATOM     16  C   UNL     1       1.150  12.744  18.805  0.00  0.00    +0.000 A 
ATOM     17  C   UNL     1       1.774  11.495  18.904  0.00  0.00    +0.000 A 
ENDBRANCH   2  11
BRANCH   7  18
ATOM     18  C   UNL     1       4.315   3.586  19.508  0.00  0.00    +0.000 C 
ATOM     19  N   UNL     1       4.688   2.565  19.913  0.00  0.00    +0.000 NA
ENDBRANCH   7  18
BRANCH   1  20
ATOM     20  C   UNL     1       1.084   8.071  21.163  0.00  0.00    +0.000 C 
BRANCH  20  21
ATOM     21  C   UNL     1      -0.047   9.093  21.317  0.00  0.00    +0.000 C 
BRANCH  21  22
ATOM     22  C   UNL     1       0.034   9.949  22.581  0.00  0.00    +0.000 C 
BRANCH  22  24
ATOM     23  N   UNL     1      -1.958  11.426  22.507  0.00  0.00    +0.000 N 
ATOM     24  C   UNL     1      -0.559  11.320  22.360  0.00  0.00    +0.000 C 
ATOM     25  O   UNL     1       0.167  12.252  22.034  0.00  0.00    +0.000 OA
ATOM     26  H   UNL     1      -2.416  10.795  23.163  0.00  0.00    +0.000 HD
BRANCH  23  27
ATOM     27  S   UNL     1      -2.700  12.907  22.426  0.00  0.00    +0.000 S 
ATOM     28  O   UNL     1      -2.525  13.483  21.114  0.00  0.00    +0.000 OA
ATOM     29  O   UNL     1      -2.356  13.626  23.630  0.00  0.00    +0.000 OA
BRANCH  27  30
ATOM     30  N   UNL     1      -4.360  12.499  22.555  0.00  0.00    +0.000 NA
BRANCH  30  32
ATOM     31  C   UNL     1      -6.276  12.878  24.200  0.00  0.00    +0.000 C 
ATOM     32  C   UNL     1      -4.789  12.649  23.995  0.00  0.00    +0.000 C 
ENDBRANCH  30  32
BRANCH  30  33
ATOM     33  C   UNL     1      -5.305  13.087  21.565  0.00  0.00    +0.000 C 
ATOM     34  C   UNL     1      -5.624  12.193  20.384  0.00  0.00    +0.000 C 
ENDBRANCH  30  33
ENDBRANCH  27  30
ENDBRANCH  23  27
ENDBRANCH  22  24
ENDBRANCH  21  22
ENDBRANCH  20  21
ENDBRANCH   1  20
TORSDOF 10
ENDMDL
MODEL 8
REMARK VINA RESULT:      -6.5      3.200      4.243
REMARK  Name = 
REMARK  12 active torsions:
REMARK  status: ('A' for Active; 'I' for Inactive)
REMARK    1  A    between atoms: C_1  and  C_2
REMARK    2  A    between atoms: C_2  and  N_3
REMARK    3  A    between atoms: N_3  and  C_4
REMARK    4  A    between atoms: N_3  and  S_6
REMARK    5  A    between atoms: C_4  and  C_5
REMARK    6  A    between atoms: S_6  and  N_9
REMARK    7  A    between atoms: C_10  and  C_12
REMARK    8  A    between atoms: C_12  and  C_13
REMARK    9  A    between atoms: C_13  and  C_14
REMARK   10  A    between atoms: C_14  and  C_15
REMARK   11  A    between atoms: C_16  and  C_17
REMARK   12  A    between atoms: C_28  and  C_29
REMARK                            x       y       z     vdW  Elec       q    Type
REMARK                         _______ _______ _______ _____ _____    ______ ____
ROOT
ATOM      1  C   UNL     1       2.528   7.729  18.699  0.00  0.00    +0.000 A 
ATOM      2  C   UNL     1       2.158   7.440  20.023  0.00  0.00    +0.000 A 
ATOM      3  N   UNL     1       2.788   6.261  20.358  0.00  0.00    +0.000 N 
ATOM      4  C   UNL     1       3.515   5.754  19.312  0.00  0.00    +0.000 A 
ATOM      5  C   UNL     1       4.276   4.579  19.242  0.00  0.00    +0.000 A 
ATOM      6  C   UNL     1       4.933   4.294  18.042  0.00  0.00    +0.000 A 
ATOM      7  C   UNL     1       4.831   5.157  16.956  0.00  0.00    +0.000 A 
ATOM      8  C   UNL     1       4.060   6.324  17.053  0.00  0.00    +0.000 A 
ATOM      9  C   UNL     1       3.380   6.647  18.253  0.00  0.00    +0.000 A 
ATOM     10  H   UNL     1       2.728   5.819  21.265  0.00  0.00    +0.000 HD
ENDROOT
BRANCH   2  11
ATOM     11  C   UNL     1       1.293   8.135  21.005  0.00  0.00    +0.000 A 
ATOM     12  C   UNL     1      -0.101   7.926  21.010  0.00  0.00    +0.000 A 
ATOM     13  C   UNL     1      -0.929   8.587  21.925  0.00  0.00    +0.000 A 
ATOM     14  C   UNL     1      -0.377   9.477  22.833  0.00  0.00    +0.000 A 
ATOM     15  F   UNL     1      -1.170  10.124  23.696  0.00  0.00    +0.000 F 
ATOM     16  C   UNL     1       0.990   9.698  22.859  0.00  0.00    +0.000 A 
ATOM     17  C   UNL     1       1.819   9.017  21.960  0.00  0.00    +0.000 A 
ENDBRANCH   2  11
BRANCH   7  18
ATOM     18  C   UNL     1       5.512   4.866  15.728  0.00  0.00    +0.000 C 
ATOM     19  N   UNL     1       6.063   4.609  14.740  0.00  0.00    +0.000 NA
ENDBRANCH   7  18
BRANCH   1  20
ATOM     20  C   UNL     1       2.084   8.954  17.923  0.00  0.00    +0.000 C 
BRANCH  20  21
ATOM     21  C   UNL     1       0.607   9.038  17.522  0.00  0.00    +0.000 C 
BRANCH  21  22
ATOM     22  C   UNL     1      -0.164  10.192  18.165  0.00  0.00    +0.000 C 
BRANCH  22  24
ATOM     23  N   UNL     1      -2.502  10.949  18.509  0.00  0.00    +0.000 N 
ATOM     24  C   UNL     1      -1.601  10.224  17.700  0.00  0.00    +0.000 C 
ATOM     25  O   UNL     1      -1.928   9.608  16.693  0.00  0.00    +0.000 OA
ATOM     26  H   UNL     1      -2.137  11.746  19.028  0.00  0.00    +0.000 HD
BRANCH  23  27
ATOM     27  S   UNL     1      -4.072  11.170  18.023  0.00  0.00    +0.000 S 
ATOM     28  O   UNL     1      -4.828   9.954  18.207  0.00  0.00    +0.000 OA
ATOM     29  O   UNL     1      -4.037  11.865  16.758  0.00  0.00    +0.000 OA
BRANCH  27  30
ATOM     30  N   UNL     1      -4.666  12.286  19.181  0.00  0.00    +0.000 NA
BRANCH  30  32
ATOM     31  C   UNL     1      -7.198  12.603  19.276  0.00  0.00    +0.000 C 
ATOM     32  C   UNL     1      -5.992  11.787  19.705  0.00  0.00    +0.000 C 
ENDBRANCH  30  32
BRANCH  30  33
ATOM     33  C   UNL     1      -3.729  12.768  20.233  0.00  0.00    +0.000 C 
ATOM     34  C   UNL     1      -4.302  12.779  21.636  0.00  0.00    +0.000 C 
ENDBRANCH  30  33
ENDBRANCH  27  30
ENDBRANCH  23  27
ENDBRANCH  22  24
ENDBRANCH  21  22
ENDBRANCH  20  21
ENDBRANCH   1  20
TORSDOF 10
ENDMDL
MODEL 9
REMARK VINA RESULT:      -6.5      3.809      6.614
REMARK  Name = 
REMARK  12 active torsions:
REMARK  status: ('A' for Active; 'I' for Inactive)
REMARK    1  A    between atoms: C_1  and  C_2
REMARK    2  A    between atoms: C_2  and  N_3
REMARK    3  A    between atoms: N_3  and  C_4
REMARK    4  A    between atoms: N_3  and  S_6
REMARK    5  A    between atoms: C_4  and  C_5
REMARK    6  A    between atoms: S_6  and  N_9
REMARK    7  A    between atoms: C_10  and  C_12
REMARK    8  A    between atoms: C_12  and  C_13
REMARK    9  A    between atoms: C_13  and  C_14
REMARK   10  A    between atoms: C_14  and  C_15
REMARK   11  A    between atoms: C_16  and  C_17
REMARK   12  A    between atoms: C_28  and  C_29
REMARK                            x       y       z     vdW  Elec       q    Type
REMARK                         _______ _______ _______ _____ _____    ______ ____
ROOT
ATOM      1  C   UNL     1       4.560   4.647  17.735  0.00  0.00    +0.000 A 
ATOM      2  C   UNL     1       5.041   3.942  16.618  0.00  0.00    +0.000 A 
ATOM      3  N   UNL     1       4.565   2.653  16.733  0.00  0.00    +0.000 N 
ATOM      4  C   UNL     1       3.834   2.478  17.880  0.00  0.00    +0.000 A 
ATOM      5  C   UNL     1       3.204   1.325  18.367  0.00  0.00    +0.000 A 
ATOM      6  C   UNL     1       2.508   1.419  19.576  0.00  0.00    +0.000 A 
ATOM      7  C   UNL     1       2.448   2.625  20.267  0.00  0.00    +0.000 A 
ATOM      8  C   UNL     1       3.092   3.762  19.758  0.00  0.00    +0.000 A 
ATOM      9  C   UNL     1       3.805   3.706  18.535  0.00  0.00    +0.000 A 
ATOM     10  H   UNL     1       4.729   1.921  16.056  0.00  0.00    +0.000 HD
ENDROOT
BRANCH   2  11
ATOM     11  C   UNL     1       5.884   4.332  15.464  0.00  0.00    +0.000 A 
ATOM     12  C   UNL     1       5.601   3.849  14.171  0.00  0.00    +0.000 A 
ATOM     13  C   UNL     1       6.399   4.201  13.076  0.00  0.00    +0.000 A 
ATOM     14  C   UNL     1       7.497   5.026  13.263  0.00  0.00    +0.000 A 
ATOM     15  F   UNL     1       8.272   5.348  12.220  0.00  0.00    +0.000 F 
ATOM     16  C   UNL     1       7.797   5.524  14.520  0.00  0.00    +0.000 A 
ATOM     17  C   UNL     1       6.984   5.190  15.609  0.00  0.00    +0.000 A 
ENDBRANCH   2  11
BRANCH   7  18
ATOM     18  C   UNL     1       1.728   2.720  21.503  0.00  0.00    +0.000 C 
ATOM     19  N   UNL     1       1.136   2.778  22.499  0.00  0.00    +0.000 NA
ENDBRANCH   7  18
BRANCH   1  20
ATOM     20  C   UNL     1       4.819   6.115  18.009  0.00  0.00    +0.000 C 
BRANCH  20  21
ATOM     21  C   UNL     1       3.816   7.126  17.441  0.00  0.00    +0.000 C 
BRANCH  21  22
ATOM     22  C   UNL     1       2.482   7.188  18.186  0.00  0.00    +0.000 C 
BRANCH  22  24
ATOM     23  N   UNL     1       1.390   8.945  19.557  0.00  0.00    +0.000 N 
ATOM     24  C   UNL     1       1.992   8.610  18.325  0.00  0.00    +0.000 C 
ATOM     25  O   UNL     1       2.097   9.385  17.382  0.00  0.00    +0.000 OA
ATOM     26  H   UNL     1       1.709   8.453  20.390  0.00  0.00    +0.000 HD
BRANCH  23  27
ATOM     27  S   UNL     1       0.943  10.511  19.873  0.00  0.00    +0.000 S 
ATOM     28  O   UNL     1       1.562  11.408  18.927  0.00  0.00    +0.000 OA
ATOM     29  O   UNL     1       1.053  10.709  21.299  0.00  0.00    +0.000 OA
BRANCH  27  30
ATOM     30  N   UNL     1      -0.731  10.501  19.505  0.00  0.00    +0.000 NA
BRANCH  30  32
ATOM     31  C   UNL     1      -1.402  12.963  19.610  0.00  0.00    +0.000 C 
ATOM     32  C   UNL     1      -1.408  11.603  20.285  0.00  0.00    +0.000 C 
ENDBRANCH  30  32
BRANCH  30  33
ATOM     33  C   UNL     1      -1.133  10.422  18.074  0.00  0.00    +0.000 C 
ATOM     34  C   UNL     1      -2.566   9.988  17.840  0.00  0.00    +0.000 C 
ENDBRANCH  30  33
ENDBRANCH  27  30
ENDBRANCH  23  27
ENDBRANCH  22  24
ENDBRANCH  21  22
ENDBRANCH  20  21
ENDBRANCH   1  20
TORSDOF 10
ENDMDL
