MODEL 1
REMARK VINA RESULT:      -8.3      0.000      0.000
REMARK  Name = 
REMARK  4 active torsions:
REMARK  status: ('A' for Active; 'I' for Inactive)
REMARK    1  A    between atoms: C_5  and  N_6
REMARK    2  A    between atoms: C_9  and  C_10
REMARK    3  A    between atoms: C_10  and  C_11
REMARK    4  A    between atoms: C_10  and  N_17
REMARK                            x       y       z     vdW  Elec       q    Type
REMARK                         _______ _______ _______ _____ _____    ______ ____
ROOT
ATOM      1  N   UNL     1       1.966   8.123  19.264  0.00  0.00    +0.000 N 
ATOM      2  C   UNL     1       2.546   8.610  18.109  0.00  0.00    +0.000 A 
ATOM      3  C   UNL     1       3.164   7.577  17.435  0.00  0.00    +0.000 A 
ATOM      4  C   UNL     1       2.966   6.390  18.187  0.00  0.00    +0.000 A 
ATOM      5  C   UNL     1       2.276   6.782  19.325  0.00  0.00    +0.000 A 
ENDROOT
BRANCH   1  10
ATOM      6 CL   UNL     1      -1.313  11.177  23.187  0.00  0.00    +0.000 Cl
ATOM      7  C   UNL     1      -0.367  10.293  22.055  0.00  0.00    +0.000 A 
ATOM      8  C   UNL     1       0.471   9.272  22.495  0.00  0.00    +0.000 A 
ATOM      9  C   UNL     1       1.239   8.548  21.576  0.00  0.00    +0.000 A 
ATOM     10  C   UNL     1       1.172   8.845  20.208  0.00  0.00    +0.000 A 
ATOM     11  C   UNL     1       0.323   9.882  19.780  0.00  0.00    +0.000 A 
ATOM     12  C   UNL     1      -0.444  10.601  20.701  0.00  0.00    +0.000 A 
ENDBRANCH   1  10
BRANCH   4  13
ATOM     13  C   UNL     1       3.394   4.991  17.804  0.00  0.00    +0.000 C 
BRANCH  13  14
ATOM     14  C   UNL     1       4.908   4.970  17.987  0.00  0.00    +0.000 A 
ATOM     15  C   UNL     1       5.537   5.452  19.152  0.00  0.00    +0.000 A 
ATOM     16  C   UNL     1       6.928   5.506  19.246  0.00  0.00    +0.000 A 
ATOM     17  C   UNL     1       7.718   5.078  18.182  0.00  0.00    +0.000 A 
ATOM     18  C   UNL     1       7.118   4.580  17.027  0.00  0.00    +0.000 A 
ATOM     19  C   UNL     1       5.726   4.525  16.930  0.00  0.00    +0.000 A 
ENDBRANCH  13  14
BRANCH  13  20
ATOM     20  N   UNL     1       2.682   3.938  18.547  0.00  0.00    +0.000 N 
ATOM     21  C   UNL     1       1.413   3.487  18.266  0.00  0.00    +0.000 A 
ATOM     22  C   UNL     1       1.135   2.554  19.236  0.00  0.00    +0.000 A 
ATOM     23  N   UNL     1       2.183   2.431  20.107  0.00  0.00    +0.000 NA
ATOM     24  C   UNL     1       3.090   3.282  19.679  0.00  0.00    +0.000 A 
ENDBRANCH  13  20
ENDBRANCH   4  13
TORSDOF 4
ENDMDL
MODEL 2
REMARK VINA RESULT:      -8.3      0.400      1.239
REMARK  Name = 
REMARK  4 active torsions:
REMARK  status: ('A' for Active; 'I' for Inactive)
REMARK    1  A    between atoms: C_5  and  N_6
REMARK    2  A    between atoms: C_9  and  C_10
REMARK    3  A    between atoms: C_10  and  C_11
REMARK    4  A    between atoms: C_10  and  N_17
REMARK                            x       y       z     vdW  Elec       q    Type
REMARK                         _______ _______ _______ _____ _____    ______ ____
ROOT
ATOM      1  N   UNL     1       1.936   8.164  19.276  0.00  0.00    +0.000 N 
ATOM      2  C   UNL     1       2.514   8.640  18.115  0.00  0.00    +0.000 A 
ATOM      3  C   UNL     1       3.119   7.598  17.443  0.00  0.00    +0.000 A 
ATOM      4  C   UNL     1       2.915   6.417  18.202  0.00  0.00    +0.000 A 
ATOM      5  C   UNL     1       2.235   6.820  19.342  0.00  0.00    +0.000 A 
ENDROOT
BRANCH   1  10
ATOM      6 CL   UNL     1      -1.353  11.174  23.224  0.00  0.00    +0.000 Cl
ATOM      7  C   UNL     1      -0.402  10.307  22.083  0.00  0.00    +0.000 A 
ATOM      8  C   UNL     1      -0.481  10.621  20.729  0.00  0.00    +0.000 A 
ATOM      9  C   UNL     1       0.294   9.921  19.798  0.00  0.00    +0.000 A 
ATOM     10  C   UNL     1       1.154   8.897  20.221  0.00  0.00    +0.000 A 
ATOM     11  C   UNL     1       1.219   8.588  21.592  0.00  0.00    +0.000 A 
ATOM     12  C   UNL     1       0.445   9.293  22.518  0.00  0.00    +0.000 A 
ENDBRANCH   1  10
BRANCH   4  13
ATOM     13  C   UNL     1       3.327   5.012  17.822  0.00  0.00    +0.000 C 
BRANCH  13  14
ATOM     14  C   UNL     1       4.843   4.981  17.989  0.00  0.00    +0.000 A 
ATOM     15  C   UNL     1       5.487   5.446  19.152  0.00  0.00    +0.000 A 
ATOM     16  C   UNL     1       6.880   5.491  19.231  0.00  0.00    +0.000 A 
ATOM     17  C   UNL     1       7.655   5.071  18.154  0.00  0.00    +0.000 A 
ATOM     18  C   UNL     1       7.040   4.589  17.000  0.00  0.00    +0.000 A 
ATOM     19  C   UNL     1       5.647   4.543  16.918  0.00  0.00    +0.000 A 
ENDBRANCH  13  14
BRANCH  13  20
ATOM     20  N   UNL     1       2.616   3.970  18.580  0.00  0.00    +0.000 N 
ATOM     21  C   UNL     1       3.095   3.339  19.706  0.00  0.00    +0.000 A 
ATOM     22  C   UNL     1       2.136   2.414  20.041  0.00  0.00    +0.000 A 
ATOM     23  N   UNL     1       1.097   2.447  19.152  0.00  0.00    +0.000 NA
ATOM     24  C   UNL     1       1.417   3.378  18.280  0.00  0.00    +0.000 A 
ENDBRANCH  13  20
ENDBRANCH   4  13
TORSDOF 4
ENDMDL
MODEL 3
REMARK VINA RESULT:      -8.1      0.185      1.406
REMARK  Name = 
REMARK  4 active torsions:
REMARK  status: ('A' for Active; 'I' for Inactive)
REMARK    1  A    between atoms: C_5  and  N_6
REMARK    2  A    between atoms: C_9  and  C_10
REMARK    3  A    between atoms: C_10  and  C_11
REMARK    4  A    between atoms: C_10  and  N_17
REMARK                            x       y       z     vdW  Elec       q    Type
REMARK                         _______ _______ _______ _____ _____    ______ ____
ROOT
ATOM      1  N   UNL     1       1.927   8.176  19.291  0.00  0.00    +0.000 N 
ATOM      2  C   UNL     1       2.492   8.647  18.122  0.00  0.00    +0.000 A 
ATOM      3  C   UNL     1       3.105   7.606  17.456  0.00  0.00    +0.000 A 
ATOM      4  C   UNL     1       2.920   6.430  18.229  0.00  0.00    +0.000 A 
ATOM      5  C   UNL     1       2.243   6.836  19.369  0.00  0.00    +0.000 A 
ENDROOT
BRANCH   1  10
ATOM      6 CL   UNL     1      -1.373  11.186  23.229  0.00  0.00    +0.000 Cl
ATOM      7  C   UNL     1      -0.419  10.319  22.091  0.00  0.00    +0.000 A 
ATOM      8  C   UNL     1      -0.516  10.614  20.734  0.00  0.00    +0.000 A 
ATOM      9  C   UNL     1       0.262   9.914  19.805  0.00  0.00    +0.000 A 
ATOM     10  C   UNL     1       1.142   8.910  20.233  0.00  0.00    +0.000 A 
ATOM     11  C   UNL     1       1.225   8.620  21.607  0.00  0.00    +0.000 A 
ATOM     12  C   UNL     1       0.448   9.325  22.531  0.00  0.00    +0.000 A 
ENDBRANCH   1  10
BRANCH   4  13
ATOM     13  C   UNL     1       3.348   5.027  17.861  0.00  0.00    +0.000 C 
BRANCH  13  14
ATOM     14  C   UNL     1       4.873   5.054  17.881  0.00  0.00    +0.000 A 
ATOM     15  C   UNL     1       5.653   4.561  16.817  0.00  0.00    +0.000 A 
ATOM     16  C   UNL     1       7.045   4.515  16.909  0.00  0.00    +0.000 A 
ATOM     17  C   UNL     1       7.684   4.961  18.063  0.00  0.00    +0.000 A 
ATOM     18  C   UNL     1       6.934   5.469  19.121  0.00  0.00    +0.000 A 
ATOM     19  C   UNL     1       5.541   5.517  19.031  0.00  0.00    +0.000 A 
ENDBRANCH  13  14
BRANCH  13  20
ATOM     20  N   UNL     1       2.753   3.991  18.721  0.00  0.00    +0.000 N 
ATOM     21  C   UNL     1       1.545   3.369  18.497  0.00  0.00    +0.000 A 
ATOM     22  C   UNL     1       1.366   2.526  19.567  0.00  0.00    +0.000 A 
ATOM     23  N   UNL     1       2.412   2.622  20.443  0.00  0.00    +0.000 NA
ATOM     24  C   UNL     1       3.221   3.517  19.919  0.00  0.00    +0.000 A 
ENDBRANCH  13  20
ENDBRANCH   4  13
TORSDOF 4
ENDMDL
MODEL 4
REMARK VINA RESULT:      -8.1      0.389      1.249
REMARK  Name = 
REMARK  4 active torsions:
REMARK  status: ('A' for Active; 'I' for Inactive)
REMARK    1  A    between atoms: C_5  and  N_6
REMARK    2  A    between atoms: C_9  and  C_10
REMARK    3  A    between atoms: C_10  and  C_11
REMARK    4  A    between atoms: C_10  and  N_17
REMARK                            x       y       z     vdW  Elec       q    Type
REMARK                         _______ _______ _______ _____ _____    ______ ____
ROOT
ATOM      1  N   UNL     1       1.902   8.241  19.246  0.00  0.00    +0.000 N 
ATOM      2  C   UNL     1       2.456   8.711  18.072  0.00  0.00    +0.000 A 
ATOM      3  C   UNL     1       3.068   7.671  17.404  0.00  0.00    +0.000 A 
ATOM      4  C   UNL     1       2.893   6.495  18.180  0.00  0.00    +0.000 A 
ATOM      5  C   UNL     1       2.223   6.902  19.324  0.00  0.00    +0.000 A 
ENDROOT
BRANCH   1  10
ATOM      6 CL   UNL     1      -1.313  11.336  23.190  0.00  0.00    +0.000 Cl
ATOM      7  C   UNL     1      -0.386  10.440  22.051  0.00  0.00    +0.000 A 
ATOM      8  C   UNL     1       0.260   9.272  22.446  0.00  0.00    +0.000 A 
ATOM      9  C   UNL     1       1.012   8.538  21.521  0.00  0.00    +0.000 A 
ATOM     10  C   UNL     1       1.121   8.973  20.193  0.00  0.00    +0.000 A 
ATOM     11  C   UNL     1       0.467  10.158  19.812  0.00  0.00    +0.000 A 
ATOM     12  C   UNL     1      -0.285  10.886  20.738  0.00  0.00    +0.000 A 
ENDBRANCH   1  10
BRANCH   4  13
ATOM     13  C   UNL     1       3.323   5.093  17.813  0.00  0.00    +0.000 C 
BRANCH  13  14
ATOM     14  C   UNL     1       4.847   5.112  17.874  0.00  0.00    +0.000 A 
ATOM     15  C   UNL     1       5.653   4.620  16.828  0.00  0.00    +0.000 A 
ATOM     16  C   UNL     1       7.041   4.565  16.959  0.00  0.00    +0.000 A 
ATOM     17  C   UNL     1       7.651   5.001  18.132  0.00  0.00    +0.000 A 
ATOM     18  C   UNL     1       6.875   5.509  19.171  0.00  0.00    +0.000 A 
ATOM     19  C   UNL     1       5.486   5.565  19.044  0.00  0.00    +0.000 A 
ENDBRANCH  13  14
BRANCH  13  20
ATOM     20  N   UNL     1       2.699   4.053  18.647  0.00  0.00    +0.000 N 
ATOM     21  C   UNL     1       3.292   3.439  19.726  0.00  0.00    +0.000 A 
ATOM     22  C   UNL     1       2.379   2.510  20.163  0.00  0.00    +0.000 A 
ATOM     23  N   UNL     1       1.257   2.525  19.381  0.00  0.00    +0.000 NA
ATOM     24  C   UNL     1       1.481   3.449  18.472  0.00  0.00    +0.000 A 
ENDBRANCH  13  20
ENDBRANCH   4  13
TORSDOF 4
ENDMDL
MODEL 5
REMARK VINA RESULT:      -8.0      1.667      3.568
REMARK  Name = 
REMARK  4 active torsions:
REMARK  status: ('A' for Active; 'I' for Inactive)
REMARK    1  A    between atoms: C_5  and  N_6
REMARK    2  A    between atoms: C_9  and  C_10
REMARK    3  A    between atoms: C_10  and  C_11
REMARK    4  A    between atoms: C_10  and  N_17
REMARK                            x       y       z     vdW  Elec       q    Type
REMARK                         _______ _______ _______ _____ _____    ______ ____
ROOT
ATOM      1  N   UNL     1       1.805   8.417  19.404  0.00  0.00    +0.000 N 
ATOM      2  C   UNL     1       1.976   8.676  18.058  0.00  0.00    +0.000 A 
ATOM      3  C   UNL     1       2.814   7.727  17.510  0.00  0.00    +0.000 A 
ATOM      4  C   UNL     1       3.187   6.830  18.545  0.00  0.00    +0.000 A 
ATOM      5  C   UNL     1       2.591   7.323  19.696  0.00  0.00    +0.000 A 
ENDROOT
BRANCH   1  10
ATOM      6 CL   UNL     1      -1.675  11.372  23.227  0.00  0.00    +0.000 Cl
ATOM      7  C   UNL     1      -0.671  10.516  22.124  0.00  0.00    +0.000 A 
ATOM      8  C   UNL     1       0.136   9.477  22.579  0.00  0.00    +0.000 A 
ATOM      9  C   UNL     1       0.950   8.775  21.683  0.00  0.00    +0.000 A 
ATOM     10  C   UNL     1       0.963   9.115  20.323  0.00  0.00    +0.000 A 
ATOM     11  C   UNL     1       0.146  10.171  19.880  0.00  0.00    +0.000 A 
ATOM     12  C   UNL     1      -0.668  10.867  20.778  0.00  0.00    +0.000 A 
ENDBRANCH   1  10
BRANCH   4  13
ATOM     13  C   UNL     1       4.031   5.583  18.404  0.00  0.00    +0.000 C 
BRANCH  13  14
ATOM     14  C   UNL     1       3.071   4.421  18.636  0.00  0.00    +0.000 A 
ATOM     15  C   UNL     1       1.819   4.333  17.997  0.00  0.00    +0.000 A 
ATOM     16  C   UNL     1       0.926   3.306  18.305  0.00  0.00    +0.000 A 
ATOM     17  C   UNL     1       1.267   2.346  19.255  0.00  0.00    +0.000 A 
ATOM     18  C   UNL     1       2.507   2.402  19.887  0.00  0.00    +0.000 A 
ATOM     19  C   UNL     1       3.402   3.429  19.580  0.00  0.00    +0.000 A 
ENDBRANCH  13  14
BRANCH  13  20
ATOM     20  N   UNL     1       4.763   5.515  17.128  0.00  0.00    +0.000 N 
ATOM     21  C   UNL     1       4.717   4.463  16.241  0.00  0.00    +0.000 A 
ATOM     22  C   UNL     1       5.586   4.801  15.232  0.00  0.00    +0.000 A 
ATOM     23  N   UNL     1       6.171   6.013  15.478  0.00  0.00    +0.000 NA
ATOM     24  C   UNL     1       5.671   6.412  16.628  0.00  0.00    +0.000 A 
ENDBRANCH  13  20
ENDBRANCH   4  13
TORSDOF 4
ENDMDL
MODEL 6
REMARK VINA RESULT:      -8.0      0.986      1.522
REMARK  Name = 
REMARK  4 active torsions:
REMARK  status: ('A' for Active; 'I' for Inactive)
REMARK    1  A    between atoms: C_5  and  N_6
REMARK    2  A    between atoms: C_9  and  C_10
REMARK    3  A    between atoms: C_10  and  C_11
REMARK    4  A    between atoms: C_10  and  N_17
REMARK                            x       y       z     vdW  Elec       q    Type
REMARK                         _______ _______ _______ _____ _____    ______ ____
ROOT
ATOM      1  N   UNL     1       1.832   8.055  19.639  0.00  0.00    +0.000 N 
ATOM      2  C   UNL     1       2.317   8.292  18.368  0.00  0.00    +0.000 A 
ATOM      3  C   UNL     1       2.932   7.153  17.891  0.00  0.00    +0.000 A 
ATOM      4  C   UNL     1       2.832   6.155  18.894  0.00  0.00    +0.000 A 
ATOM      5  C   UNL     1       2.200   6.767  19.967  0.00  0.00    +0.000 A 
ENDROOT
BRANCH   1  10
ATOM      6 CL   UNL     1      -1.376  11.719  23.067  0.00  0.00    +0.000 Cl
ATOM      7  C   UNL     1      -0.448  10.663  22.076  0.00  0.00    +0.000 A 
ATOM      8  C   UNL     1      -0.421  10.848  20.697  0.00  0.00    +0.000 A 
ATOM      9  C   UNL     1       0.336   9.993  19.887  0.00  0.00    +0.000 A 
ATOM     10  C   UNL     1       1.070   8.944  20.459  0.00  0.00    +0.000 A 
ATOM     11  C   UNL     1       1.028   8.767  21.853  0.00  0.00    +0.000 A 
ATOM     12  C   UNL     1       0.272   9.625  22.657  0.00  0.00    +0.000 A 
ENDBRANCH   1  10
BRANCH   4  13
ATOM     13  C   UNL     1       3.292   4.718  18.793  0.00  0.00    +0.000 C 
BRANCH  13  14
ATOM     14  C   UNL     1       4.772   4.795  18.432  0.00  0.00    +0.000 A 
ATOM     15  C   UNL     1       5.731   5.368  19.289  0.00  0.00    +0.000 A 
ATOM     16  C   UNL     1       7.060   5.508  18.886  0.00  0.00    +0.000 A 
ATOM     17  C   UNL     1       7.457   5.076  17.623  0.00  0.00    +0.000 A 
ATOM     18  C   UNL     1       6.529   4.489  16.766  0.00  0.00    +0.000 A 
ATOM     19  C   UNL     1       5.198   4.348  17.166  0.00  0.00    +0.000 A 
ENDBRANCH  13  14
BRANCH  13  20
ATOM     20  N   UNL     1       3.006   3.927  20.001  0.00  0.00    +0.000 N 
ATOM     21  C   UNL     1       3.474   2.656  20.249  0.00  0.00    +0.000 A 
ATOM     22  C   UNL     1       2.920   2.291  21.452  0.00  0.00    +0.000 A 
ATOM     23  N   UNL     1       2.118   3.287  21.939  0.00  0.00    +0.000 NA
ATOM     24  C   UNL     1       2.177   4.249  21.044  0.00  0.00    +0.000 A 
ENDBRANCH  13  20
ENDBRANCH   4  13
TORSDOF 4
ENDMDL
MODEL 7
REMARK VINA RESULT:      -7.9      1.784      3.765
REMARK  Name = 
REMARK  4 active torsions:
REMARK  status: ('A' for Active; 'I' for Inactive)
REMARK    1  A    between atoms: C_5  and  N_6
REMARK    2  A    between atoms: C_9  and  C_10
REMARK    3  A    between atoms: C_10  and  C_11
REMARK    4  A    between atoms: C_10  and  N_17
REMARK                            x       y       z     vdW  Elec       q    Type
REMARK                         _______ _______ _______ _____ _____    ______ ____
ROOT
ATOM      1  N   UNL     1       1.540   8.627  19.519  0.00  0.00    +0.000 N 
ATOM      2  C   UNL     1       1.702   8.851  18.166  0.00  0.00    +0.000 A 
ATOM      3  C   UNL     1       2.529   7.882  17.636  0.00  0.00    +0.000 A 
ATOM      4  C   UNL     1       2.903   7.009  18.690  0.00  0.00    +0.000 A 
ATOM      5  C   UNL     1       2.320   7.535  19.834  0.00  0.00    +0.000 A 
ENDROOT
BRANCH   1  10
ATOM      6 CL   UNL     1      -1.959  11.618  23.298  0.00  0.00    +0.000 Cl
ATOM      7  C   UNL     1      -0.947  10.756  22.207  0.00  0.00    +0.000 A 
ATOM      8  C   UNL     1      -0.686  11.276  20.942  0.00  0.00    +0.000 A 
ATOM      9  C   UNL     1       0.141  10.580  20.052  0.00  0.00    +0.000 A 
ATOM     10  C   UNL     1       0.710   9.354  20.427  0.00  0.00    +0.000 A 
ATOM     11  C   UNL     1       0.432   8.840  21.707  0.00  0.00    +0.000 A 
ATOM     12  C   UNL     1      -0.392   9.541  22.592  0.00  0.00    +0.000 A 
ENDBRANCH   1  10
BRANCH   4  13
ATOM     13  C   UNL     1       3.736   5.752  18.574  0.00  0.00    +0.000 C 
BRANCH  13  14
ATOM     14  C   UNL     1       2.783   4.607  18.902  0.00  0.00    +0.000 A 
ATOM     15  C   UNL     1       1.692   4.271  18.079  0.00  0.00    +0.000 A 
ATOM     16  C   UNL     1       0.785   3.280  18.459  0.00  0.00    +0.000 A 
ATOM     17  C   UNL     1       0.952   2.605  19.665  0.00  0.00    +0.000 A 
ATOM     18  C   UNL     1       2.035   2.909  20.487  0.00  0.00    +0.000 A 
ATOM     19  C   UNL     1       2.944   3.900  20.110  0.00  0.00    +0.000 A 
ENDBRANCH  13  14
BRANCH  13  20
ATOM     20  N   UNL     1       4.414   5.619  17.274  0.00  0.00    +0.000 N 
ATOM     21  C   UNL     1       4.662   4.430  16.626  0.00  0.00    +0.000 A 
ATOM     22  C   UNL     1       5.354   4.773  15.489  0.00  0.00    +0.000 A 
ATOM     23  N   UNL     1       5.549   6.126  15.428  0.00  0.00    +0.000 NA
ATOM     24  C   UNL     1       4.988   6.606  16.517  0.00  0.00    +0.000 A 
ENDBRANCH  13  20
ENDBRANCH   4  13
TORSDOF 4
ENDMDL
MODEL 8
REMARK VINA RESULT:      -7.9      1.680      3.833
REMARK  Name = 
REMARK  4 active torsions:
REMARK  status: ('A' for Active; 'I' for Inactive)
REMARK    1  A    between atoms: C_5  and  N_6
REMARK    2  A    between atoms: C_9  and  C_10
REMARK    3  A    between atoms: C_10  and  C_11
REMARK    4  A    between atoms: C_10  and  N_17
REMARK                            x       y       z     vdW  Elec       q    Type
REMARK                         _______ _______ _______ _____ _____    ______ ____
ROOT
ATOM      1  N   UNL     1       1.787   8.570  18.872  0.00  0.00    +0.000 N 
ATOM      2  C   UNL     1       2.521   8.457  17.707  0.00  0.00    +0.000 A 
ATOM      3  C   UNL     1       3.373   7.377  17.804  0.00  0.00    +0.000 A 
ATOM      4  C   UNL     1       3.172   6.779  19.075  0.00  0.00    +0.000 A 
ATOM      5  C   UNL     1       2.233   7.575  19.716  0.00  0.00    +0.000 A 
ENDROOT
BRANCH   1  10
ATOM      6 CL   UNL     1      -2.523  12.514  20.026  0.00  0.00    +0.000 Cl
ATOM      7  C   UNL     1      -1.279  11.373  19.694  0.00  0.00    +0.000 A 
ATOM      8  C   UNL     1      -0.438  10.944  20.717  0.00  0.00    +0.000 A 
ATOM      9  C   UNL     1       0.572  10.012  20.453  0.00  0.00    +0.000 A 
ATOM     10  C   UNL     1       0.746   9.507  19.156  0.00  0.00    +0.000 A 
ATOM     11  C   UNL     1      -0.108   9.955  18.133  0.00  0.00    +0.000 A 
ATOM     12  C   UNL     1      -1.118  10.883  18.403  0.00  0.00    +0.000 A 
ENDBRANCH   1  10
BRANCH   4  13
ATOM     13  C   UNL     1       3.825   5.520  19.599  0.00  0.00    +0.000 C 
BRANCH  13  14
ATOM     14  C   UNL     1       2.748   4.444  19.512  0.00  0.00    +0.000 A 
ATOM     15  C   UNL     1       2.057   4.158  18.319  0.00  0.00    +0.000 A 
ATOM     16  C   UNL     1       1.012   3.234  18.299  0.00  0.00    +0.000 A 
ATOM     17  C   UNL     1       0.639   2.575  19.468  0.00  0.00    +0.000 A 
ATOM     18  C   UNL     1       1.321   2.827  20.656  0.00  0.00    +0.000 A 
ATOM     19  C   UNL     1       2.367   3.752  20.679  0.00  0.00    +0.000 A 
ENDBRANCH  13  14
BRANCH  13  20
ATOM     20  N   UNL     1       5.077   5.179  18.904  0.00  0.00    +0.000 N 
ATOM     21  C   UNL     1       5.166   4.452  17.738  0.00  0.00    +0.000 A 
ATOM     22  C   UNL     1       6.511   4.331  17.486  0.00  0.00    +0.000 A 
ATOM     23  N   UNL     1       7.246   4.945  18.463  0.00  0.00    +0.000 NA
ATOM     24  C   UNL     1       6.362   5.432  19.306  0.00  0.00    +0.000 A 
ENDBRANCH  13  20
ENDBRANCH   4  13
TORSDOF 4
ENDMDL
MODEL 9
REMARK VINA RESULT:      -7.9      1.558      3.971
REMARK  Name = 
REMARK  4 active torsions:
REMARK  status: ('A' for Active; 'I' for Inactive)
REMARK    1  A    between atoms: C_5  and  N_6
REMARK    2  A    between atoms: C_9  and  C_10
REMARK    3  A    between atoms: C_10  and  C_11
REMARK    4  A    between atoms: C_10  and  N_17
REMARK                            x       y       z     vdW  Elec       q    Type
REMARK                         _______ _______ _______ _____ _____    ______ ____
ROOT
ATOM      1  N   UNL     1       1.830   8.519  18.882  0.00  0.00    +0.000 N 
ATOM      2  C   UNL     1       2.526   8.412  17.695  0.00  0.00    +0.000 A 
ATOM      3  C   UNL     1       3.380   7.331  17.759  0.00  0.00    +0.000 A 
ATOM      4  C   UNL     1       3.219   6.726  19.032  0.00  0.00    +0.000 A 
ATOM      5  C   UNL     1       2.301   7.519  19.706  0.00  0.00    +0.000 A 
ENDROOT
BRANCH   1  10
ATOM      6 CL   UNL     1      -2.493  12.380  20.251  0.00  0.00    +0.000 Cl
ATOM      7  C   UNL     1      -1.243  11.267  19.854  0.00  0.00    +0.000 A 
ATOM      8  C   UNL     1      -1.033  10.901  18.528  0.00  0.00    +0.000 A 
ATOM      9  C   UNL     1      -0.015   9.998  18.200  0.00  0.00    +0.000 A 
ATOM     10  C   UNL     1       0.799   9.455  19.205  0.00  0.00    +0.000 A 
ATOM     11  C   UNL     1       0.570   9.831  20.541  0.00  0.00    +0.000 A 
ATOM     12  C   UNL     1      -0.446  10.735  20.862  0.00  0.00    +0.000 A 
ENDBRANCH   1  10
BRANCH   4  13
ATOM     13  C   UNL     1       3.887   5.464  19.528  0.00  0.00    +0.000 C 
BRANCH  13  14
ATOM     14  C   UNL     1       2.799   4.395  19.495  0.00  0.00    +0.000 A 
ATOM     15  C   UNL     1       2.094   4.068  18.320  0.00  0.00    +0.000 A 
ATOM     16  C   UNL     1       1.041   3.153  18.347  0.00  0.00    +0.000 A 
ATOM     17  C   UNL     1       0.673   2.546  19.545  0.00  0.00    +0.000 A 
ATOM     18  C   UNL     1       1.368   2.840  20.716  0.00  0.00    +0.000 A 
ATOM     19  C   UNL     1       2.423   3.755  20.692  0.00  0.00    +0.000 A 
ENDBRANCH  13  14
BRANCH  13  20
ATOM     20  N   UNL     1       5.102   5.112  18.775  0.00  0.00    +0.000 N 
ATOM     21  C   UNL     1       6.382   5.488  19.111  0.00  0.00    +0.000 A 
ATOM     22  C   UNL     1       7.183   4.990  18.111  0.00  0.00    +0.000 A 
ATOM     23  N   UNL     1       6.435   4.337  17.170  0.00  0.00    +0.000 NA
ATOM     24  C   UNL     1       5.191   4.437  17.585  0.00  0.00    +0.000 A 
ENDBRANCH  13  20
ENDBRANCH   4  13
TORSDOF 4
ENDMDL
