MODEL 1
REMARK VINA RESULT:      -7.6      0.000      0.000
REMARK  Name = 
REMARK  8 active torsions:
REMARK  status: ('A' for Active; 'I' for Inactive)
REMARK    1  A    between atoms: C_1  and  O_2
REMARK    2  A    between atoms: O_2  and  C_3
REMARK    3  A    between atoms: C_6  and  C_7
REMARK    4  A    between atoms: C_7  and  N_8
REMARK    5  A    between atoms: C_12  and  S_13
REMARK    6  A    between atoms: S_13  and  C_14
REMARK    7  A    between atoms: C_14  and  C_15
REMARK    8  A    between atoms: N_17  and  C_18
REMARK                            x       y       z     vdW  Elec       q    Type
REMARK                         _______ _______ _______ _____ _____    ______ ____
ROOT
ATOM      1  N   UNL     1       5.564   6.232  16.595  0.00  0.00    +0.000 N 
ATOM      2  C   UNL     1       5.349   5.536  15.426  0.00  0.00    +0.000 A 
ATOM      3  C   UNL     1       6.598   5.202  14.963  0.00  0.00    +0.000 A 
ATOM      4  N   UNL     1       7.572   5.696  15.792  0.00  0.00    +0.000 NA
ATOM      5  C   UNL     1       6.924   6.292  16.769  0.00  0.00    +0.000 A 
ENDROOT
BRANCH   1   6
ATOM      6  C   UNL     1       4.511   6.667  17.495  0.00  0.00    +0.000 C 
BRANCH   6  10
ATOM      7  C   UNL     1       2.412   3.458  19.507  0.00  0.00    +0.000 A 
ATOM      8  C   UNL     1       3.792   3.603  19.661  0.00  0.00    +0.000 A 
ATOM      9  C   UNL     1       4.477   4.630  19.004  0.00  0.00    +0.000 A 
ATOM     10  C   UNL     1       3.793   5.522  18.166  0.00  0.00    +0.000 A 
ATOM     11  C   UNL     1       2.414   5.344  17.988  0.00  0.00    +0.000 A 
ATOM     12  C   UNL     1       1.729   4.322  18.652  0.00  0.00    +0.000 A 
BRANCH   7  14
ATOM     13  C   UNL     1       1.456   2.723  21.539  0.00  0.00    +0.000 C 
ATOM     14  O   UNL     1       1.848   2.425  20.203  0.00  0.00    +0.000 OA
ENDBRANCH   7  14
ENDBRANCH   6  10
ENDBRANCH   1   6
BRANCH   5  15
ATOM     15  S   UNL     1       7.691   7.074  18.110  0.00  0.00    +0.000 S 
BRANCH  15  16
ATOM     16  C   UNL     1       7.777   8.784  17.505  0.00  0.00    +0.000 C 
BRANCH  16  17
ATOM     17  C   UNL     1       8.649   9.630  18.417  0.00  0.00    +0.000 C 
ATOM     18  O   UNL     1       9.148   9.142  19.430  0.00  0.00    +0.000 OA
ATOM     19  N   UNL     1       8.790  10.945  18.001  0.00  0.00    +0.000 N 
ATOM     20  H   UNL     1       8.115  11.272  17.303  0.00  0.00    +0.000 HD
BRANCH  19  21
ATOM     21  C   UNL     1       9.551  11.948  18.642  0.00  0.00    +0.000 A 
ATOM     22  C   UNL     1       9.093  12.664  19.750  0.00  0.00    +0.000 A 
ATOM     23  C   UNL     1       9.882  13.672  20.314  0.00  0.00    +0.000 A 
ATOM     24  C   UNL     1      11.131  13.955  19.776  0.00  0.00    +0.000 A 
ATOM     25  F   UNL     1      11.874  14.930  20.314  0.00  0.00    +0.000 F 
ATOM     26  C   UNL     1      11.620  13.239  18.693  0.00  0.00    +0.000 A 
ATOM     27  C   UNL     1      10.829  12.234  18.142  0.00  0.00    +0.000 A 
ATOM     28  F   UNL     1      11.312  11.544  17.096  0.00  0.00    +0.000 F 
ENDBRANCH  19  21
ENDBRANCH  16  17
ENDBRANCH  15  16
ENDBRANCH   5  15
TORSDOF 7
ENDMDL
MODEL 2
REMARK VINA RESULT:      -7.5      5.207      7.533
REMARK  Name = 
REMARK  8 active torsions:
REMARK  status: ('A' for Active; 'I' for Inactive)
REMARK    1  A    between atoms: C_1  and  O_2
REMARK    2  A    between atoms: O_2  and  C_3
REMARK    3  A    between atoms: C_6  and  C_7
REMARK    4  A    between atoms: C_7  and  N_8
REMARK    5  A    between atoms: C_12  and  S_13
REMARK    6  A    between atoms: S_13  and  C_14
REMARK    7  A    between atoms: C_14  and  C_15
REMARK    8  A    between atoms: N_17  and  C_18
REMARK                            x       y       z     vdW  Elec       q    Type
REMARK                         _______ _______ _______ _____ _____    ______ ____
ROOT
ATOM      1  N   UNL     1       4.092   5.509  17.756  0.00  0.00    +0.000 N 
ATOM      2  C   UNL     1       3.179   4.522  17.452  0.00  0.00    +0.000 A 
ATOM      3  C   UNL     1       3.660   3.382  18.048  0.00  0.00    +0.000 A 
ATOM      4  N   UNL     1       4.852   3.628  18.679  0.00  0.00    +0.000 NA
ATOM      5  C   UNL     1       5.076   4.912  18.503  0.00  0.00    +0.000 A 
ENDROOT
BRANCH   1   6
ATOM      6  C   UNL     1       3.916   6.914  17.438  0.00  0.00    +0.000 C 
BRANCH   6  10
ATOM      7  C   UNL     1       1.050   8.948  19.969  0.00  0.00    +0.000 A 
ATOM      8  C   UNL     1       1.657   7.767  20.399  0.00  0.00    +0.000 A 
ATOM      9  C   UNL     1       2.574   7.099  19.581  0.00  0.00    +0.000 A 
ATOM     10  C   UNL     1       2.888   7.594  18.307  0.00  0.00    +0.000 A 
ATOM     11  C   UNL     1       2.245   8.761  17.870  0.00  0.00    +0.000 A 
ATOM     12  C   UNL     1       1.334   9.432  18.692  0.00  0.00    +0.000 A 
BRANCH   7  14
ATOM     13  C   UNL     1       0.488   9.331  22.232  0.00  0.00    +0.000 C 
ATOM     14  O   UNL     1       0.179   9.518  20.854  0.00  0.00    +0.000 OA
ENDBRANCH   7  14
ENDBRANCH   6  10
ENDBRANCH   1   6
BRANCH   5  15
ATOM     15  S   UNL     1       6.456   5.752  19.127  0.00  0.00    +0.000 S 
BRANCH  15  16
ATOM     16  C   UNL     1       7.177   6.409  17.595  0.00  0.00    +0.000 C 
BRANCH  16  17
ATOM     17  C   UNL     1       7.248   5.329  16.530  0.00  0.00    +0.000 C 
ATOM     18  O   UNL     1       7.879   4.293  16.736  0.00  0.00    +0.000 OA
ATOM     19  N   UNL     1       6.568   5.642  15.364  0.00  0.00    +0.000 N 
ATOM     20  H   UNL     1       6.321   6.627  15.236  0.00  0.00    +0.000 HD
BRANCH  19  21
ATOM     21  C   UNL     1       6.451   4.823  14.219  0.00  0.00    +0.000 A 
ATOM     22  C   UNL     1       5.384   3.945  14.012  0.00  0.00    +0.000 A 
ATOM     23  C   UNL     1       5.348   3.133  12.874  0.00  0.00    +0.000 A 
ATOM     24  C   UNL     1       6.373   3.208  11.939  0.00  0.00    +0.000 A 
ATOM     25  F   UNL     1       6.337   2.417  10.858  0.00  0.00    +0.000 F 
ATOM     26  C   UNL     1       7.429   4.092  12.106  0.00  0.00    +0.000 A 
ATOM     27  C   UNL     1       7.453   4.899  13.241  0.00  0.00    +0.000 A 
ATOM     28  F   UNL     1       8.478   5.754  13.394  0.00  0.00    +0.000 F 
ENDBRANCH  19  21
ENDBRANCH  16  17
ENDBRANCH  15  16
ENDBRANCH   5  15
TORSDOF 7
ENDMDL
MODEL 3
REMARK VINA RESULT:      -7.4      4.693      7.020
REMARK  Name = 
REMARK  8 active torsions:
REMARK  status: ('A' for Active; 'I' for Inactive)
REMARK    1  A    between atoms: C_1  and  O_2
REMARK    2  A    between atoms: O_2  and  C_3
REMARK    3  A    between atoms: C_6  and  C_7
REMARK    4  A    between atoms: C_7  and  N_8
REMARK    5  A    between atoms: C_12  and  S_13
REMARK    6  A    between atoms: S_13  and  C_14
REMARK    7  A    between atoms: C_14  and  C_15
REMARK    8  A    between atoms: N_17  and  C_18
REMARK                            x       y       z     vdW  Elec       q    Type
REMARK                         _______ _______ _______ _____ _____    ______ ____
ROOT
ATOM      1  N   UNL     1       2.145   4.650  20.309  0.00  0.00    +0.000 N 
ATOM      2  C   UNL     1       1.900   3.961  21.477  0.00  0.00    +0.000 A 
ATOM      3  C   UNL     1       1.150   2.870  21.108  0.00  0.00    +0.000 A 
ATOM      4  N   UNL     1       0.901   2.885  19.760  0.00  0.00    +0.000 NA
ATOM      5  C   UNL     1       1.524   3.950  19.306  0.00  0.00    +0.000 A 
ENDROOT
BRANCH   1   6
ATOM      6  C   UNL     1       3.018   5.805  20.209  0.00  0.00    +0.000 C 
BRANCH   6  10
ATOM      7  C   UNL     1       0.776   9.438  19.479  0.00  0.00    +0.000 A 
ATOM      8  C   UNL     1       1.633   8.930  18.502  0.00  0.00    +0.000 A 
ATOM      9  C   UNL     1       2.370   7.764  18.736  0.00  0.00    +0.000 A 
ATOM     10  C   UNL     1       2.272   7.093  19.963  0.00  0.00    +0.000 A 
ATOM     11  C   UNL     1       1.437   7.632  20.952  0.00  0.00    +0.000 A 
ATOM     12  C   UNL     1       0.695   8.794  20.713  0.00  0.00    +0.000 A 
BRANCH   7  14
ATOM     13  C   UNL     1       0.899  11.749  19.003  0.00  0.00    +0.000 C 
ATOM     14  O   UNL     1       0.102  10.576  19.137  0.00  0.00    +0.000 OA
ENDBRANCH   7  14
ENDBRANCH   6  10
ENDBRANCH   1   6
BRANCH   5  15
ATOM     15  S   UNL     1       1.547   4.427  17.642  0.00  0.00    +0.000 S 
BRANCH  15  16
ATOM     16  C   UNL     1       2.690   3.197  16.949  0.00  0.00    +0.000 C 
BRANCH  16  17
ATOM     17  C   UNL     1       4.130   3.640  17.138  0.00  0.00    +0.000 C 
ATOM     18  O   UNL     1       5.056   2.869  16.890  0.00  0.00    +0.000 OA
ATOM     19  N   UNL     1       4.264   4.936  17.612  0.00  0.00    +0.000 N 
ATOM     20  H   UNL     1       3.424   5.356  18.020  0.00  0.00    +0.000 HD
BRANCH  19  21
ATOM     21  C   UNL     1       5.478   5.613  17.866  0.00  0.00    +0.000 A 
ATOM     22  C   UNL     1       6.382   5.216  18.853  0.00  0.00    +0.000 A 
ATOM     23  C   UNL     1       7.549   5.953  19.079  0.00  0.00    +0.000 A 
ATOM     24  C   UNL     1       7.814   7.080  18.310  0.00  0.00    +0.000 A 
ATOM     25  F   UNL     1       8.928   7.788  18.542  0.00  0.00    +0.000 F 
ATOM     26  C   UNL     1       6.946   7.478  17.304  0.00  0.00    +0.000 A 
ATOM     27  C   UNL     1       5.789   6.734  17.084  0.00  0.00    +0.000 A 
ATOM     28  F   UNL     1       4.956   7.125  16.106  0.00  0.00    +0.000 F 
ENDBRANCH  19  21
ENDBRANCH  16  17
ENDBRANCH  15  16
ENDBRANCH   5  15
TORSDOF 7
ENDMDL
MODEL 4
REMARK VINA RESULT:      -7.3      5.516      8.339
REMARK  Name = 
REMARK  8 active torsions:
REMARK  status: ('A' for Active; 'I' for Inactive)
REMARK    1  A    between atoms: C_1  and  O_2
REMARK    2  A    between atoms: O_2  and  C_3
REMARK    3  A    between atoms: C_6  and  C_7
REMARK    4  A    between atoms: C_7  and  N_8
REMARK    5  A    between atoms: C_12  and  S_13
REMARK    6  A    between atoms: S_13  and  C_14
REMARK    7  A    between atoms: C_14  and  C_15
REMARK    8  A    between atoms: N_17  and  C_18
REMARK                            x       y       z     vdW  Elec       q    Type
REMARK                         _______ _______ _______ _____ _____    ______ ____
ROOT
ATOM      1  N   UNL     1       5.406   7.037  16.764  0.00  0.00    +0.000 N 
ATOM      2  C   UNL     1       6.259   7.826  17.506  0.00  0.00    +0.000 A 
ATOM      3  C   UNL     1       7.508   7.281  17.329  0.00  0.00    +0.000 A 
ATOM      4  N   UNL     1       7.445   6.169  16.531  0.00  0.00    +0.000 NA
ATOM      5  C   UNL     1       6.179   6.058  16.193  0.00  0.00    +0.000 A 
ENDROOT
BRANCH   1   6
ATOM      6  C   UNL     1       4.000   7.326  16.554  0.00  0.00    +0.000 C 
BRANCH   6  10
ATOM      7  C   UNL     1       1.695   7.718  20.199  0.00  0.00    +0.000 A 
ATOM      8  C   UNL     1       1.710   8.750  19.260  0.00  0.00    +0.000 A 
ATOM      9  C   UNL     1       2.463   8.635  18.087  0.00  0.00    +0.000 A 
ATOM     10  C   UNL     1       3.228   7.486  17.840  0.00  0.00    +0.000 A 
ATOM     11  C   UNL     1       3.235   6.471  18.807  0.00  0.00    +0.000 A 
ATOM     12  C   UNL     1       2.476   6.585  19.976  0.00  0.00    +0.000 A 
BRANCH   7  14
ATOM     13  C   UNL     1       1.161   9.158  21.995  0.00  0.00    +0.000 C 
ATOM     14  O   UNL     1       0.918   7.938  21.302  0.00  0.00    +0.000 OA
ENDBRANCH   7  14
ENDBRANCH   6  10
ENDBRANCH   1   6
BRANCH   5  15
ATOM     15  S   UNL     1       5.554   4.816  15.162  0.00  0.00    +0.000 S 
BRANCH  15  16
ATOM     16  C   UNL     1       5.895   3.337  16.160  0.00  0.00    +0.000 C 
BRANCH  16  17
ATOM     17  C   UNL     1       5.292   3.477  17.547  0.00  0.00    +0.000 C 
ATOM     18  O   UNL     1       5.895   4.088  18.429  0.00  0.00    +0.000 OA
ATOM     19  N   UNL     1       4.061   2.856  17.691  0.00  0.00    +0.000 N 
ATOM     20  H   UNL     1       3.813   2.174  16.969  0.00  0.00    +0.000 HD
BRANCH  19  21
ATOM     21  C   UNL     1       3.266   2.837  18.859  0.00  0.00    +0.000 A 
ATOM     22  C   UNL     1       3.774   2.533  20.124  0.00  0.00    +0.000 A 
ATOM     23  C   UNL     1       2.924   2.493  21.234  0.00  0.00    +0.000 A 
ATOM     24  C   UNL     1       1.571   2.767  21.079  0.00  0.00    +0.000 A 
ATOM     25  F   UNL     1       0.762   2.714  22.146  0.00  0.00    +0.000 F 
ATOM     26  C   UNL     1       1.047   3.099  19.839  0.00  0.00    +0.000 A 
ATOM     27  C   UNL     1       1.903   3.141  18.740  0.00  0.00    +0.000 A 
ATOM     28  F   UNL     1       1.388   3.467  17.543  0.00  0.00    +0.000 F 
ENDBRANCH  19  21
ENDBRANCH  16  17
ENDBRANCH  15  16
ENDBRANCH   5  15
TORSDOF 7
ENDMDL
MODEL 5
REMARK VINA RESULT:      -7.3      4.193      6.517
REMARK  Name = 
REMARK  8 active torsions:
REMARK  status: ('A' for Active; 'I' for Inactive)
REMARK    1  A    between atoms: C_1  and  O_2
REMARK    2  A    between atoms: O_2  and  C_3
REMARK    3  A    between atoms: C_6  and  C_7
REMARK    4  A    between atoms: C_7  and  N_8
REMARK    5  A    between atoms: C_12  and  S_13
REMARK    6  A    between atoms: S_13  and  C_14
REMARK    7  A    between atoms: C_14  and  C_15
REMARK    8  A    between atoms: N_17  and  C_18
REMARK                            x       y       z     vdW  Elec       q    Type
REMARK                         _______ _______ _______ _____ _____    ______ ____
ROOT
ATOM      1  N   UNL     1       2.402   4.418  20.132  0.00  0.00    +0.000 N 
ATOM      2  C   UNL     1       1.955   4.014  21.372  0.00  0.00    +0.000 A 
ATOM      3  C   UNL     1       1.293   2.830  21.154  0.00  0.00    +0.000 A 
ATOM      4  N   UNL     1       1.292   2.510  19.821  0.00  0.00    +0.000 NA
ATOM      5  C   UNL     1       1.978   3.468  19.237  0.00  0.00    +0.000 A 
ENDROOT
BRANCH   1   6
ATOM      6  C   UNL     1       3.269   5.559  19.907  0.00  0.00    +0.000 C 
BRANCH   6  10
ATOM      7  C   UNL     1       1.211   9.225  18.870  0.00  0.00    +0.000 A 
ATOM      8  C   UNL     1       1.148   8.726  20.171  0.00  0.00    +0.000 A 
ATOM      9  C   UNL     1       1.800   7.535  20.509  0.00  0.00    +0.000 A 
ATOM     10  C   UNL     1       2.516   6.815  19.543  0.00  0.00    +0.000 A 
ATOM     11  C   UNL     1       2.541   7.306  18.230  0.00  0.00    +0.000 A 
ATOM     12  C   UNL     1       1.896   8.500  17.895  0.00  0.00    +0.000 A 
BRANCH   7  14
ATOM     13  C   UNL     1       0.258  11.167  19.822  0.00  0.00    +0.000 C 
ATOM     14  O   UNL     1       0.543  10.399  18.657  0.00  0.00    +0.000 OA
ENDBRANCH   7  14
ENDBRANCH   6  10
ENDBRANCH   1   6
BRANCH   5  15
ATOM     15  S   UNL     1       2.299   3.537  17.537  0.00  0.00    +0.000 S 
BRANCH  15  16
ATOM     16  C   UNL     1       4.038   3.015  17.495  0.00  0.00    +0.000 C 
BRANCH  16  17
ATOM     17  C   UNL     1       4.933   4.167  17.073  0.00  0.00    +0.000 C 
ATOM     18  O   UNL     1       5.161   4.374  15.882  0.00  0.00    +0.000 OA
ATOM     19  N   UNL     1       5.441   4.903  18.132  0.00  0.00    +0.000 N 
ATOM     20  H   UNL     1       5.385   4.462  19.055  0.00  0.00    +0.000 HD
BRANCH  19  21
ATOM     21  C   UNL     1       6.283   6.033  18.038  0.00  0.00    +0.000 A 
ATOM     22  C   UNL     1       6.032   7.103  17.177  0.00  0.00    +0.000 A 
ATOM     23  C   UNL     1       6.927   8.175  17.104  0.00  0.00    +0.000 A 
ATOM     24  C   UNL     1       8.067   8.179  17.899  0.00  0.00    +0.000 A 
ATOM     25  F   UNL     1       8.925   9.204  17.813  0.00  0.00    +0.000 F 
ATOM     26  C   UNL     1       8.325   7.142  18.783  0.00  0.00    +0.000 A 
ATOM     27  C   UNL     1       7.424   6.082  18.851  0.00  0.00    +0.000 A 
ATOM     28  F   UNL     1       7.680   5.083  19.712  0.00  0.00    +0.000 F 
ENDBRANCH  19  21
ENDBRANCH  16  17
ENDBRANCH  15  16
ENDBRANCH   5  15
TORSDOF 7
ENDMDL
MODEL 6
REMARK VINA RESULT:      -7.3      5.578      7.688
REMARK  Name = 
REMARK  8 active torsions:
REMARK  status: ('A' for Active; 'I' for Inactive)
REMARK    1  A    between atoms: C_1  and  O_2
REMARK    2  A    between atoms: O_2  and  C_3
REMARK    3  A    between atoms: C_6  and  C_7
REMARK    4  A    between atoms: C_7  and  N_8
REMARK    5  A    between atoms: C_12  and  S_13
REMARK    6  A    between atoms: S_13  and  C_14
REMARK    7  A    between atoms: C_14  and  C_15
REMARK    8  A    between atoms: N_17  and  C_18
REMARK                            x       y       z     vdW  Elec       q    Type
REMARK                         _______ _______ _______ _____ _____    ______ ____
ROOT
ATOM      1  N   UNL     1       4.018   5.475  17.878  0.00  0.00    +0.000 N 
ATOM      2  C   UNL     1       3.060   4.533  17.574  0.00  0.00    +0.000 A 
ATOM      3  C   UNL     1       3.475   3.376  18.188  0.00  0.00    +0.000 A 
ATOM      4  N   UNL     1       4.671   3.569  18.831  0.00  0.00    +0.000 NA
ATOM      5  C   UNL     1       4.962   4.837  18.644  0.00  0.00    +0.000 A 
ENDROOT
BRANCH   1   6
ATOM      6  C   UNL     1       3.917   6.883  17.544  0.00  0.00    +0.000 C 
BRANCH   6  10
ATOM      7  C   UNL     1       0.949   8.932  19.941  0.00  0.00    +0.000 A 
ATOM      8  C   UNL     1       1.321   9.438  18.695  0.00  0.00    +0.000 A 
ATOM      9  C   UNL     1       2.288   8.788  17.921  0.00  0.00    +0.000 A 
ATOM     10  C   UNL     1       2.913   7.625  18.391  0.00  0.00    +0.000 A 
ATOM     11  C   UNL     1       2.560   7.145  19.661  0.00  0.00    +0.000 A 
ATOM     12  C   UNL     1       1.587   7.792  20.429  0.00  0.00    +0.000 A 
BRANCH   7  14
ATOM     13  C   UNL     1       0.268   9.934  21.970  0.00  0.00    +0.000 C 
ATOM     14  O   UNL     1      -0.010   9.645  20.604  0.00  0.00    +0.000 OA
ENDBRANCH   7  14
ENDBRANCH   6  10
ENDBRANCH   1   6
BRANCH   5  15
ATOM     15  S   UNL     1       6.375   5.613  19.274  0.00  0.00    +0.000 S 
BRANCH  15  16
ATOM     16  C   UNL     1       7.029   6.405  17.776  0.00  0.00    +0.000 C 
BRANCH  16  17
ATOM     17  C   UNL     1       7.244   5.377  16.679  0.00  0.00    +0.000 C 
ATOM     18  O   UNL     1       7.907   4.364  16.896  0.00  0.00    +0.000 OA
ATOM     19  N   UNL     1       6.650   5.710  15.471  0.00  0.00    +0.000 N 
ATOM     20  H   UNL     1       6.365   6.687  15.363  0.00  0.00    +0.000 HD
BRANCH  19  21
ATOM     21  C   UNL     1       6.671   4.938  14.288  0.00  0.00    +0.000 A 
ATOM     22  C   UNL     1       7.635   5.097  13.289  0.00  0.00    +0.000 A 
ATOM     23  C   UNL     1       7.577   4.326  12.124  0.00  0.00    +0.000 A 
ATOM     24  C   UNL     1       6.561   3.392  11.963  0.00  0.00    +0.000 A 
ATOM     25  F   UNL     1       6.506   2.668  10.837  0.00  0.00    +0.000 F 
ATOM     26  C   UNL     1       5.608   3.196  12.951  0.00  0.00    +0.000 A 
ATOM     27  C   UNL     1       5.678   3.965  14.111  0.00  0.00    +0.000 A 
ATOM     28  F   UNL     1       4.753   3.766  15.064  0.00  0.00    +0.000 F 
ENDBRANCH  19  21
ENDBRANCH  16  17
ENDBRANCH  15  16
ENDBRANCH   5  15
TORSDOF 7
ENDMDL
MODEL 7
REMARK VINA RESULT:      -7.3      6.633      8.168
REMARK  Name = 
REMARK  8 active torsions:
REMARK  status: ('A' for Active; 'I' for Inactive)
REMARK    1  A    between atoms: C_1  and  O_2
REMARK    2  A    between atoms: O_2  and  C_3
REMARK    3  A    between atoms: C_6  and  C_7
REMARK    4  A    between atoms: C_7  and  N_8
REMARK    5  A    between atoms: C_12  and  S_13
REMARK    6  A    between atoms: S_13  and  C_14
REMARK    7  A    between atoms: C_14  and  C_15
REMARK    8  A    between atoms: N_17  and  C_18
REMARK                            x       y       z     vdW  Elec       q    Type
REMARK                         _______ _______ _______ _____ _____    ______ ____
ROOT
ATOM      1  N   UNL     1       3.549   4.598  19.263  0.00  0.00    +0.000 N 
ATOM      2  C   UNL     1       3.236   3.292  18.954  0.00  0.00    +0.000 A 
ATOM      3  C   UNL     1       1.865   3.224  18.993  0.00  0.00    +0.000 A 
ATOM      4  N   UNL     1       1.328   4.435  19.346  0.00  0.00    +0.000 NA
ATOM      5  C   UNL     1       2.357   5.241  19.484  0.00  0.00    +0.000 A 
ENDROOT
BRANCH   1   6
ATOM      6  C   UNL     1       4.888   5.154  19.210  0.00  0.00    +0.000 C 
BRANCH   6  10
ATOM      7  C   UNL     1       6.712   5.081  15.283  0.00  0.00    +0.000 A 
ATOM      8  C   UNL     1       5.418   5.577  15.450  0.00  0.00    +0.000 A 
ATOM      9  C   UNL     1       4.819   5.591  16.713  0.00  0.00    +0.000 A 
ATOM     10  C   UNL     1       5.501   5.093  17.833  0.00  0.00    +0.000 A 
ATOM     11  C   UNL     1       6.786   4.563  17.647  0.00  0.00    +0.000 A 
ATOM     12  C   UNL     1       7.387   4.556  16.385  0.00  0.00    +0.000 A 
BRANCH   7  14
ATOM     13  C   UNL     1       6.694   4.131  13.119  0.00  0.00    +0.000 C 
ATOM     14  O   UNL     1       7.198   5.124  14.006  0.00  0.00    +0.000 OA
ENDBRANCH   7  14
ENDBRANCH   6  10
ENDBRANCH   1   6
BRANCH   5  15
ATOM     15  S   UNL     1       2.231   6.916  19.908  0.00  0.00    +0.000 S 
BRANCH  15  16
ATOM     16  C   UNL     1       2.359   7.694  18.271  0.00  0.00    +0.000 C 
BRANCH  16  17
ATOM     17  C   UNL     1       1.751   9.085  18.292  0.00  0.00    +0.000 C 
ATOM     18  O   UNL     1       1.973   9.875  17.375  0.00  0.00    +0.000 OA
ATOM     19  N   UNL     1       0.974   9.344  19.410  0.00  0.00    +0.000 N 
ATOM     20  H   UNL     1       1.094   8.705  20.201  0.00  0.00    +0.000 HD
BRANCH  19  21
ATOM     21  C   UNL     1       0.277  10.541  19.686  0.00  0.00    +0.000 A 
ATOM     22  C   UNL     1       0.782  11.547  20.513  0.00  0.00    +0.000 A 
ATOM     23  C   UNL     1       0.023  12.692  20.776  0.00  0.00    +0.000 A 
ATOM     24  C   UNL     1      -1.234  12.834  20.203  0.00  0.00    +0.000 A 
ATOM     25  F   UNL     1      -1.959  13.929  20.470  0.00  0.00    +0.000 F 
ATOM     26  C   UNL     1      -1.747  11.864  19.355  0.00  0.00    +0.000 A 
ATOM     27  C   UNL     1      -0.981  10.729  19.096  0.00  0.00    +0.000 A 
ATOM     28  F   UNL     1      -1.484   9.796  18.271  0.00  0.00    +0.000 F 
ENDBRANCH  19  21
ENDBRANCH  16  17
ENDBRANCH  15  16
ENDBRANCH   5  15
TORSDOF 7
ENDMDL
MODEL 8
REMARK VINA RESULT:      -7.2      5.393      6.852
REMARK  Name = 
REMARK  8 active torsions:
REMARK  status: ('A' for Active; 'I' for Inactive)
REMARK    1  A    between atoms: C_1  and  O_2
REMARK    2  A    between atoms: O_2  and  C_3
REMARK    3  A    between atoms: C_6  and  C_7
REMARK    4  A    between atoms: C_7  and  N_8
REMARK    5  A    between atoms: C_12  and  S_13
REMARK    6  A    between atoms: S_13  and  C_14
REMARK    7  A    between atoms: C_14  and  C_15
REMARK    8  A    between atoms: N_17  and  C_18
REMARK                            x       y       z     vdW  Elec       q    Type
REMARK                         _______ _______ _______ _____ _____    ______ ____
ROOT
ATOM      1  N   UNL     1       5.983   4.845  17.048  0.00  0.00    +0.000 N 
ATOM      2  C   UNL     1       7.214   4.553  17.594  0.00  0.00    +0.000 A 
ATOM      3  C   UNL     1       7.687   5.745  18.087  0.00  0.00    +0.000 A 
ATOM      4  N   UNL     1       6.803   6.762  17.834  0.00  0.00    +0.000 NA
ATOM      5  C   UNL     1       5.786   6.191  17.228  0.00  0.00    +0.000 A 
ENDROOT
BRANCH   1   6
ATOM      6  C   UNL     1       5.062   3.852  16.527  0.00  0.00    +0.000 C 
BRANCH   6  10
ATOM      7  C   UNL     1       2.070   2.714  19.444  0.00  0.00    +0.000 A 
ATOM      8  C   UNL     1       3.426   2.679  19.774  0.00  0.00    +0.000 A 
ATOM      9  C   UNL     1       4.397   3.033  18.832  0.00  0.00    +0.000 A 
ATOM     10  C   UNL     1       4.028   3.414  17.535  0.00  0.00    +0.000 A 
ATOM     11  C   UNL     1       2.666   3.410  17.202  0.00  0.00    +0.000 A 
ATOM     12  C   UNL     1       1.695   3.064  18.147  0.00  0.00    +0.000 A 
BRANCH   7  14
ATOM     13  C   UNL     1       1.557   2.815  21.749  0.00  0.00    +0.000 C 
ATOM     14  O   UNL     1       1.211   2.356  20.445  0.00  0.00    +0.000 OA
ENDBRANCH   7  14
ENDBRANCH   6  10
ENDBRANCH   1   6
BRANCH   5  15
ATOM     15  S   UNL     1       4.368   7.036  16.703  0.00  0.00    +0.000 S 
BRANCH  15  16
ATOM     16  C   UNL     1       3.324   6.907  18.184  0.00  0.00    +0.000 C 
BRANCH  16  17
ATOM     17  C   UNL     1       2.437   8.132  18.321  0.00  0.00    +0.000 C 
ATOM     18  O   UNL     1       2.348   8.942  17.399  0.00  0.00    +0.000 OA
ATOM     19  N   UNL     1       1.793   8.226  19.545  0.00  0.00    +0.000 N 
ATOM     20  H   UNL     1       2.162   7.636  20.296  0.00  0.00    +0.000 HD
BRANCH  19  21
ATOM     21  C   UNL     1       0.899   9.245  19.943  0.00  0.00    +0.000 A 
ATOM     22  C   UNL     1       0.037   9.895  19.057  0.00  0.00    +0.000 A 
ATOM     23  C   UNL     1      -0.796  10.923  19.508  0.00  0.00    +0.000 A 
ATOM     24  C   UNL     1      -0.773  11.293  20.847  0.00  0.00    +0.000 A 
ATOM     25  F   UNL     1      -1.565  12.288  21.269  0.00  0.00    +0.000 F 
ATOM     26  C   UNL     1       0.054  10.645  21.753  0.00  0.00    +0.000 A 
ATOM     27  C   UNL     1       0.876   9.619  21.294  0.00  0.00    +0.000 A 
ATOM     28  F   UNL     1       1.671   8.994  22.178  0.00  0.00    +0.000 F 
ENDBRANCH  19  21
ENDBRANCH  16  17
ENDBRANCH  15  16
ENDBRANCH   5  15
TORSDOF 7
ENDMDL
MODEL 9
REMARK VINA RESULT:      -7.2      5.566      7.863
REMARK  Name = 
REMARK  8 active torsions:
REMARK  status: ('A' for Active; 'I' for Inactive)
REMARK    1  A    between atoms: C_1  and  O_2
REMARK    2  A    between atoms: O_2  and  C_3
REMARK    3  A    between atoms: C_6  and  C_7
REMARK    4  A    between atoms: C_7  and  N_8
REMARK    5  A    between atoms: C_12  and  S_13
REMARK    6  A    between atoms: S_13  and  C_14
REMARK    7  A    between atoms: C_14  and  C_15
REMARK    8  A    between atoms: N_17  and  C_18
REMARK                            x       y       z     vdW  Elec       q    Type
REMARK                         _______ _______ _______ _____ _____    ______ ____
ROOT
ATOM      1  N   UNL     1       3.251   3.538  19.478  0.00  0.00    +0.000 N 
ATOM      2  C   UNL     1       3.176   2.738  20.597  0.00  0.00    +0.000 A 
ATOM      3  C   UNL     1       2.273   3.355  21.428  0.00  0.00    +0.000 A 
ATOM      4  N   UNL     1       1.817   4.522  20.871  0.00  0.00    +0.000 NA
ATOM      5  C   UNL     1       2.405   4.595  19.697  0.00  0.00    +0.000 A 
ENDROOT
BRANCH   1   6
ATOM      6  C   UNL     1       3.991   3.198  18.277  0.00  0.00    +0.000 C 
BRANCH   6  10
ATOM      7  C   UNL     1       6.861   6.191  17.026  0.00  0.00    +0.000 A 
ATOM      8  C   UNL     1       6.777   5.810  18.366  0.00  0.00    +0.000 A 
ATOM      9  C   UNL     1       5.844   4.853  18.778  0.00  0.00    +0.000 A 
ATOM     10  C   UNL     1       4.965   4.271  17.855  0.00  0.00    +0.000 A 
ATOM     11  C   UNL     1       5.031   4.687  16.518  0.00  0.00    +0.000 A 
ATOM     12  C   UNL     1       5.970   5.638  16.106  0.00  0.00    +0.000 A 
BRANCH   7  14
ATOM     13  C   UNL     1       7.883   8.234  17.631  0.00  0.00    +0.000 C 
ATOM     14  O   UNL     1       7.815   7.126  16.738  0.00  0.00    +0.000 OA
ENDBRANCH   7  14
ENDBRANCH   6  10
ENDBRANCH   1   6
BRANCH   5  15
ATOM     15  S   UNL     1       2.156   5.881  18.564  0.00  0.00    +0.000 S 
BRANCH  15  16
ATOM     16  C   UNL     1       2.110   7.315  19.679  0.00  0.00    +0.000 C 
BRANCH  16  17
ATOM     17  C   UNL     1       1.759   8.578  18.911  0.00  0.00    +0.000 C 
ATOM     18  O   UNL     1       1.932   8.634  17.694  0.00  0.00    +0.000 OA
ATOM     19  N   UNL     1       1.266   9.601  19.705  0.00  0.00    +0.000 N 
ATOM     20  H   UNL     1       1.426   9.508  20.712  0.00  0.00    +0.000 HD
BRANCH  19  21
ATOM     21  C   UNL     1       0.846  10.875  19.262  0.00  0.00    +0.000 A 
ATOM     22  C   UNL     1       1.716  11.959  19.117  0.00  0.00    +0.000 A 
ATOM     23  C   UNL     1       1.229  13.205  18.711  0.00  0.00    +0.000 A 
ATOM     24  C   UNL     1      -0.125  13.363  18.440  0.00  0.00    +0.000 A 
ATOM     25  F   UNL     1      -0.584  14.564  18.064  0.00  0.00    +0.000 F 
ATOM     26  C   UNL     1      -1.004  12.297  18.549  0.00  0.00    +0.000 A 
ATOM     27  C   UNL     1      -0.508  11.058  18.950  0.00  0.00    +0.000 A 
ATOM     28  F   UNL     1      -1.366  10.030  19.049  0.00  0.00    +0.000 F 
ENDBRANCH  19  21
ENDBRANCH  16  17
ENDBRANCH  15  16
ENDBRANCH   5  15
TORSDOF 7
ENDMDL
