MODEL 1
REMARK VINA RESULT:      -7.7      0.000      0.000
REMARK  Name = 
REMARK  4 active torsions:
REMARK  status: ('A' for Active; 'I' for Inactive)
REMARK    1  A    between atoms: C_1  and  N_2
REMARK    2  A    between atoms: N_5  and  C_6
REMARK    3  A    between atoms: C_6  and  C_7
REMARK    4  A    between atoms: C_7  and  C_9
REMARK                            x       y       z     vdW  Elec       q    Type
REMARK                         _______ _______ _______ _____ _____    ______ ____
ROOT
ATOM      1  C   UNL     1       2.253   3.404  21.370  0.00  0.00    +0.000 C 
ATOM      2  N   UNL     1       2.617   3.988  20.106  0.00  0.00    +0.000 N 
ATOM      3  C   UNL     1       3.123   3.387  18.956  0.00  0.00    +0.000 A 
ATOM      4  N   UNL     1       3.333   2.134  18.748  0.00  0.00    +0.000 NA
ATOM      5  N   UNL     1       3.361   4.400  18.029  0.00  0.00    +0.000 N 
ATOM      6  C   UNL     1       2.887   5.605  18.542  0.00  0.00    +0.000 A 
ATOM      7  C   UNL     1       2.799   6.868  17.992  0.00  0.00    +0.000 A 
ATOM      8  C   UNL     1       2.280   7.894  18.790  0.00  0.00    +0.000 A 
ATOM      9  C   UNL     1       1.864   7.648  20.109  0.00  0.00    +0.000 A 
ATOM     10  C   UNL     1       1.942   6.364  20.657  0.00  0.00    +0.000 A 
ATOM     11  C   UNL     1       2.448   5.357  19.860  0.00  0.00    +0.000 A 
ATOM     12  H   UNL     1       3.045   1.611  19.577  0.00  0.00    +0.000 HD
ENDROOT
BRANCH   5  13
ATOM     13  C   UNL     1       3.802   4.219  16.657  0.00  0.00    +0.000 C 
BRANCH  13  14
ATOM     14  C   UNL     1       5.321   4.177  16.543  0.00  0.00    +0.000 C 
ATOM     15  O   UNL     1       5.893   3.287  15.910  0.00  0.00    +0.000 OA
BRANCH  14  16
ATOM     16  C   UNL     1       6.160   5.192  17.245  0.00  0.00    +0.000 A 
ATOM     17  C   UNL     1       6.954   4.856  18.346  0.00  0.00    +0.000 A 
ATOM     18  C   UNL     1       7.827   5.803  18.891  0.00  0.00    +0.000 A 
ATOM     19  C   UNL     1       7.892   7.080  18.348  0.00  0.00    +0.000 A 
ATOM     20  F   UNL     1       8.750   7.971  18.863  0.00  0.00    +0.000 F 
ATOM     21  C   UNL     1       7.096   7.437  17.269  0.00  0.00    +0.000 A 
ATOM     22  C   UNL     1       6.229   6.493  16.712  0.00  0.00    +0.000 A 
ENDBRANCH  14  16
ENDBRANCH  13  14
ENDBRANCH   5  13
TORSDOF 3
ENDMDL
MODEL 2
REMARK VINA RESULT:      -7.4      0.560      1.203
REMARK  Name = 
REMARK  4 active torsions:
REMARK  status: ('A' for Active; 'I' for Inactive)
REMARK    1  A    between atoms: C_1  and  N_2
REMARK    2  A    between atoms: N_5  and  C_6
REMARK    3  A    between atoms: C_6  and  C_7
REMARK    4  A    between atoms: C_7  and  C_9
REMARK                            x       y       z     vdW  Elec       q    Type
REMARK                         _______ _______ _______ _____ _____    ______ ____
ROOT
ATOM      1  C   UNL     1       2.137   2.466  20.643  0.00  0.00    +0.000 C 
ATOM      2  N   UNL     1       2.606   3.355  19.614  0.00  0.00    +0.000 N 
ATOM      3  C   UNL     1       3.233   3.070  18.404  0.00  0.00    +0.000 A 
ATOM      4  N   UNL     1       3.492   1.913  17.902  0.00  0.00    +0.000 NA
ATOM      5  N   UNL     1       3.535   4.288  17.796  0.00  0.00    +0.000 N 
ATOM      6  C   UNL     1       2.986   5.321  18.553  0.00  0.00    +0.000 A 
ATOM      7  C   UNL     1       2.922   6.683  18.340  0.00  0.00    +0.000 A 
ATOM      8  C   UNL     1       2.306   7.469  19.321  0.00  0.00    +0.000 A 
ATOM      9  C   UNL     1       1.771   6.892  20.484  0.00  0.00    +0.000 A 
ATOM     10  C   UNL     1       1.826   5.509  20.689  0.00  0.00    +0.000 A 
ATOM     11  C   UNL     1       2.429   4.742  19.713  0.00  0.00    +0.000 A 
ATOM     12  H   UNL     1       3.138   1.195  18.537  0.00  0.00    +0.000 HD
ENDROOT
BRANCH   5  13
ATOM     13  C   UNL     1       4.110   4.466  16.475  0.00  0.00    +0.000 C 
BRANCH  13  14
ATOM     14  C   UNL     1       5.620   4.264  16.473  0.00  0.00    +0.000 C 
ATOM     15  O   UNL     1       6.130   3.239  16.017  0.00  0.00    +0.000 OA
BRANCH  14  16
ATOM     16  C   UNL     1       6.520   5.290  17.076  0.00  0.00    +0.000 A 
ATOM     17  C   UNL     1       6.550   6.608  16.608  0.00  0.00    +0.000 A 
ATOM     18  C   UNL     1       7.306   7.572  17.284  0.00  0.00    +0.000 A 
ATOM     19  C   UNL     1       8.038   7.215  18.409  0.00  0.00    +0.000 A 
ATOM     20  F   UNL     1       8.738   8.150  19.062  0.00  0.00    +0.000 F 
ATOM     21  C   UNL     1       8.037   5.907  18.874  0.00  0.00    +0.000 A 
ATOM     22  C   UNL     1       7.276   4.941  18.211  0.00  0.00    +0.000 A 
ENDBRANCH  14  16
ENDBRANCH  13  14
ENDBRANCH   5  13
TORSDOF 3
ENDMDL
MODEL 3
REMARK VINA RESULT:      -7.2      2.410      5.234
REMARK  Name = 
REMARK  4 active torsions:
REMARK  status: ('A' for Active; 'I' for Inactive)
REMARK    1  A    between atoms: C_1  and  N_2
REMARK    2  A    between atoms: N_5  and  C_6
REMARK    3  A    between atoms: C_6  and  C_7
REMARK    4  A    between atoms: C_7  and  C_9
REMARK                            x       y       z     vdW  Elec       q    Type
REMARK                         _______ _______ _______ _____ _____    ______ ____
ROOT
ATOM      1  C   UNL     1       7.860   5.874  18.590  0.00  0.00    +0.000 C 
ATOM      2  N   UNL     1       6.793   5.060  18.069  0.00  0.00    +0.000 N 
ATOM      3  C   UNL     1       5.749   4.423  18.735  0.00  0.00    +0.000 A 
ATOM      4  N   UNL     1       5.471   4.466  19.992  0.00  0.00    +0.000 NA
ATOM      5  N   UNL     1       5.019   3.716  17.781  0.00  0.00    +0.000 N 
ATOM      6  C   UNL     1       5.521   4.011  16.515  0.00  0.00    +0.000 A 
ATOM      7  C   UNL     1       5.099   3.650  15.252  0.00  0.00    +0.000 A 
ATOM      8  C   UNL     1       5.846   4.105  14.159  0.00  0.00    +0.000 A 
ATOM      9  C   UNL     1       6.988   4.903  14.341  0.00  0.00    +0.000 A 
ATOM     10  C   UNL     1       7.403   5.278  15.623  0.00  0.00    +0.000 A 
ATOM     11  C   UNL     1       6.656   4.831  16.694  0.00  0.00    +0.000 A 
ATOM     12  H   UNL     1       6.145   5.079  20.455  0.00  0.00    +0.000 HD
ENDROOT
BRANCH   5  13
ATOM     13  C   UNL     1       3.789   2.981  18.016  0.00  0.00    +0.000 C 
BRANCH  13  14
ATOM     14  C   UNL     1       2.552   3.829  17.743  0.00  0.00    +0.000 C 
ATOM     15  O   UNL     1       1.794   3.575  16.805  0.00  0.00    +0.000 OA
BRANCH  14  16
ATOM     16  C   UNL     1       2.257   5.028  18.582  0.00  0.00    +0.000 A 
ATOM     17  C   UNL     1       1.828   4.910  19.908  0.00  0.00    +0.000 A 
ATOM     18  C   UNL     1       1.692   6.053  20.701  0.00  0.00    +0.000 A 
ATOM     19  C   UNL     1       1.968   7.305  20.167  0.00  0.00    +0.000 A 
ATOM     20  F   UNL     1       1.858   8.391  20.942  0.00  0.00    +0.000 F 
ATOM     21  C   UNL     1       2.374   7.443  18.847  0.00  0.00    +0.000 A 
ATOM     22  C   UNL     1       2.522   6.304  18.050  0.00  0.00    +0.000 A 
ENDBRANCH  14  16
ENDBRANCH  13  14
ENDBRANCH   5  13
TORSDOF 3
ENDMDL
MODEL 4
REMARK VINA RESULT:      -7.2      2.449      3.058
REMARK  Name = 
REMARK  4 active torsions:
REMARK  status: ('A' for Active; 'I' for Inactive)
REMARK    1  A    between atoms: C_1  and  N_2
REMARK    2  A    between atoms: N_5  and  C_6
REMARK    3  A    between atoms: C_6  and  C_7
REMARK    4  A    between atoms: C_7  and  C_9
REMARK                            x       y       z     vdW  Elec       q    Type
REMARK                         _______ _______ _______ _____ _____    ______ ____
ROOT
ATOM      1  C   UNL     1       1.469   2.915  21.266  0.00  0.00    +0.000 C 
ATOM      2  N   UNL     1       2.037   3.496  20.079  0.00  0.00    +0.000 N 
ATOM      3  C   UNL     1       2.554   2.881  18.940  0.00  0.00    +0.000 A 
ATOM      4  N   UNL     1       2.589   1.622  18.671  0.00  0.00    +0.000 NA
ATOM      5  N   UNL     1       3.032   3.889  18.105  0.00  0.00    +0.000 N 
ATOM      6  C   UNL     1       2.702   5.127  18.652  0.00  0.00    +0.000 A 
ATOM      7  C   UNL     1       2.862   6.413  18.179  0.00  0.00    +0.000 A 
ATOM      8  C   UNL     1       2.432   7.467  18.993  0.00  0.00    +0.000 A 
ATOM      9  C   UNL     1       1.858   7.225  20.252  0.00  0.00    +0.000 A 
ATOM     10  C   UNL     1       1.685   5.918  20.721  0.00  0.00    +0.000 A 
ATOM     11  C   UNL     1       2.104   4.886  19.908  0.00  0.00    +0.000 A 
ATOM     12  H   UNL     1       2.145   1.111  19.437  0.00  0.00    +0.000 HD
ENDROOT
BRANCH   5  13
ATOM     13  C   UNL     1       3.571   3.709  16.769  0.00  0.00    +0.000 C 
BRANCH  13  14
ATOM     14  C   UNL     1       5.050   4.065  16.692  0.00  0.00    +0.000 C 
ATOM     15  O   UNL     1       5.731   4.203  17.712  0.00  0.00    +0.000 OA
BRANCH  14  16
ATOM     16  C   UNL     1       5.703   4.306  15.372  0.00  0.00    +0.000 A 
ATOM     17  C   UNL     1       6.865   5.076  15.257  0.00  0.00    +0.000 A 
ATOM     18  C   UNL     1       7.521   5.168  14.025  0.00  0.00    +0.000 A 
ATOM     19  C   UNL     1       7.008   4.508  12.915  0.00  0.00    +0.000 A 
ATOM     20  F   UNL     1       7.658   4.582  11.747  0.00  0.00    +0.000 F 
ATOM     21  C   UNL     1       5.845   3.757  13.007  0.00  0.00    +0.000 A 
ATOM     22  C   UNL     1       5.189   3.652  14.237  0.00  0.00    +0.000 A 
ENDBRANCH  14  16
ENDBRANCH  13  14
ENDBRANCH   5  13
TORSDOF 3
ENDMDL
MODEL 5
REMARK VINA RESULT:      -7.1      3.375      4.880
REMARK  Name = 
REMARK  4 active torsions:
REMARK  status: ('A' for Active; 'I' for Inactive)
REMARK    1  A    between atoms: C_1  and  N_2
REMARK    2  A    between atoms: N_5  and  C_6
REMARK    3  A    between atoms: C_6  and  C_7
REMARK    4  A    between atoms: C_7  and  C_9
REMARK                            x       y       z     vdW  Elec       q    Type
REMARK                         _______ _______ _______ _____ _____    ______ ____
ROOT
ATOM      1  C   UNL     1       2.490   7.371  18.350  0.00  0.00    +0.000 C 
ATOM      2  N   UNL     1       3.348   6.274  17.987  0.00  0.00    +0.000 N 
ATOM      3  C   UNL     1       4.694   6.273  17.628  0.00  0.00    +0.000 A 
ATOM      4  N   UNL     1       5.502   7.274  17.591  0.00  0.00    +0.000 NA
ATOM      5  N   UNL     1       5.038   4.958  17.317  0.00  0.00    +0.000 N 
ATOM      6  C   UNL     1       3.958   4.126  17.603  0.00  0.00    +0.000 A 
ATOM      7  C   UNL     1       3.819   2.754  17.561  0.00  0.00    +0.000 A 
ATOM      8  C   UNL     1       2.573   2.213  17.899  0.00  0.00    +0.000 A 
ATOM      9  C   UNL     1       1.498   3.039  18.267  0.00  0.00    +0.000 A 
ATOM     10  C   UNL     1       1.649   4.429  18.322  0.00  0.00    +0.000 A 
ATOM     11  C   UNL     1       2.883   4.952  17.995  0.00  0.00    +0.000 A 
ATOM     12  H   UNL     1       5.000   8.111  17.895  0.00  0.00    +0.000 HD
ENDROOT
BRANCH   5  13
ATOM     13  C   UNL     1       6.367   4.479  16.981  0.00  0.00    +0.000 C 
BRANCH  13  14
ATOM     14  C   UNL     1       6.892   5.097  15.690  0.00  0.00    +0.000 C 
ATOM     15  O   UNL     1       7.626   6.087  15.705  0.00  0.00    +0.000 OA
BRANCH  14  16
ATOM     16  C   UNL     1       6.484   4.542  14.366  0.00  0.00    +0.000 A 
ATOM     17  C   UNL     1       7.390   4.428  13.306  0.00  0.00    +0.000 A 
ATOM     18  C   UNL     1       7.006   3.781  12.128  0.00  0.00    +0.000 A 
ATOM     19  C   UNL     1       5.721   3.267  12.005  0.00  0.00    +0.000 A 
ATOM     20  F   UNL     1       5.372   2.628  10.882  0.00  0.00    +0.000 F 
ATOM     21  C   UNL     1       4.803   3.390  13.039  0.00  0.00    +0.000 A 
ATOM     22  C   UNL     1       5.182   4.026  14.224  0.00  0.00    +0.000 A 
ENDBRANCH  14  16
ENDBRANCH  13  14
ENDBRANCH   5  13
TORSDOF 3
ENDMDL
MODEL 6
REMARK VINA RESULT:      -7.1      2.447      3.095
REMARK  Name = 
REMARK  4 active torsions:
REMARK  status: ('A' for Active; 'I' for Inactive)
REMARK    1  A    between atoms: C_1  and  N_2
REMARK    2  A    between atoms: N_5  and  C_6
REMARK    3  A    between atoms: C_6  and  C_7
REMARK    4  A    between atoms: C_7  and  C_9
REMARK                            x       y       z     vdW  Elec       q    Type
REMARK                         _______ _______ _______ _____ _____    ______ ____
ROOT
ATOM      1  C   UNL     1       1.864   3.326  21.480  0.00  0.00    +0.000 C 
ATOM      2  N   UNL     1       2.338   3.828  20.217  0.00  0.00    +0.000 N 
ATOM      3  C   UNL     1       2.847   3.143  19.116  0.00  0.00    +0.000 A 
ATOM      4  N   UNL     1       2.959   1.870  18.963  0.00  0.00    +0.000 NA
ATOM      5  N   UNL     1       3.216   4.096  18.169  0.00  0.00    +0.000 N 
ATOM      6  C   UNL     1       2.822   5.356  18.615  0.00  0.00    +0.000 A 
ATOM      7  C   UNL     1       2.870   6.599  18.018  0.00  0.00    +0.000 A 
ATOM      8  C   UNL     1       2.402   7.695  18.753  0.00  0.00    +0.000 A 
ATOM      9  C   UNL     1       1.902   7.536  20.056  0.00  0.00    +0.000 A 
ATOM     10  C   UNL     1       1.843   6.271  20.651  0.00  0.00    +0.000 A 
ATOM     11  C   UNL     1       2.299   5.196  19.916  0.00  0.00    +0.000 A 
ATOM     12  H   UNL     1       2.587   1.405  19.794  0.00  0.00    +0.000 HD
ENDROOT
BRANCH   5  13
ATOM     13  C   UNL     1       3.707   3.826  16.829  0.00  0.00    +0.000 C 
BRANCH  13  14
ATOM     14  C   UNL     1       5.201   4.096  16.700  0.00  0.00    +0.000 C 
ATOM     15  O   UNL     1       5.899   4.329  17.689  0.00  0.00    +0.000 OA
BRANCH  14  16
ATOM     16  C   UNL     1       5.848   4.136  15.356  0.00  0.00    +0.000 A 
ATOM     17  C   UNL     1       5.295   3.476  14.254  0.00  0.00    +0.000 A 
ATOM     18  C   UNL     1       5.857   3.647  12.985  0.00  0.00    +0.000 A 
ATOM     19  C   UNL     1       6.972   4.460  12.823  0.00  0.00    +0.000 A 
ATOM     20  F   UNL     1       7.486   4.636  11.600  0.00  0.00    +0.000 F 
ATOM     21  C   UNL     1       7.546   5.105  13.909  0.00  0.00    +0.000 A 
ATOM     22  C   UNL     1       6.985   4.948  15.179  0.00  0.00    +0.000 A 
ENDBRANCH  14  16
ENDBRANCH  13  14
ENDBRANCH   5  13
TORSDOF 3
ENDMDL
MODEL 7
REMARK VINA RESULT:      -7.1      2.446      5.355
REMARK  Name = 
REMARK  4 active torsions:
REMARK  status: ('A' for Active; 'I' for Inactive)
REMARK    1  A    between atoms: C_1  and  N_2
REMARK    2  A    between atoms: N_5  and  C_6
REMARK    3  A    between atoms: C_6  and  C_7
REMARK    4  A    between atoms: C_7  and  C_9
REMARK                            x       y       z     vdW  Elec       q    Type
REMARK                         _______ _______ _______ _____ _____    ______ ____
ROOT
ATOM      1  C   UNL     1       7.858   6.126  18.457  0.00  0.00    +0.000 C 
ATOM      2  N   UNL     1       6.801   5.266  17.993  0.00  0.00    +0.000 N 
ATOM      3  C   UNL     1       5.783   4.637  18.706  0.00  0.00    +0.000 A 
ATOM      4  N   UNL     1       5.526   4.731  19.964  0.00  0.00    +0.000 NA
ATOM      5  N   UNL     1       5.054   3.871  17.798  0.00  0.00    +0.000 N 
ATOM      6  C   UNL     1       5.527   4.119  16.511  0.00  0.00    +0.000 A 
ATOM      7  C   UNL     1       5.092   3.691  15.273  0.00  0.00    +0.000 A 
ATOM      8  C   UNL     1       5.810   4.113  14.148  0.00  0.00    +0.000 A 
ATOM      9  C   UNL     1       6.936   4.943  14.273  0.00  0.00    +0.000 A 
ATOM     10  C   UNL     1       7.364   5.386  15.529  0.00  0.00    +0.000 A 
ATOM     11  C   UNL     1       6.646   4.971  16.632  0.00  0.00    +0.000 A 
ATOM     12  H   UNL     1       6.193   5.379  20.387  0.00  0.00    +0.000 HD
ENDROOT
BRANCH   5  13
ATOM     13  C   UNL     1       3.845   3.121  18.088  0.00  0.00    +0.000 C 
BRANCH  13  14
ATOM     14  C   UNL     1       2.588   3.966  17.913  0.00  0.00    +0.000 C 
ATOM     15  O   UNL     1       1.698   3.636  17.126  0.00  0.00    +0.000 OA
BRANCH  14  16
ATOM     16  C   UNL     1       2.430   5.248  18.659  0.00  0.00    +0.000 A 
ATOM     17  C   UNL     1       2.632   6.487  18.042  0.00  0.00    +0.000 A 
ATOM     18  C   UNL     1       2.344   7.667  18.736  0.00  0.00    +0.000 A 
ATOM     19  C   UNL     1       1.873   7.606  20.042  0.00  0.00    +0.000 A 
ATOM     20  F   UNL     1       1.577   8.741  20.688  0.00  0.00    +0.000 F 
ATOM     21  C   UNL     1       1.687   6.386  20.676  0.00  0.00    +0.000 A 
ATOM     22  C   UNL     1       1.963   5.203  19.986  0.00  0.00    +0.000 A 
ENDBRANCH  14  16
ENDBRANCH  13  14
ENDBRANCH   5  13
TORSDOF 3
ENDMDL
MODEL 8
REMARK VINA RESULT:      -7.0      1.165      2.657
REMARK  Name = 
REMARK  4 active torsions:
REMARK  status: ('A' for Active; 'I' for Inactive)
REMARK    1  A    between atoms: C_1  and  N_2
REMARK    2  A    between atoms: N_5  and  C_6
REMARK    3  A    between atoms: C_6  and  C_7
REMARK    4  A    between atoms: C_7  and  C_9
REMARK                            x       y       z     vdW  Elec       q    Type
REMARK                         _______ _______ _______ _____ _____    ______ ____
ROOT
ATOM      1  C   UNL     1       1.872   7.433  20.372  0.00  0.00    +0.000 C 
ATOM      2  N   UNL     1       2.459   6.443  19.507  0.00  0.00    +0.000 N 
ATOM      3  C   UNL     1       3.017   6.582  18.238  0.00  0.00    +0.000 A 
ATOM      4  N   UNL     1       3.183   7.666  17.564  0.00  0.00    +0.000 NA
ATOM      5  N   UNL     1       3.392   5.310  17.809  0.00  0.00    +0.000 N 
ATOM      6  C   UNL     1       3.192   4.403  18.848  0.00  0.00    +0.000 A 
ATOM      7  C   UNL     1       3.487   3.060  18.965  0.00  0.00    +0.000 A 
ATOM      8  C   UNL     1       3.136   2.416  20.157  0.00  0.00    +0.000 A 
ATOM      9  C   UNL     1       2.503   3.112  21.200  0.00  0.00    +0.000 A 
ATOM     10  C   UNL     1       2.219   4.476  21.081  0.00  0.00    +0.000 A 
ATOM     11  C   UNL     1       2.576   5.105  19.906  0.00  0.00    +0.000 A 
ATOM     12  H   UNL     1       2.850   8.454  18.123  0.00  0.00    +0.000 HD
ENDROOT
BRANCH   5  13
ATOM     13  C   UNL     1       4.100   4.996  16.581  0.00  0.00    +0.000 C 
BRANCH  13  14
ATOM     14  C   UNL     1       5.577   4.709  16.826  0.00  0.00    +0.000 C 
ATOM     15  O   UNL     1       6.080   3.626  16.517  0.00  0.00    +0.000 OA
BRANCH  14  16
ATOM     16  C   UNL     1       6.442   5.721  17.499  0.00  0.00    +0.000 A 
ATOM     17  C   UNL     1       7.217   5.398  18.618  0.00  0.00    +0.000 A 
ATOM     18  C   UNL     1       8.116   6.335  19.137  0.00  0.00    +0.000 A 
ATOM     19  C   UNL     1       8.225   7.590  18.552  0.00  0.00    +0.000 A 
ATOM     20  F   UNL     1       9.106   8.471  19.042  0.00  0.00    +0.000 F 
ATOM     21  C   UNL     1       7.448   7.935  17.454  0.00  0.00    +0.000 A 
ATOM     22  C   UNL     1       6.556   7.000  16.923  0.00  0.00    +0.000 A 
ENDBRANCH  14  16
ENDBRANCH  13  14
ENDBRANCH   5  13
TORSDOF 3
ENDMDL
MODEL 9
REMARK VINA RESULT:      -6.9      1.145      2.845
REMARK  Name = 
REMARK  4 active torsions:
REMARK  status: ('A' for Active; 'I' for Inactive)
REMARK    1  A    between atoms: C_1  and  N_2
REMARK    2  A    between atoms: N_5  and  C_6
REMARK    3  A    between atoms: C_6  and  C_7
REMARK    4  A    between atoms: C_7  and  C_9
REMARK                            x       y       z     vdW  Elec       q    Type
REMARK                         _______ _______ _______ _____ _____    ______ ____
ROOT
ATOM      1  C   UNL     1       1.890   7.494  20.562  0.00  0.00    +0.000 C 
ATOM      2  N   UNL     1       2.405   6.493  19.666  0.00  0.00    +0.000 N 
ATOM      3  C   UNL     1       2.961   6.631  18.396  0.00  0.00    +0.000 A 
ATOM      4  N   UNL     1       3.191   7.720  17.749  0.00  0.00    +0.000 NA
ATOM      5  N   UNL     1       3.251   5.350  17.929  0.00  0.00    +0.000 N 
ATOM      6  C   UNL     1       3.002   4.430  18.945  0.00  0.00    +0.000 A 
ATOM      7  C   UNL     1       3.212   3.068  19.024  0.00  0.00    +0.000 A 
ATOM      8  C   UNL     1       2.829   2.415  20.201  0.00  0.00    +0.000 A 
ATOM      9  C   UNL     1       2.251   3.121  21.269  0.00  0.00    +0.000 A 
ATOM     10  C   UNL     1       2.054   4.504  21.189  0.00  0.00    +0.000 A 
ATOM     11  C   UNL     1       2.441   5.140  20.027  0.00  0.00    +0.000 A 
ATOM     12  H   UNL     1       2.913   8.512  18.331  0.00  0.00    +0.000 HD
ENDROOT
BRANCH   5  13
ATOM     13  C   UNL     1       3.928   5.025  16.686  0.00  0.00    +0.000 C 
BRANCH  13  14
ATOM     14  C   UNL     1       5.370   4.587  16.915  0.00  0.00    +0.000 C 
ATOM     15  O   UNL     1       5.717   3.414  16.757  0.00  0.00    +0.000 OA
BRANCH  14  16
ATOM     16  C   UNL     1       6.391   5.566  17.388  0.00  0.00    +0.000 A 
ATOM     17  C   UNL     1       6.535   6.823  16.793  0.00  0.00    +0.000 A 
ATOM     18  C   UNL     1       7.410   7.762  17.350  0.00  0.00    +0.000 A 
ATOM     19  C   UNL     1       8.145   7.439  18.483  0.00  0.00    +0.000 A 
ATOM     20  F   UNL     1       8.961   8.354  19.022  0.00  0.00    +0.000 F 
ATOM     21  C   UNL     1       8.031   6.188  19.074  0.00  0.00    +0.000 A 
ATOM     22  C   UNL     1       7.151   5.248  18.530  0.00  0.00    +0.000 A 
ENDBRANCH  14  16
ENDBRANCH  13  14
ENDBRANCH   5  13
TORSDOF 3
ENDMDL
