MODEL 1
REMARK VINA RESULT:      -7.6      0.000      0.000
REMARK  Name = 
REMARK  8 active torsions:
REMARK  status: ('A' for Active; 'I' for Inactive)
REMARK    1  A    between atoms: C_1  and  O_2
REMARK    2  A    between atoms: O_2  and  C_3
REMARK    3  A    between atoms: C_6  and  C_7
REMARK    4  A    between atoms: C_7  and  N_8
REMARK    5  A    between atoms: N_11  and  C_12
REMARK    6  A    between atoms: C_12  and  C_13
REMARK    7  A    between atoms: C_13  and  C_14
REMARK    8  A    between atoms: C_14  and  C_15
REMARK                            x       y       z     vdW  Elec       q    Type
REMARK                         _______ _______ _______ _____ _____    ______ ____
ROOT
ATOM      1  N   UNL     1       5.778   6.408  16.699  0.00  0.00    +0.000 N 
ATOM      2  C   UNL     1       7.022   6.609  17.242  0.00  0.00    +0.000 C 
ATOM      3  O   UNL     1       7.805   5.713  17.525  0.00  0.00    +0.000 OA
ATOM      4  N   UNL     1       7.269   7.942  17.449  0.00  0.00    +0.000 N 
ATOM      5  H   UNL     1       5.458   7.138  16.082  0.00  0.00    +0.000 HD
ATOM      6  H   UNL     1       6.457   8.539  17.508  0.00  0.00    +0.000 HD
ENDROOT
BRANCH   1   7
ATOM      7  C   UNL     1       5.365   5.062  16.361  0.00  0.00    +0.000 C 
BRANCH   7  11
ATOM      8  C   UNL     1       1.882   3.715  18.557  0.00  0.00    +0.000 A 
ATOM      9  C   UNL     1       2.668   2.815  17.837  0.00  0.00    +0.000 A 
ATOM     10  C   UNL     1       3.782   3.259  17.118  0.00  0.00    +0.000 A 
ATOM     11  C   UNL     1       4.116   4.620  17.085  0.00  0.00    +0.000 A 
ATOM     12  C   UNL     1       3.321   5.517  17.815  0.00  0.00    +0.000 A 
ATOM     13  C   UNL     1       2.207   5.069  18.538  0.00  0.00    +0.000 A 
BRANCH   8  15
ATOM     14  C   UNL     1       1.069   2.705  20.538  0.00  0.00    +0.000 C 
ATOM     15  O   UNL     1       0.818   3.160  19.213  0.00  0.00    +0.000 OA
ENDBRANCH   8  15
ENDBRANCH   7  11
ENDBRANCH   1   7
BRANCH   4  16
ATOM     16  C   UNL     1       8.480   8.380  18.120  0.00  0.00    +0.000 C 
BRANCH  16  17
ATOM     17  C   UNL     1       8.579   9.903  18.171  0.00  0.00    +0.000 C 
BRANCH  17  18
ATOM     18  C   UNL     1       9.371  10.362  19.398  0.00  0.00    +0.000 C 
BRANCH  18  19
ATOM     19  C   UNL     1      10.399  11.409  19.051  0.00  0.00    +0.000 A 
ATOM     20  C   UNL     1      10.507  11.893  17.740  0.00  0.00    +0.000 A 
ATOM     21  C   UNL     1      11.469  12.853  17.416  0.00  0.00    +0.000 A 
ATOM     22  C   UNL     1      12.333  13.335  18.398  0.00  0.00    +0.000 A 
ATOM     23  C   UNL     1      12.238  12.856  19.703  0.00  0.00    +0.000 A 
ATOM     24  C   UNL     1      11.278  11.895  20.028  0.00  0.00    +0.000 A 
ENDBRANCH  18  19
ENDBRANCH  17  18
ENDBRANCH  16  17
ENDBRANCH   4  16
TORSDOF 7
ENDMDL
MODEL 2
REMARK VINA RESULT:      -7.4      2.096      9.806
REMARK  Name = 
REMARK  8 active torsions:
REMARK  status: ('A' for Active; 'I' for Inactive)
REMARK    1  A    between atoms: C_1  and  O_2
REMARK    2  A    between atoms: O_2  and  C_3
REMARK    3  A    between atoms: C_6  and  C_7
REMARK    4  A    between atoms: C_7  and  N_8
REMARK    5  A    between atoms: N_11  and  C_12
REMARK    6  A    between atoms: C_12  and  C_13
REMARK    7  A    between atoms: C_13  and  C_14
REMARK    8  A    between atoms: C_14  and  C_15
REMARK                            x       y       z     vdW  Elec       q    Type
REMARK                         _______ _______ _______ _____ _____    ______ ____
ROOT
ATOM      1  N   UNL     1       7.403   8.166  17.502  0.00  0.00    +0.000 N 
ATOM      2  C   UNL     1       7.107   6.870  17.166  0.00  0.00    +0.000 C 
ATOM      3  O   UNL     1       7.759   5.898  17.522  0.00  0.00    +0.000 OA
ATOM      4  N   UNL     1       6.000   6.801  16.358  0.00  0.00    +0.000 N 
ATOM      5  H   UNL     1       6.605   8.777  17.594  0.00  0.00    +0.000 HD
ATOM      6  H   UNL     1       5.762   7.646  15.860  0.00  0.00    +0.000 HD
ENDROOT
BRANCH   1   7
ATOM      7  C   UNL     1       8.511   8.428  18.396  0.00  0.00    +0.000 C 
BRANCH   7  11
ATOM      8  C   UNL     1       9.468  12.619  18.934  0.00  0.00    +0.000 A 
ATOM      9  C   UNL     1       9.829  11.672  19.893  0.00  0.00    +0.000 A 
ATOM     10  C   UNL     1       9.503  10.324  19.720  0.00  0.00    +0.000 A 
ATOM     11  C   UNL     1       8.786   9.900  18.592  0.00  0.00    +0.000 A 
ATOM     12  C   UNL     1       8.430  10.860  17.633  0.00  0.00    +0.000 A 
ATOM     13  C   UNL     1       8.759  12.210  17.807  0.00  0.00    +0.000 A 
BRANCH   8  15
ATOM     14  C   UNL     1      10.925  14.425  18.465  0.00  0.00    +0.000 C 
ATOM     15  O   UNL     1       9.836  13.904  19.220  0.00  0.00    +0.000 OA
ENDBRANCH   8  15
ENDBRANCH   7  11
ENDBRANCH   1   7
BRANCH   4  16
ATOM     16  C   UNL     1       5.571   5.537  15.787  0.00  0.00    +0.000 C 
BRANCH  16  17
ATOM     17  C   UNL     1       4.567   4.821  16.687  0.00  0.00    +0.000 C 
BRANCH  17  18
ATOM     18  C   UNL     1       3.745   5.823  17.502  0.00  0.00    +0.000 C 
BRANCH  18  19
ATOM     19  C   UNL     1       2.761   5.139  18.417  0.00  0.00    +0.000 A 
ATOM     20  C   UNL     1       2.548   5.616  19.718  0.00  0.00    +0.000 A 
ATOM     21  C   UNL     1       1.647   4.973  20.570  0.00  0.00    +0.000 A 
ATOM     22  C   UNL     1       0.954   3.847  20.131  0.00  0.00    +0.000 A 
ATOM     23  C   UNL     1       1.162   3.361  18.841  0.00  0.00    +0.000 A 
ATOM     24  C   UNL     1       2.063   4.002  17.989  0.00  0.00    +0.000 A 
ENDBRANCH  18  19
ENDBRANCH  17  18
ENDBRANCH  16  17
ENDBRANCH   4  16
TORSDOF 7
ENDMDL
MODEL 3
REMARK VINA RESULT:      -7.4      0.882      1.368
REMARK  Name = 
REMARK  8 active torsions:
REMARK  status: ('A' for Active; 'I' for Inactive)
REMARK    1  A    between atoms: C_1  and  O_2
REMARK    2  A    between atoms: O_2  and  C_3
REMARK    3  A    between atoms: C_6  and  C_7
REMARK    4  A    between atoms: C_7  and  N_8
REMARK    5  A    between atoms: N_11  and  C_12
REMARK    6  A    between atoms: C_12  and  C_13
REMARK    7  A    between atoms: C_13  and  C_14
REMARK    8  A    between atoms: C_14  and  C_15
REMARK                            x       y       z     vdW  Elec       q    Type
REMARK                         _______ _______ _______ _____ _____    ______ ____
ROOT
ATOM      1  N   UNL     1       5.209   6.371  17.058  0.00  0.00    +0.000 N 
ATOM      2  C   UNL     1       6.531   6.671  16.849  0.00  0.00    +0.000 C 
ATOM      3  O   UNL     1       7.312   5.958  16.234  0.00  0.00    +0.000 OA
ATOM      4  N   UNL     1       6.875   7.860  17.439  0.00  0.00    +0.000 N 
ATOM      5  H   UNL     1       4.593   7.167  17.110  0.00  0.00    +0.000 HD
ATOM      6  H   UNL     1       6.273   8.174  18.186  0.00  0.00    +0.000 HD
ENDROOT
BRANCH   1   7
ATOM      7  C   UNL     1       4.654   5.174  16.461  0.00  0.00    +0.000 C 
BRANCH   7  11
ATOM      8  C   UNL     1       2.180   2.988  19.265  0.00  0.00    +0.000 A 
ATOM      9  C   UNL     1       3.374   2.447  18.789  0.00  0.00    +0.000 A 
ATOM     10  C   UNL     1       4.159   3.151  17.872  0.00  0.00    +0.000 A 
ATOM     11  C   UNL     1       3.751   4.404  17.394  0.00  0.00    +0.000 A 
ATOM     12  C   UNL     1       2.550   4.941  17.881  0.00  0.00    +0.000 A 
ATOM     13  C   UNL     1       1.765   4.235  18.802  0.00  0.00    +0.000 A 
BRANCH   8  15
ATOM     14  C   UNL     1       1.408   2.695  21.484  0.00  0.00    +0.000 C 
ATOM     15  O   UNL     1       1.498   2.201  20.152  0.00  0.00    +0.000 OA
ENDBRANCH   8  15
ENDBRANCH   7  11
ENDBRANCH   1   7
BRANCH   4  16
ATOM     16  C   UNL     1       8.252   8.320  17.444  0.00  0.00    +0.000 C 
BRANCH  16  17
ATOM     17  C   UNL     1       8.508   9.331  18.558  0.00  0.00    +0.000 C 
BRANCH  17  18
ATOM     18  C   UNL     1       8.751  10.730  17.987  0.00  0.00    +0.000 C 
BRANCH  18  19
ATOM     19  C   UNL     1      10.008  11.357  18.537  0.00  0.00    +0.000 A 
ATOM     20  C   UNL     1      10.231  11.411  19.919  0.00  0.00    +0.000 A 
ATOM     21  C   UNL     1      11.389  12.004  20.428  0.00  0.00    +0.000 A 
ATOM     22  C   UNL     1      12.332  12.550  19.561  0.00  0.00    +0.000 A 
ATOM     23  C   UNL     1      12.118  12.506  18.184  0.00  0.00    +0.000 A 
ATOM     24  C   UNL     1      10.961  11.915  17.675  0.00  0.00    +0.000 A 
ENDBRANCH  18  19
ENDBRANCH  17  18
ENDBRANCH  16  17
ENDBRANCH   4  16
TORSDOF 7
ENDMDL
MODEL 4
REMARK VINA RESULT:      -7.3      2.388     10.300
REMARK  Name = 
REMARK  8 active torsions:
REMARK  status: ('A' for Active; 'I' for Inactive)
REMARK    1  A    between atoms: C_1  and  O_2
REMARK    2  A    between atoms: O_2  and  C_3
REMARK    3  A    between atoms: C_6  and  C_7
REMARK    4  A    between atoms: C_7  and  N_8
REMARK    5  A    between atoms: N_11  and  C_12
REMARK    6  A    between atoms: C_12  and  C_13
REMARK    7  A    between atoms: C_13  and  C_14
REMARK    8  A    between atoms: C_14  and  C_15
REMARK                            x       y       z     vdW  Elec       q    Type
REMARK                         _______ _______ _______ _____ _____    ______ ____
ROOT
ATOM      1  N   UNL     1       7.999   9.060  17.829  0.00  0.00    +0.000 N 
ATOM      2  C   UNL     1       7.653   7.733  17.851  0.00  0.00    +0.000 C 
ATOM      3  O   UNL     1       8.145   6.904  18.604  0.00  0.00    +0.000 OA
ATOM      4  N   UNL     1       6.703   7.446  16.905  0.00  0.00    +0.000 N 
ATOM      5  H   UNL     1       7.255   9.691  17.576  0.00  0.00    +0.000 HD
ATOM      6  H   UNL     1       6.631   8.098  16.138  0.00  0.00    +0.000 HD
ENDROOT
BRANCH   1   7
ATOM      7  C   UNL     1       8.953   9.557  18.798  0.00  0.00    +0.000 C 
BRANCH   7  11
ATOM      8  C   UNL     1      10.632  13.386  17.663  0.00  0.00    +0.000 A 
ATOM      9  C   UNL     1      11.426  12.399  18.247  0.00  0.00    +0.000 A 
ATOM     10  C   UNL     1      10.874  11.172  18.626  0.00  0.00    +0.000 A 
ATOM     11  C   UNL     1       9.507  10.917  18.448  0.00  0.00    +0.000 A 
ATOM     12  C   UNL     1       8.717  11.914  17.857  0.00  0.00    +0.000 A 
ATOM     13  C   UNL     1       9.273  13.143  17.475  0.00  0.00    +0.000 A 
BRANCH   8  15
ATOM     14  C   UNL     1      11.890  15.239  18.428  0.00  0.00    +0.000 C 
ATOM     15  O   UNL     1      11.285  14.544  17.343  0.00  0.00    +0.000 OA
ENDBRANCH   8  15
ENDBRANCH   7  11
ENDBRANCH   1   7
BRANCH   4  16
ATOM     16  C   UNL     1       6.270   6.080  16.672  0.00  0.00    +0.000 C 
BRANCH  16  17
ATOM     17  C   UNL     1       4.821   5.864  17.100  0.00  0.00    +0.000 C 
BRANCH  17  18
ATOM     18  C   UNL     1       4.568   4.400  17.469  0.00  0.00    +0.000 C 
BRANCH  18  19
ATOM     19  C   UNL     1       3.359   4.239  18.356  0.00  0.00    +0.000 A 
ATOM     20  C   UNL     1       2.273   3.456  17.943  0.00  0.00    +0.000 A 
ATOM     21  C   UNL     1       1.148   3.318  18.760  0.00  0.00    +0.000 A 
ATOM     22  C   UNL     1       1.097   3.964  19.993  0.00  0.00    +0.000 A 
ATOM     23  C   UNL     1       2.170   4.750  20.410  0.00  0.00    +0.000 A 
ATOM     24  C   UNL     1       3.294   4.889  19.595  0.00  0.00    +0.000 A 
ENDBRANCH  18  19
ENDBRANCH  17  18
ENDBRANCH  16  17
ENDBRANCH   4  16
TORSDOF 7
ENDMDL
MODEL 5
REMARK VINA RESULT:      -7.3      2.449     10.472
REMARK  Name = 
REMARK  8 active torsions:
REMARK  status: ('A' for Active; 'I' for Inactive)
REMARK    1  A    between atoms: C_1  and  O_2
REMARK    2  A    between atoms: O_2  and  C_3
REMARK    3  A    between atoms: C_6  and  C_7
REMARK    4  A    between atoms: C_7  and  N_8
REMARK    5  A    between atoms: N_11  and  C_12
REMARK    6  A    between atoms: C_12  and  C_13
REMARK    7  A    between atoms: C_13  and  C_14
REMARK    8  A    between atoms: C_14  and  C_15
REMARK                            x       y       z     vdW  Elec       q    Type
REMARK                         _______ _______ _______ _____ _____    ______ ____
ROOT
ATOM      1  N   UNL     1       8.107   9.197  17.770  0.00  0.00    +0.000 N 
ATOM      2  C   UNL     1       7.805   7.865  17.892  0.00  0.00    +0.000 C 
ATOM      3  O   UNL     1       8.314   7.114  18.712  0.00  0.00    +0.000 OA
ATOM      4  N   UNL     1       6.877   7.473  16.961  0.00  0.00    +0.000 N 
ATOM      5  H   UNL     1       7.346   9.782  17.461  0.00  0.00    +0.000 HD
ATOM      6  H   UNL     1       6.793   8.061  16.145  0.00  0.00    +0.000 HD
ENDROOT
BRANCH   1   7
ATOM      7  C   UNL     1       9.032   9.800  18.707  0.00  0.00    +0.000 C 
BRANCH   7  11
ATOM      8  C   UNL     1      10.736  13.566  17.410  0.00  0.00    +0.000 A 
ATOM      9  C   UNL     1       9.356  13.413  17.547  0.00  0.00    +0.000 A 
ATOM     10  C   UNL     1       8.812  12.190  17.950  0.00  0.00    +0.000 A 
ATOM     11  C   UNL     1       9.641  11.087  18.202  0.00  0.00    +0.000 A 
ATOM     12  C   UNL     1      11.027  11.252  18.065  0.00  0.00    +0.000 A 
ATOM     13  C   UNL     1      11.570  12.480  17.663  0.00  0.00    +0.000 A 
BRANCH   8  15
ATOM     14  C   UNL     1      12.038  15.487  17.877  0.00  0.00    +0.000 C 
ATOM     15  O   UNL     1      11.145  14.806  17.003  0.00  0.00    +0.000 OA
ENDBRANCH   8  15
ENDBRANCH   7  11
ENDBRANCH   1   7
BRANCH   4  16
ATOM     16  C   UNL     1       6.493   6.079  16.832  0.00  0.00    +0.000 C 
BRANCH  16  17
ATOM     17  C   UNL     1       5.272   5.747  17.686  0.00  0.00    +0.000 C 
BRANCH  17  18
ATOM     18  C   UNL     1       4.547   4.509  17.152  0.00  0.00    +0.000 C 
BRANCH  18  19
ATOM     19  C   UNL     1       3.446   4.053  18.076  0.00  0.00    +0.000 A 
ATOM     20  C   UNL     1       2.185   3.715  17.569  0.00  0.00    +0.000 A 
ATOM     21  C   UNL     1       1.162   3.306  18.428  0.00  0.00    +0.000 A 
ATOM     22  C   UNL     1       1.389   3.234  19.800  0.00  0.00    +0.000 A 
ATOM     23  C   UNL     1       2.639   3.574  20.316  0.00  0.00    +0.000 A 
ATOM     24  C   UNL     1       3.662   3.984  19.459  0.00  0.00    +0.000 A 
ENDBRANCH  18  19
ENDBRANCH  17  18
ENDBRANCH  16  17
ENDBRANCH   4  16
TORSDOF 7
ENDMDL
MODEL 6
REMARK VINA RESULT:      -7.2      2.264     10.233
REMARK  Name = 
REMARK  8 active torsions:
REMARK  status: ('A' for Active; 'I' for Inactive)
REMARK    1  A    between atoms: C_1  and  O_2
REMARK    2  A    between atoms: O_2  and  C_3
REMARK    3  A    between atoms: C_6  and  C_7
REMARK    4  A    between atoms: C_7  and  N_8
REMARK    5  A    between atoms: N_11  and  C_12
REMARK    6  A    between atoms: C_12  and  C_13
REMARK    7  A    between atoms: C_13  and  C_14
REMARK    8  A    between atoms: C_14  and  C_15
REMARK                            x       y       z     vdW  Elec       q    Type
REMARK                         _______ _______ _______ _____ _____    ______ ____
ROOT
ATOM      1  N   UNL     1       7.860   8.476  17.554  0.00  0.00    +0.000 N 
ATOM      2  C   UNL     1       7.539   7.142  17.540  0.00  0.00    +0.000 C 
ATOM      3  O   UNL     1       7.889   6.339  18.394  0.00  0.00    +0.000 OA
ATOM      4  N   UNL     1       6.796   6.817  16.434  0.00  0.00    +0.000 N 
ATOM      5  H   UNL     1       7.168   9.086  17.146  0.00  0.00    +0.000 HD
ATOM      6  H   UNL     1       6.864   7.452  15.653  0.00  0.00    +0.000 HD
ENDROOT
BRANCH   1   7
ATOM      7  C   UNL     1       8.598   9.013  18.679  0.00  0.00    +0.000 C 
BRANCH   7  11
ATOM      8  C   UNL     1       9.762  13.155  18.177  0.00  0.00    +0.000 A 
ATOM      9  C   UNL     1       8.627  12.648  17.545  0.00  0.00    +0.000 A 
ATOM     10  C   UNL     1       8.266  11.306  17.699  0.00  0.00    +0.000 A 
ATOM     11  C   UNL     1       9.051  10.438  18.470  0.00  0.00    +0.000 A 
ATOM     12  C   UNL     1      10.189  10.958  19.104  0.00  0.00    +0.000 A 
ATOM     13  C   UNL     1      10.548  12.304  18.951  0.00  0.00    +0.000 A 
BRANCH   8  15
ATOM     14  C   UNL     1      11.093  15.048  18.677  0.00  0.00    +0.000 C 
ATOM     15  O   UNL     1      10.014  14.479  17.944  0.00  0.00    +0.000 OA
ENDBRANCH   8  15
ENDBRANCH   7  11
ENDBRANCH   1   7
BRANCH   4  16
ATOM     16  C   UNL     1       6.441   5.437  16.154  0.00  0.00    +0.000 C 
BRANCH  16  17
ATOM     17  C   UNL     1       5.021   5.114  16.613  0.00  0.00    +0.000 C 
BRANCH  17  18
ATOM     18  C   UNL     1       5.031   4.092  17.752  0.00  0.00    +0.000 C 
BRANCH  18  19
ATOM     19  C   UNL     1       3.646   3.586  18.072  0.00  0.00    +0.000 A 
ATOM     20  C   UNL     1       3.462   2.301  18.599  0.00  0.00    +0.000 A 
ATOM     21  C   UNL     1       2.178   1.829  18.883  0.00  0.00    +0.000 A 
ATOM     22  C   UNL     1       1.068   2.634  18.638  0.00  0.00    +0.000 A 
ATOM     23  C   UNL     1       1.240   3.912  18.109  0.00  0.00    +0.000 A 
ATOM     24  C   UNL     1       2.522   4.385  17.824  0.00  0.00    +0.000 A 
ENDBRANCH  18  19
ENDBRANCH  17  18
ENDBRANCH  16  17
ENDBRANCH   4  16
TORSDOF 7
ENDMDL
MODEL 7
REMARK VINA RESULT:      -7.2      2.544     10.100
REMARK  Name = 
REMARK  8 active torsions:
REMARK  status: ('A' for Active; 'I' for Inactive)
REMARK    1  A    between atoms: C_1  and  O_2
REMARK    2  A    between atoms: O_2  and  C_3
REMARK    3  A    between atoms: C_6  and  C_7
REMARK    4  A    between atoms: C_7  and  N_8
REMARK    5  A    between atoms: N_11  and  C_12
REMARK    6  A    between atoms: C_12  and  C_13
REMARK    7  A    between atoms: C_13  and  C_14
REMARK    8  A    between atoms: C_14  and  C_15
REMARK                            x       y       z     vdW  Elec       q    Type
REMARK                         _______ _______ _______ _____ _____    ______ ____
ROOT
ATOM      1  N   UNL     1       8.436   8.588  18.418  0.00  0.00    +0.000 N 
ATOM      2  C   UNL     1       7.783   7.505  17.887  0.00  0.00    +0.000 C 
ATOM      3  O   UNL     1       7.148   7.527  16.841  0.00  0.00    +0.000 OA
ATOM      4  N   UNL     1       7.910   6.399  18.688  0.00  0.00    +0.000 N 
ATOM      5  H   UNL     1       9.271   8.369  18.940  0.00  0.00    +0.000 HD
ATOM      6  H   UNL     1       8.142   6.577  19.654  0.00  0.00    +0.000 HD
ENDROOT
BRANCH   1   7
ATOM      7  C   UNL     1       8.455   9.833  17.679  0.00  0.00    +0.000 C 
BRANCH   7  11
ATOM      8  C   UNL     1      10.362  13.028  19.898  0.00  0.00    +0.000 A 
ATOM      9  C   UNL     1      10.100  11.796  20.498  0.00  0.00    +0.000 A 
ATOM     10  C   UNL     1       9.470  10.775  19.781  0.00  0.00    +0.000 A 
ATOM     11  C   UNL     1       9.067  10.977  18.453  0.00  0.00    +0.000 A 
ATOM     12  C   UNL     1       9.339  12.218  17.858  0.00  0.00    +0.000 A 
ATOM     13  C   UNL     1       9.972  13.240  18.578  0.00  0.00    +0.000 A 
BRANCH   8  15
ATOM     14  C   UNL     1      10.164  14.529  21.718  0.00  0.00    +0.000 C 
ATOM     15  O   UNL     1      10.975  13.947  20.704  0.00  0.00    +0.000 OA
ENDBRANCH   8  15
ENDBRANCH   7  11
ENDBRANCH   1   7
BRANCH   4  16
ATOM     16  C   UNL     1       7.203   5.169  18.379  0.00  0.00    +0.000 C 
BRANCH  16  17
ATOM     17  C   UNL     1       5.903   5.048  19.170  0.00  0.00    +0.000 C 
BRANCH  17  18
ATOM     18  C   UNL     1       4.698   5.435  18.310  0.00  0.00    +0.000 C 
BRANCH  18  19
ATOM     19  C   UNL     1       3.630   4.369  18.319  0.00  0.00    +0.000 A 
ATOM     20  C   UNL     1       2.299   4.693  18.024  0.00  0.00    +0.000 A 
ATOM     21  C   UNL     1       1.309   3.708  18.045  0.00  0.00    +0.000 A 
ATOM     22  C   UNL     1       1.639   2.392  18.365  0.00  0.00    +0.000 A 
ATOM     23  C   UNL     1       2.959   2.061  18.665  0.00  0.00    +0.000 A 
ATOM     24  C   UNL     1       3.950   3.045  18.645  0.00  0.00    +0.000 A 
ENDBRANCH  18  19
ENDBRANCH  17  18
ENDBRANCH  16  17
ENDBRANCH   4  16
TORSDOF 7
ENDMDL
MODEL 8
REMARK VINA RESULT:      -7.1      2.425     10.339
REMARK  Name = 
REMARK  8 active torsions:
REMARK  status: ('A' for Active; 'I' for Inactive)
REMARK    1  A    between atoms: C_1  and  O_2
REMARK    2  A    between atoms: O_2  and  C_3
REMARK    3  A    between atoms: C_6  and  C_7
REMARK    4  A    between atoms: C_7  and  N_8
REMARK    5  A    between atoms: N_11  and  C_12
REMARK    6  A    between atoms: C_12  and  C_13
REMARK    7  A    between atoms: C_13  and  C_14
REMARK    8  A    between atoms: C_14  and  C_15
REMARK                            x       y       z     vdW  Elec       q    Type
REMARK                         _______ _______ _______ _____ _____    ______ ____
ROOT
ATOM      1  N   UNL     1       8.166   9.186  17.961  0.00  0.00    +0.000 N 
ATOM      2  C   UNL     1       7.908   7.839  17.930  0.00  0.00    +0.000 C 
ATOM      3  O   UNL     1       8.396   7.024  18.701  0.00  0.00    +0.000 OA
ATOM      4  N   UNL     1       7.051   7.516  16.909  0.00  0.00    +0.000 N 
ATOM      5  H   UNL     1       7.402   9.774  17.666  0.00  0.00    +0.000 HD
ATOM      6  H   UNL     1       6.992   8.181  16.153  0.00  0.00    +0.000 HD
ENDROOT
BRANCH   1   7
ATOM      7  C   UNL     1       9.011   9.719  19.009  0.00  0.00    +0.000 C 
BRANCH   7  11
ATOM      8  C   UNL     1      10.899  13.456  17.897  0.00  0.00    +0.000 A 
ATOM      9  C   UNL     1      11.565  12.526  18.695  0.00  0.00    +0.000 A 
ATOM     10  C   UNL     1      10.943  11.329  19.064  0.00  0.00    +0.000 A 
ATOM     11  C   UNL     1       9.630  11.050  18.659  0.00  0.00    +0.000 A 
ATOM     12  C   UNL     1       8.970  11.990  17.853  0.00  0.00    +0.000 A 
ATOM     13  C   UNL     1       9.596  13.188  17.483  0.00  0.00    +0.000 A 
BRANCH   8  15
ATOM     14  C   UNL     1      10.893  15.620  16.938  0.00  0.00    +0.000 C 
ATOM     15  O   UNL     1      11.608  14.589  17.611  0.00  0.00    +0.000 OA
ENDBRANCH   8  15
ENDBRANCH   7  11
ENDBRANCH   1   7
BRANCH   4  16
ATOM     16  C   UNL     1       6.728   6.131  16.617  0.00  0.00    +0.000 C 
BRANCH  16  17
ATOM     17  C   UNL     1       5.939   5.482  17.751  0.00  0.00    +0.000 C 
BRANCH  17  18
ATOM     18  C   UNL     1       4.463   5.885  17.697  0.00  0.00    +0.000 C 
BRANCH  18  19
ATOM     19  C   UNL     1       3.547   4.730  18.016  0.00  0.00    +0.000 A 
ATOM     20  C   UNL     1       2.171   4.824  17.772  0.00  0.00    +0.000 A 
ATOM     21  C   UNL     1       1.321   3.759  18.080  0.00  0.00    +0.000 A 
ATOM     22  C   UNL     1       1.839   2.592  18.637  0.00  0.00    +0.000 A 
ATOM     23  C   UNL     1       3.207   2.489  18.889  0.00  0.00    +0.000 A 
ATOM     24  C   UNL     1       4.056   3.554  18.582  0.00  0.00    +0.000 A 
ENDBRANCH  18  19
ENDBRANCH  17  18
ENDBRANCH  16  17
ENDBRANCH   4  16
TORSDOF 7
ENDMDL
MODEL 9
REMARK VINA RESULT:      -7.1      3.131      8.265
REMARK  Name = 
REMARK  8 active torsions:
REMARK  status: ('A' for Active; 'I' for Inactive)
REMARK    1  A    between atoms: C_1  and  O_2
REMARK    2  A    between atoms: O_2  and  C_3
REMARK    3  A    between atoms: C_6  and  C_7
REMARK    4  A    between atoms: C_7  and  N_8
REMARK    5  A    between atoms: N_11  and  C_12
REMARK    6  A    between atoms: C_12  and  C_13
REMARK    7  A    between atoms: C_13  and  C_14
REMARK    8  A    between atoms: C_14  and  C_15
REMARK                            x       y       z     vdW  Elec       q    Type
REMARK                         _______ _______ _______ _____ _____    ______ ____
ROOT
ATOM      1  N   UNL     1       4.565   3.019  17.870  0.00  0.00    +0.000 N 
ATOM      2  C   UNL     1       3.198   2.925  17.797  0.00  0.00    +0.000 C 
ATOM      3  O   UNL     1       2.519   3.427  16.912  0.00  0.00    +0.000 OA
ATOM      4  N   UNL     1       2.686   2.218  18.855  0.00  0.00    +0.000 N 
ATOM      5  H   UNL     1       5.026   2.224  18.287  0.00  0.00    +0.000 HD
ATOM      6  H   UNL     1       3.274   2.158  19.673  0.00  0.00    +0.000 HD
ENDROOT
BRANCH   1   7
ATOM      7  C   UNL     1       5.285   3.686  16.806  0.00  0.00    +0.000 C 
BRANCH   7  11
ATOM      8  C   UNL     1       7.781   6.927  18.231  0.00  0.00    +0.000 A 
ATOM      9  C   UNL     1       7.232   6.956  16.949  0.00  0.00    +0.000 A 
ATOM     10  C   UNL     1       6.441   5.899  16.490  0.00  0.00    +0.000 A 
ATOM     11  C   UNL     1       6.203   4.779  17.300  0.00  0.00    +0.000 A 
ATOM     12  C   UNL     1       6.757   4.762  18.589  0.00  0.00    +0.000 A 
ATOM     13  C   UNL     1       7.548   5.823  19.048  0.00  0.00    +0.000 A 
BRANCH   8  15
ATOM     14  C   UNL     1       8.180   9.242  17.939  0.00  0.00    +0.000 C 
ATOM     15  O   UNL     1       8.542   8.015  18.561  0.00  0.00    +0.000 OA
ENDBRANCH   8  15
ENDBRANCH   7  11
ENDBRANCH   1   7
BRANCH   4  16
ATOM     16  C   UNL     1       1.252   2.091  19.043  0.00  0.00    +0.000 C 
BRANCH  16  17
ATOM     17  C   UNL     1       0.676   3.274  19.817  0.00  0.00    +0.000 C 
BRANCH  17  18
ATOM     18  C   UNL     1       1.771   4.011  20.592  0.00  0.00    +0.000 C 
BRANCH  18  19
ATOM     19  C   UNL     1       1.825   5.477  20.240  0.00  0.00    +0.000 A 
ATOM     20  C   UNL     1       2.461   5.905  19.067  0.00  0.00    +0.000 A 
ATOM     21  C   UNL     1       2.523   7.264  18.750  0.00  0.00    +0.000 A 
ATOM     22  C   UNL     1       1.952   8.207  19.603  0.00  0.00    +0.000 A 
ATOM     23  C   UNL     1       1.322   7.792  20.774  0.00  0.00    +0.000 A 
ATOM     24  C   UNL     1       1.261   6.434  21.094  0.00  0.00    +0.000 A 
ENDBRANCH  18  19
ENDBRANCH  17  18
ENDBRANCH  16  17
ENDBRANCH   4  16
TORSDOF 7
ENDMDL
