MODEL 1
REMARK VINA RESULT:      -7.2      0.000      0.000
REMARK  Name = 
REMARK  9 active torsions:
REMARK  status: ('A' for Active; 'I' for Inactive)
REMARK    1  A    between atoms: C_1  and  C_2
REMARK    2  A    between atoms: C_2  and  O_3
REMARK    3  A    between atoms: O_3  and  C_4
REMARK    4  A    between atoms: C_4  and  C_6
REMARK    5  A    between atoms: C_6  and  C_7
REMARK    6  A    between atoms: C_7  and  N_8
REMARK    7  A    between atoms: C_7  and  C_13
REMARK    8  A    between atoms: C_9  and  O_11
REMARK    9  A    between atoms: O_11  and  C_12
REMARK                            x       y       z     vdW  Elec       q    Type
REMARK                         _______ _______ _______ _____ _____    ______ ____
ROOT
ATOM      1  C   UNL     1       4.102   3.247  18.643  0.00  0.00    +0.000 C 
ENDROOT
BRANCH   1   2
ATOM      2  C   UNL     1       5.042   3.857  17.604  0.00  0.00    +0.000 A 
ATOM      3  C   UNL     1       6.289   4.373  18.015  0.00  0.00    +0.000 A 
ATOM      4  C   UNL     1       7.199   4.897  17.096  0.00  0.00    +0.000 A 
ATOM      5  C   UNL     1       6.870   4.944  15.744  0.00  0.00    +0.000 A 
ATOM      6  C   UNL     1       5.630   4.472  15.332  0.00  0.00    +0.000 A 
ATOM      7  F   UNL     1       5.304   4.530  14.034  0.00  0.00    +0.000 F 
ATOM      8  C   UNL     1       4.720   3.931  16.241  0.00  0.00    +0.000 A 
ENDBRANCH   1   2
BRANCH   1   9
ATOM      9  C   UNL     1       2.826   4.079  18.984  0.00  0.00    +0.000 C 
ATOM     10  C   UNL     1       1.622   3.937  18.029  0.00  0.00    +0.000 C 
ATOM     11  C   UNL     1       0.766   2.793  18.546  0.00  0.00    +0.000 C 
ATOM     12  C   UNL     1       0.936   2.801  20.053  0.00  0.00    +0.000 C 
ATOM     13  C   UNL     1       2.192   3.607  20.275  0.00  0.00    +0.000 C 
ATOM     14  O   UNL     1       2.646   3.799  21.398  0.00  0.00    +0.000 OA
BRANCH   9  15
ATOM     15  C   UNL     1       3.263   5.531  18.988  0.00  0.00    +0.000 C 
ATOM     16  O   UNL     1       4.062   5.981  19.805  0.00  0.00    +0.000 OA
BRANCH  15  17
ATOM     17  O   UNL     1       2.555   6.289  18.115  0.00  0.00    +0.000 OA
BRANCH  17  19
ATOM     18  C   UNL     1       1.979   8.594  17.807  0.00  0.00    +0.000 C 
ATOM     19  C   UNL     1       3.106   7.576  17.802  0.00  0.00    +0.000 C 
ENDBRANCH  17  19
ENDBRANCH  15  17
ENDBRANCH   9  15
ENDBRANCH   1   9
BRANCH   1  20
ATOM     20  N   UNL     1       4.827   2.860  19.852  0.00  0.00    +0.000 N 
ATOM     21  C   UNL     1       5.020   1.561  20.225  0.00  0.00    +0.000 C 
ATOM     22  O   UNL     1       4.769   0.579  19.548  0.00  0.00    +0.000 OA
ATOM     23  H   UNL     1       4.960   3.515  20.613  0.00  0.00    +0.000 HD
BRANCH  21  24
ATOM     24  O   UNL     1       5.463   1.552  21.506  0.00  0.00    +0.000 OA
ATOM     25  C   UNL     1       5.936   0.284  21.970  0.00  0.00    +0.000 C 
ENDBRANCH  21  24
ENDBRANCH   1  20
TORSDOF 7
ENDMDL
MODEL 2
REMARK VINA RESULT:      -7.1      1.038      1.427
REMARK  Name = 
REMARK  9 active torsions:
REMARK  status: ('A' for Active; 'I' for Inactive)
REMARK    1  A    between atoms: C_1  and  C_2
REMARK    2  A    between atoms: C_2  and  O_3
REMARK    3  A    between atoms: O_3  and  C_4
REMARK    4  A    between atoms: C_4  and  C_6
REMARK    5  A    between atoms: C_6  and  C_7
REMARK    6  A    between atoms: C_7  and  N_8
REMARK    7  A    between atoms: C_7  and  C_13
REMARK    8  A    between atoms: C_9  and  O_11
REMARK    9  A    between atoms: O_11  and  C_12
REMARK                            x       y       z     vdW  Elec       q    Type
REMARK                         _______ _______ _______ _____ _____    ______ ____
ROOT
ATOM      1  C   UNL     1       3.996   3.293  18.802  0.00  0.00    +0.000 C 
ENDROOT
BRANCH   1   2
ATOM      2  C   UNL     1       4.940   4.021  17.846  0.00  0.00    +0.000 A 
ATOM      3  C   UNL     1       4.659   4.026  16.463  0.00  0.00    +0.000 A 
ATOM      4  C   UNL     1       5.467   4.716  15.559  0.00  0.00    +0.000 A 
ATOM      5  C   UNL     1       6.593   5.397  16.014  0.00  0.00    +0.000 A 
ATOM      6  C   UNL     1       6.899   5.369  17.368  0.00  0.00    +0.000 A 
ATOM      7  F   UNL     1       7.991   6.010  17.808  0.00  0.00    +0.000 F 
ATOM      8  C   UNL     1       6.090   4.696  18.283  0.00  0.00    +0.000 A 
ENDBRANCH   1   2
BRANCH   1   9
ATOM      9  C   UNL     1       2.656   4.024  19.129  0.00  0.00    +0.000 C 
ATOM     10  C   UNL     1       1.487   3.816  18.142  0.00  0.00    +0.000 C 
ATOM     11  C   UNL     1       0.705   2.602  18.616  0.00  0.00    +0.000 C 
ATOM     12  C   UNL     1       0.839   2.590  20.126  0.00  0.00    +0.000 C 
ATOM     13  C   UNL     1       2.029   3.480  20.394  0.00  0.00    +0.000 C 
ATOM     14  O   UNL     1       2.442   3.680  21.531  0.00  0.00    +0.000 OA
BRANCH   9  15
ATOM     15  C   UNL     1       2.986   5.502  19.171  0.00  0.00    +0.000 C 
ATOM     16  O   UNL     1       3.586   6.022  20.108  0.00  0.00    +0.000 OA
BRANCH  15  17
ATOM     17  O   UNL     1       2.404   6.195  18.160  0.00  0.00    +0.000 OA
BRANCH  17  19
ATOM     18  C   UNL     1       2.037   8.539  17.835  0.00  0.00    +0.000 C 
ATOM     19  C   UNL     1       3.054   7.412  17.771  0.00  0.00    +0.000 C 
ENDBRANCH  17  19
ENDBRANCH  15  17
ENDBRANCH   9  15
ENDBRANCH   1   9
BRANCH   1  20
ATOM     20  N   UNL     1       4.690   2.879  20.021  0.00  0.00    +0.000 N 
ATOM     21  C   UNL     1       4.986   1.578  20.306  0.00  0.00    +0.000 C 
ATOM     22  O   UNL     1       4.868   0.634  19.545  0.00  0.00    +0.000 OA
ATOM     23  H   UNL     1       4.719   3.480  20.835  0.00  0.00    +0.000 HD
BRANCH  21  24
ATOM     24  O   UNL     1       5.360   1.507  21.607  0.00  0.00    +0.000 OA
ATOM     25  C   UNL     1       5.977   0.273  21.990  0.00  0.00    +0.000 C 
ENDBRANCH  21  24
ENDBRANCH   1  20
TORSDOF 7
ENDMDL
MODEL 3
REMARK VINA RESULT:      -7.0      2.885      4.921
REMARK  Name = 
REMARK  9 active torsions:
REMARK  status: ('A' for Active; 'I' for Inactive)
REMARK    1  A    between atoms: C_1  and  C_2
REMARK    2  A    between atoms: C_2  and  O_3
REMARK    3  A    between atoms: O_3  and  C_4
REMARK    4  A    between atoms: C_4  and  C_6
REMARK    5  A    between atoms: C_6  and  C_7
REMARK    6  A    between atoms: C_7  and  N_8
REMARK    7  A    between atoms: C_7  and  C_13
REMARK    8  A    between atoms: C_9  and  O_11
REMARK    9  A    between atoms: O_11  and  C_12
REMARK                            x       y       z     vdW  Elec       q    Type
REMARK                         _______ _______ _______ _____ _____    ______ ____
ROOT
ATOM      1  C   UNL     1       3.776   5.299  18.596  0.00  0.00    +0.000 C 
ENDROOT
BRANCH   1   2
ATOM      2  C   UNL     1       2.917   6.527  18.894  0.00  0.00    +0.000 A 
ATOM      3  C   UNL     1       2.622   7.436  17.855  0.00  0.00    +0.000 A 
ATOM      4  C   UNL     1       1.804   8.545  18.069  0.00  0.00    +0.000 A 
ATOM      5  C   UNL     1       1.284   8.789  19.337  0.00  0.00    +0.000 A 
ATOM      6  C   UNL     1       1.596   7.921  20.376  0.00  0.00    +0.000 A 
ATOM      7  F   UNL     1       1.109   8.161  21.600  0.00  0.00    +0.000 F 
ATOM      8  C   UNL     1       2.399   6.799  20.169  0.00  0.00    +0.000 A 
ENDBRANCH   1   2
BRANCH   1   9
ATOM      9  C   UNL     1       3.031   3.926  18.597  0.00  0.00    +0.000 C 
ATOM     10  C   UNL     1       3.056   3.118  19.912  0.00  0.00    +0.000 C 
ATOM     11  C   UNL     1       1.848   3.544  20.728  0.00  0.00    +0.000 C 
ATOM     12  C   UNL     1       0.775   3.904  19.719  0.00  0.00    +0.000 C 
ATOM     13  C   UNL     1       1.538   4.113  18.434  0.00  0.00    +0.000 C 
ATOM     14  O   UNL     1       0.975   4.443  17.396  0.00  0.00    +0.000 OA
BRANCH   9  15
ATOM     15  C   UNL     1       3.687   3.095  17.513  0.00  0.00    +0.000 C 
ATOM     16  O   UNL     1       3.855   1.883  17.616  0.00  0.00    +0.000 OA
BRANCH  15  17
ATOM     17  O   UNL     1       4.210   3.856  16.518  0.00  0.00    +0.000 OA
BRANCH  17  19
ATOM     18  C   UNL     1       5.933   4.458  14.968  0.00  0.00    +0.000 C 
ATOM     19  C   UNL     1       5.528   3.504  16.078  0.00  0.00    +0.000 C 
ENDBRANCH  17  19
ENDBRANCH  15  17
ENDBRANCH   9  15
ENDBRANCH   1   9
BRANCH   1  20
ATOM     20  N   UNL     1       4.964   5.262  19.448  0.00  0.00    +0.000 N 
ATOM     21  C   UNL     1       6.193   5.687  19.034  0.00  0.00    +0.000 C 
ATOM     22  O   UNL     1       6.432   6.283  17.999  0.00  0.00    +0.000 OA
ATOM     23  H   UNL     1       5.005   4.660  20.261  0.00  0.00    +0.000 HD
BRANCH  21  24
ATOM     24  O   UNL     1       7.111   5.261  19.936  0.00  0.00    +0.000 OA
ATOM     25  C   UNL     1       8.460   5.640  19.646  0.00  0.00    +0.000 C 
ENDBRANCH  21  24
ENDBRANCH   1  20
TORSDOF 7
ENDMDL
MODEL 4
REMARK VINA RESULT:      -7.0      2.475      6.110
REMARK  Name = 
REMARK  9 active torsions:
REMARK  status: ('A' for Active; 'I' for Inactive)
REMARK    1  A    between atoms: C_1  and  C_2
REMARK    2  A    between atoms: C_2  and  O_3
REMARK    3  A    between atoms: O_3  and  C_4
REMARK    4  A    between atoms: C_4  and  C_6
REMARK    5  A    between atoms: C_6  and  C_7
REMARK    6  A    between atoms: C_7  and  N_8
REMARK    7  A    between atoms: C_7  and  C_13
REMARK    8  A    between atoms: C_9  and  O_11
REMARK    9  A    between atoms: O_11  and  C_12
REMARK                            x       y       z     vdW  Elec       q    Type
REMARK                         _______ _______ _______ _____ _____    ______ ____
ROOT
ATOM      1  C   UNL     1       3.337   5.738  17.658  0.00  0.00    +0.000 C 
ENDROOT
BRANCH   1   2
ATOM      2  C   UNL     1       2.408   4.907  18.542  0.00  0.00    +0.000 A 
ATOM      3  C   UNL     1       2.229   5.270  19.894  0.00  0.00    +0.000 A 
ATOM      4  C   UNL     1       1.355   4.570  20.726  0.00  0.00    +0.000 A 
ATOM      5  C   UNL     1       0.661   3.469  20.233  0.00  0.00    +0.000 A 
ATOM      6  C   UNL     1       0.856   3.080  18.913  0.00  0.00    +0.000 A 
ATOM      7  F   UNL     1       0.201   2.012  18.440  0.00  0.00    +0.000 F 
ATOM      8  C   UNL     1       1.715   3.784  18.068  0.00  0.00    +0.000 A 
ENDBRANCH   1   2
BRANCH   1   9
ATOM      9  C   UNL     1       4.771   5.160  17.439  0.00  0.00    +0.000 C 
ATOM     10  C   UNL     1       4.896   3.929  16.517  0.00  0.00    +0.000 C 
ATOM     11  C   UNL     1       5.106   4.442  15.102  0.00  0.00    +0.000 C 
ATOM     12  C   UNL     1       5.867   5.746  15.247  0.00  0.00    +0.000 C 
ATOM     13  C   UNL     1       5.648   6.139  16.688  0.00  0.00    +0.000 C 
ATOM     14  O   UNL     1       6.111   7.175  17.151  0.00  0.00    +0.000 OA
BRANCH   9  15
ATOM     15  C   UNL     1       5.282   4.780  18.814  0.00  0.00    +0.000 C 
ATOM     16  O   UNL     1       5.598   5.613  19.659  0.00  0.00    +0.000 OA
BRANCH  15  17
ATOM     17  O   UNL     1       5.507   3.448  18.936  0.00  0.00    +0.000 OA
BRANCH  17  19
ATOM     18  C   UNL     1       4.117   1.528  19.282  0.00  0.00    +0.000 C 
ATOM     19  C   UNL     1       4.728   2.761  19.925  0.00  0.00    +0.000 C 
ENDBRANCH  17  19
ENDBRANCH  15  17
ENDBRANCH   9  15
ENDBRANCH   1   9
BRANCH   1  20
ATOM     20  N   UNL     1       3.384   7.131  18.100  0.00  0.00    +0.000 N 
ATOM     21  C   UNL     1       2.373   8.020  17.876  0.00  0.00    +0.000 C 
ATOM     22  O   UNL     1       1.267   7.750  17.442  0.00  0.00    +0.000 OA
ATOM     23  H   UNL     1       4.265   7.580  18.321  0.00  0.00    +0.000 HD
BRANCH  21  24
ATOM     24  O   UNL     1       2.839   9.264  18.146  0.00  0.00    +0.000 OA
ATOM     25  C   UNL     1       1.836  10.284  18.197  0.00  0.00    +0.000 C 
ENDBRANCH  21  24
ENDBRANCH   1  20
TORSDOF 7
ENDMDL
MODEL 5
REMARK VINA RESULT:      -6.8      1.946      4.266
REMARK  Name = 
REMARK  9 active torsions:
REMARK  status: ('A' for Active; 'I' for Inactive)
REMARK    1  A    between atoms: C_1  and  C_2
REMARK    2  A    between atoms: C_2  and  O_3
REMARK    3  A    between atoms: O_3  and  C_4
REMARK    4  A    between atoms: C_4  and  C_6
REMARK    5  A    between atoms: C_6  and  C_7
REMARK    6  A    between atoms: C_7  and  N_8
REMARK    7  A    between atoms: C_7  and  C_13
REMARK    8  A    between atoms: C_9  and  O_11
REMARK    9  A    between atoms: O_11  and  C_12
REMARK                            x       y       z     vdW  Elec       q    Type
REMARK                         _______ _______ _______ _____ _____    ______ ____
ROOT
ATOM      1  C   UNL     1       3.656   5.127  18.694  0.00  0.00    +0.000 C 
ENDROOT
BRANCH   1   2
ATOM      2  C   UNL     1       4.807   4.784  17.749  0.00  0.00    +0.000 A 
ATOM      3  C   UNL     1       4.539   4.557  16.383  0.00  0.00    +0.000 A 
ATOM      4  C   UNL     1       5.563   4.288  15.475  0.00  0.00    +0.000 A 
ATOM      5  C   UNL     1       6.881   4.210  15.918  0.00  0.00    +0.000 A 
ATOM      6  C   UNL     1       7.153   4.397  17.268  0.00  0.00    +0.000 A 
ATOM      7  F   UNL     1       8.418   4.308  17.700  0.00  0.00    +0.000 F 
ATOM      8  C   UNL     1       6.138   4.683  18.181  0.00  0.00    +0.000 A 
ENDBRANCH   1   2
BRANCH   1   9
ATOM      9  C   UNL     1       2.916   3.914  19.340  0.00  0.00    +0.000 C 
ATOM     10  C   UNL     1       1.719   3.329  18.560  0.00  0.00    +0.000 C 
ATOM     11  C   UNL     1       2.262   2.248  17.641  0.00  0.00    +0.000 C 
ATOM     12  C   UNL     1       3.456   1.654  18.364  0.00  0.00    +0.000 C 
ATOM     13  C   UNL     1       3.810   2.694  19.399  0.00  0.00    +0.000 C 
ATOM     14  O   UNL     1       4.761   2.549  20.160  0.00  0.00    +0.000 OA
BRANCH   9  15
ATOM     15  C   UNL     1       2.417   4.398  20.687  0.00  0.00    +0.000 C 
ATOM     16  O   UNL     1       1.915   3.647  21.518  0.00  0.00    +0.000 OA
BRANCH  15  17
ATOM     17  O   UNL     1       2.432   5.751  20.791  0.00  0.00    +0.000 OA
BRANCH  17  19
ATOM     18  C   UNL     1       1.384   7.884  21.091  0.00  0.00    +0.000 C 
ATOM     19  C   UNL     1       1.167   6.382  21.028  0.00  0.00    +0.000 C 
ENDBRANCH  17  19
ENDBRANCH  15  17
ENDBRANCH   9  15
ENDBRANCH   1   9
BRANCH   1  20
ATOM     20  N   UNL     1       2.715   6.056  18.069  0.00  0.00    +0.000 N 
ATOM     21  C   UNL     1       3.012   7.364  17.818  0.00  0.00    +0.000 C 
ATOM     22  O   UNL     1       4.110   7.881  17.923  0.00  0.00    +0.000 OA
ATOM     23  H   UNL     1       1.720   5.867  18.064  0.00  0.00    +0.000 HD
BRANCH  21  24
ATOM     24  O   UNL     1       1.858   8.005  17.508  0.00  0.00    +0.000 OA
ATOM     25  C   UNL     1       1.839   9.399  17.832  0.00  0.00    +0.000 C 
ENDBRANCH  21  24
ENDBRANCH   1  20
TORSDOF 7
ENDMDL
MODEL 6
REMARK VINA RESULT:      -6.8      3.004      5.974
REMARK  Name = 
REMARK  9 active torsions:
REMARK  status: ('A' for Active; 'I' for Inactive)
REMARK    1  A    between atoms: C_1  and  C_2
REMARK    2  A    between atoms: C_2  and  O_3
REMARK    3  A    between atoms: O_3  and  C_4
REMARK    4  A    between atoms: C_4  and  C_6
REMARK    5  A    between atoms: C_6  and  C_7
REMARK    6  A    between atoms: C_7  and  N_8
REMARK    7  A    between atoms: C_7  and  C_13
REMARK    8  A    between atoms: C_9  and  O_11
REMARK    9  A    between atoms: O_11  and  C_12
REMARK                            x       y       z     vdW  Elec       q    Type
REMARK                         _______ _______ _______ _____ _____    ______ ____
ROOT
ATOM      1  C   UNL     1       3.489   5.882  17.630  0.00  0.00    +0.000 C 
ENDROOT
BRANCH   1   2
ATOM      2  C   UNL     1       2.679   5.004  18.584  0.00  0.00    +0.000 A 
ATOM      3  C   UNL     1       2.771   5.224  19.975  0.00  0.00    +0.000 A 
ATOM      4  C   UNL     1       2.015   4.480  20.881  0.00  0.00    +0.000 A 
ATOM      5  C   UNL     1       1.169   3.475  20.418  0.00  0.00    +0.000 A 
ATOM      6  C   UNL     1       1.098   3.226  19.053  0.00  0.00    +0.000 A 
ATOM      7  F   UNL     1       0.296   2.251  18.605  0.00  0.00    +0.000 F 
ATOM      8  C   UNL     1       1.837   3.976  18.138  0.00  0.00    +0.000 A 
ENDBRANCH   1   2
BRANCH   1   9
ATOM      9  C   UNL     1       4.933   5.386  17.304  0.00  0.00    +0.000 C 
ATOM     10  C   UNL     1       5.178   3.863  17.355  0.00  0.00    +0.000 C 
ATOM     11  C   UNL     1       4.894   3.312  15.968  0.00  0.00    +0.000 C 
ATOM     12  C   UNL     1       5.267   4.420  15.001  0.00  0.00    +0.000 C 
ATOM     13  C   UNL     1       5.294   5.660  15.860  0.00  0.00    +0.000 C 
ATOM     14  O   UNL     1       5.542   6.765  15.390  0.00  0.00    +0.000 OA
BRANCH   9  15
ATOM     15  C   UNL     1       5.841   6.050  18.320  0.00  0.00    +0.000 C 
ATOM     16  O   UNL     1       5.944   5.653  19.478  0.00  0.00    +0.000 OA
BRANCH  15  17
ATOM     17  O   UNL     1       6.380   7.206  17.860  0.00  0.00    +0.000 OA
BRANCH  17  19
ATOM     18  C   UNL     1       8.149   8.820  17.902  0.00  0.00    +0.000 C 
ATOM     19  C   UNL     1       7.800   7.346  18.005  0.00  0.00    +0.000 C 
ENDBRANCH  17  19
ENDBRANCH  15  17
ENDBRANCH   9  15
ENDBRANCH   1   9
BRANCH   1  20
ATOM     20  N   UNL     1       3.489   7.278  18.064  0.00  0.00    +0.000 N 
ATOM     21  C   UNL     1       2.421   8.112  17.898  0.00  0.00    +0.000 C 
ATOM     22  O   UNL     1       1.307   7.782  17.530  0.00  0.00    +0.000 OA
ATOM     23  H   UNL     1       4.356   7.773  18.232  0.00  0.00    +0.000 HD
BRANCH  21  24
ATOM     24  O   UNL     1       2.836   9.380  18.136  0.00  0.00    +0.000 OA
ATOM     25  C   UNL     1       1.791  10.356  18.186  0.00  0.00    +0.000 C 
ENDBRANCH  21  24
ENDBRANCH   1  20
TORSDOF 7
ENDMDL
MODEL 7
REMARK VINA RESULT:      -6.8      1.680      4.057
REMARK  Name = 
REMARK  9 active torsions:
REMARK  status: ('A' for Active; 'I' for Inactive)
REMARK    1  A    between atoms: C_1  and  C_2
REMARK    2  A    between atoms: C_2  and  O_3
REMARK    3  A    between atoms: O_3  and  C_4
REMARK    4  A    between atoms: C_4  and  C_6
REMARK    5  A    between atoms: C_6  and  C_7
REMARK    6  A    between atoms: C_7  and  N_8
REMARK    7  A    between atoms: C_7  and  C_13
REMARK    8  A    between atoms: C_9  and  O_11
REMARK    9  A    between atoms: O_11  and  C_12
REMARK                            x       y       z     vdW  Elec       q    Type
REMARK                         _______ _______ _______ _____ _____    ______ ____
ROOT
ATOM      1  C   UNL     1       3.728   5.172  18.659  0.00  0.00    +0.000 C 
ENDROOT
BRANCH   1   2
ATOM      2  C   UNL     1       4.889   4.869  17.712  0.00  0.00    +0.000 A 
ATOM      3  C   UNL     1       6.214   4.950  18.191  0.00  0.00    +0.000 A 
ATOM      4  C   UNL     1       7.302   4.637  17.377  0.00  0.00    +0.000 A 
ATOM      5  C   UNL     1       7.093   4.262  16.053  0.00  0.00    +0.000 A 
ATOM      6  C   UNL     1       5.795   4.214  15.560  0.00  0.00    +0.000 A 
ATOM      7  F   UNL     1       5.591   3.869  14.282  0.00  0.00    +0.000 F 
ATOM      8  C   UNL     1       4.698   4.509  16.370  0.00  0.00    +0.000 A 
ENDBRANCH   1   2
BRANCH   1   9
ATOM      9  C   UNL     1       3.019   3.933  19.291  0.00  0.00    +0.000 C 
ATOM     10  C   UNL     1       1.813   3.351  18.524  0.00  0.00    +0.000 C 
ATOM     11  C   UNL     1       2.350   2.300  17.567  0.00  0.00    +0.000 C 
ATOM     12  C   UNL     1       3.567   1.705  18.249  0.00  0.00    +0.000 C 
ATOM     13  C   UNL     1       3.931   2.725  19.300  0.00  0.00    +0.000 C 
ATOM     14  O   UNL     1       4.900   2.575  20.037  0.00  0.00    +0.000 OA
BRANCH   9  15
ATOM     15  C   UNL     1       2.544   4.378  20.660  0.00  0.00    +0.000 C 
ATOM     16  O   UNL     1       2.098   3.595  21.495  0.00  0.00    +0.000 OA
BRANCH  15  17
ATOM     17  O   UNL     1       2.510   5.728  20.786  0.00  0.00    +0.000 OA
BRANCH  17  19
ATOM     18  C   UNL     1       1.378   7.820  21.065  0.00  0.00    +0.000 C 
ATOM     19  C   UNL     1       1.220   6.310  21.016  0.00  0.00    +0.000 C 
ENDBRANCH  17  19
ENDBRANCH  15  17
ENDBRANCH   9  15
ENDBRANCH   1   9
BRANCH   1  20
ATOM     20  N   UNL     1       2.764   6.082  18.042  0.00  0.00    +0.000 N 
ATOM     21  C   UNL     1       3.034   7.395  17.787  0.00  0.00    +0.000 C 
ATOM     22  O   UNL     1       4.124   7.933  17.881  0.00  0.00    +0.000 OA
ATOM     23  H   UNL     1       1.773   5.875  18.048  0.00  0.00    +0.000 HD
BRANCH  21  24
ATOM     24  O   UNL     1       1.866   8.015  17.489  0.00  0.00    +0.000 OA
ATOM     25  C   UNL     1       1.822   9.407  17.818  0.00  0.00    +0.000 C 
ENDBRANCH  21  24
ENDBRANCH   1  20
TORSDOF 7
ENDMDL
MODEL 8
REMARK VINA RESULT:      -6.8      2.814      5.498
REMARK  Name = 
REMARK  9 active torsions:
REMARK  status: ('A' for Active; 'I' for Inactive)
REMARK    1  A    between atoms: C_1  and  C_2
REMARK    2  A    between atoms: C_2  and  O_3
REMARK    3  A    between atoms: O_3  and  C_4
REMARK    4  A    between atoms: C_4  and  C_6
REMARK    5  A    between atoms: C_6  and  C_7
REMARK    6  A    between atoms: C_7  and  N_8
REMARK    7  A    between atoms: C_7  and  C_13
REMARK    8  A    between atoms: C_9  and  O_11
REMARK    9  A    between atoms: O_11  and  C_12
REMARK                            x       y       z     vdW  Elec       q    Type
REMARK                         _______ _______ _______ _____ _____    ______ ____
ROOT
ATOM      1  C   UNL     1       5.480   6.148  17.383  0.00  0.00    +0.000 C 
ENDROOT
BRANCH   1   2
ATOM      2  C   UNL     1       4.154   6.662  17.942  0.00  0.00    +0.000 A 
ATOM      3  C   UNL     1       3.621   6.079  19.111  0.00  0.00    +0.000 A 
ATOM      4  C   UNL     1       2.439   6.547  19.684  0.00  0.00    +0.000 A 
ATOM      5  C   UNL     1       1.743   7.592  19.083  0.00  0.00    +0.000 A 
ATOM      6  C   UNL     1       2.239   8.151  17.912  0.00  0.00    +0.000 A 
ATOM      7  F   UNL     1       1.564   9.147  17.323  0.00  0.00    +0.000 F 
ATOM      8  C   UNL     1       3.429   7.701  17.340  0.00  0.00    +0.000 A 
ENDBRANCH   1   2
BRANCH   1   9
ATOM      9  C   UNL     1       5.470   4.686  16.834  0.00  0.00    +0.000 C 
ATOM     10  C   UNL     1       4.513   4.386  15.660  0.00  0.00    +0.000 C 
ATOM     11  C   UNL     1       5.279   4.648  14.374  0.00  0.00    +0.000 C 
ATOM     12  C   UNL     1       6.726   4.314  14.682  0.00  0.00    +0.000 C 
ATOM     13  C   UNL     1       6.793   4.333  16.189  0.00  0.00    +0.000 C 
ATOM     14  O   UNL     1       7.841   4.125  16.791  0.00  0.00    +0.000 OA
BRANCH   9  15
ATOM     15  C   UNL     1       5.081   3.804  18.004  0.00  0.00    +0.000 C 
ATOM     16  O   UNL     1       5.700   3.795  19.064  0.00  0.00    +0.000 OA
BRANCH  15  17
ATOM     17  O   UNL     1       4.099   2.923  17.687  0.00  0.00    +0.000 OA
BRANCH  17  19
ATOM     18  C   UNL     1       1.814   2.903  18.405  0.00  0.00    +0.000 C 
ATOM     19  C   UNL     1       3.240   2.519  18.762  0.00  0.00    +0.000 C 
ENDBRANCH  17  19
ENDBRANCH  15  17
ENDBRANCH   9  15
ENDBRANCH   1   9
BRANCH   1  20
ATOM     20  N   UNL     1       6.572   6.355  18.333  0.00  0.00    +0.000 N 
ATOM     21  C   UNL     1       7.629   7.182  18.087  0.00  0.00    +0.000 C 
ATOM     22  O   UNL     1       7.727   7.959  17.153  0.00  0.00    +0.000 OA
ATOM     23  H   UNL     1       6.754   5.687  19.073  0.00  0.00    +0.000 HD
BRANCH  21  24
ATOM     24  O   UNL     1       8.584   6.933  19.017  0.00  0.00    +0.000 OA
ATOM     25  C   UNL     1       8.341   5.784  19.836  0.00  0.00    +0.000 C 
ENDBRANCH  21  24
ENDBRANCH   1  20
TORSDOF 7
ENDMDL
MODEL 9
REMARK VINA RESULT:      -6.8      2.956      5.526
REMARK  Name = 
REMARK  9 active torsions:
REMARK  status: ('A' for Active; 'I' for Inactive)
REMARK    1  A    between atoms: C_1  and  C_2
REMARK    2  A    between atoms: C_2  and  O_3
REMARK    3  A    between atoms: O_3  and  C_4
REMARK    4  A    between atoms: C_4  and  C_6
REMARK    5  A    between atoms: C_6  and  C_7
REMARK    6  A    between atoms: C_7  and  N_8
REMARK    7  A    between atoms: C_7  and  C_13
REMARK    8  A    between atoms: C_9  and  O_11
REMARK    9  A    between atoms: O_11  and  C_12
REMARK                            x       y       z     vdW  Elec       q    Type
REMARK                         _______ _______ _______ _____ _____    ______ ____
ROOT
ATOM      1  C   UNL     1       5.015   4.279  17.466  0.00  0.00    +0.000 C 
ENDROOT
BRANCH   1   2
ATOM      2  C   UNL     1       3.923   3.512  18.211  0.00  0.00    +0.000 A 
ATOM      3  C   UNL     1       2.747   3.140  17.526  0.00  0.00    +0.000 A 
ATOM      4  C   UNL     1       1.744   2.399  18.151  0.00  0.00    +0.000 A 
ATOM      5  C   UNL     1       1.881   2.037  19.489  0.00  0.00    +0.000 A 
ATOM      6  C   UNL     1       3.018   2.429  20.184  0.00  0.00    +0.000 A 
ATOM      7  F   UNL     1       3.145   2.096  21.475  0.00  0.00    +0.000 F 
ATOM      8  C   UNL     1       4.034   3.156  19.563  0.00  0.00    +0.000 A 
ENDBRANCH   1   2
BRANCH   1   9
ATOM      9  C   UNL     1       5.311   5.723  17.982  0.00  0.00    +0.000 C 
ATOM     10  C   UNL     1       6.112   5.845  19.297  0.00  0.00    +0.000 C 
ATOM     11  C   UNL     1       7.585   5.894  18.927  0.00  0.00    +0.000 C 
ATOM     12  C   UNL     1       7.647   6.576  17.574  0.00  0.00    +0.000 C 
ATOM     13  C   UNL     1       6.239   6.462  17.042  0.00  0.00    +0.000 C 
ATOM     14  O   UNL     1       5.929   6.895  15.938  0.00  0.00    +0.000 OA
BRANCH   9  15
ATOM     15  C   UNL     1       3.960   6.379  18.184  0.00  0.00    +0.000 C 
ATOM     16  O   UNL     1       3.328   6.893  17.266  0.00  0.00    +0.000 OA
BRANCH  15  17
ATOM     17  O   UNL     1       3.621   6.480  19.494  0.00  0.00    +0.000 OA
BRANCH  17  19
ATOM     18  C   UNL     1       1.671   5.737  20.668  0.00  0.00    +0.000 C 
ATOM     19  C   UNL     1       2.254   6.814  19.770  0.00  0.00    +0.000 C 
ENDBRANCH  17  19
ENDBRANCH  15  17
ENDBRANCH   9  15
ENDBRANCH   1   9
BRANCH   1  20
ATOM     20  N   UNL     1       4.783   4.265  16.023  0.00  0.00    +0.000 N 
ATOM     21  C   UNL     1       5.749   3.939  15.114  0.00  0.00    +0.000 C 
ATOM     22  O   UNL     1       6.846   3.475  15.372  0.00  0.00    +0.000 OA
ATOM     23  H   UNL     1       4.008   4.771  15.613  0.00  0.00    +0.000 HD
BRANCH  21  24
ATOM     24  O   UNL     1       5.306   4.296  13.884  0.00  0.00    +0.000 OA
ATOM     25  C   UNL     1       5.949   3.625  12.795  0.00  0.00    +0.000 C 
ENDBRANCH  21  24
ENDBRANCH   1  20
TORSDOF 7
ENDMDL
