MODEL 1
REMARK VINA RESULT:      -8.7      0.000      0.000
REMARK  Name = 
REMARK  5 active torsions:
REMARK  status: ('A' for Active; 'I' for Inactive)
REMARK    1  A    between atoms: C_1  and  S_2
REMARK    2  A    between atoms: S_2  and  C_3
REMARK    3  A    between atoms: C_6  and  N_7
REMARK    4  A    between atoms: C_13  and  C_14
REMARK    5  A    between atoms: C_14  and  C_16
REMARK                            x       y       z     vdW  Elec       q    Type
REMARK                         _______ _______ _______ _____ _____    ______ ____
ROOT
ATOM      1  N   UNL     1       1.279   8.327  21.344  0.00  0.00    +0.000 N 
ATOM      2  C   UNL     1       1.724   8.048  20.073  0.00  0.00    +0.000 C 
ATOM      3  O   UNL     1       1.620   8.820  19.121  0.00  0.00    +0.000 OA
ATOM      4  N   UNL     1       2.354   6.819  19.917  0.00  0.00    +0.000 N 
ATOM      5  C   UNL     1       3.016   6.553  18.642  0.00  0.00    +0.000 C 
ATOM      6  C   UNL     1       2.292   5.439  17.892  0.00  0.00    +0.000 C 
ATOM      7  C   UNL     1       2.244   4.157  18.735  0.00  0.00    +0.000 C 
ATOM      8  C   UNL     1       1.608   4.474  20.106  0.00  0.00    +0.000 C 
ATOM      9  C   UNL     1       2.264   5.667  20.816  0.00  0.00    +0.000 C 
ATOM     10  H   UNL     1       1.742   7.830  22.090  0.00  0.00    +0.000 HD
ENDROOT
BRANCH   1  14
ATOM     11  C   UNL     1      -0.885  11.746  22.594  0.00  0.00    +0.000 A 
ATOM     12  C   UNL     1       0.060  11.857  21.576  0.00  0.00    +0.000 A 
ATOM     13  C   UNL     1       0.760  10.732  21.135  0.00  0.00    +0.000 A 
ATOM     14  C   UNL     1       0.557   9.485  21.726  0.00  0.00    +0.000 A 
ATOM     15  C   UNL     1      -0.399   9.369  22.739  0.00  0.00    +0.000 A 
ATOM     16  C   UNL     1      -1.106  10.496  23.179  0.00  0.00    +0.000 A 
BRANCH  11  18
ATOM     17  C   UNL     1      -3.330  12.361  23.682  0.00  0.00    +0.000 C 
ATOM     18  S   UNL     1      -1.787  13.168  23.175  0.00  0.00    +0.000 S 
ENDBRANCH  11  18
ENDBRANCH   1  14
BRANCH   7  19
ATOM     19  C   UNL     1       3.632   3.525  18.903  0.00  0.00    +0.000 C 
ATOM     20  O   UNL     1       3.887   2.746  19.820  0.00  0.00    +0.000 OA
BRANCH  19  21
ATOM     21  C   UNL     1       4.730   3.856  17.947  0.00  0.00    +0.000 A 
ATOM     22  C   UNL     1       4.526   3.567  16.588  0.00  0.00    +0.000 A 
ATOM     23  C   UNL     1       5.510   3.873  15.646  0.00  0.00    +0.000 A 
ATOM     24  C   UNL     1       6.690   4.476  16.063  0.00  0.00    +0.000 A 
ATOM     25  F   UNL     1       7.632   4.778  15.161  0.00  0.00    +0.000 F 
ATOM     26  C   UNL     1       6.903   4.777  17.406  0.00  0.00    +0.000 A 
ATOM     27  C   UNL     1       5.923   4.466  18.354  0.00  0.00    +0.000 A 
ENDBRANCH  19  21
ENDBRANCH   7  19
TORSDOF 4
ENDMDL
MODEL 2
REMARK VINA RESULT:      -8.6      0.138      1.345
REMARK  Name = 
REMARK  5 active torsions:
REMARK  status: ('A' for Active; 'I' for Inactive)
REMARK    1  A    between atoms: C_1  and  S_2
REMARK    2  A    between atoms: S_2  and  C_3
REMARK    3  A    between atoms: C_6  and  N_7
REMARK    4  A    between atoms: C_13  and  C_14
REMARK    5  A    between atoms: C_14  and  C_16
REMARK                            x       y       z     vdW  Elec       q    Type
REMARK                         _______ _______ _______ _____ _____    ______ ____
ROOT
ATOM      1  N   UNL     1       1.323   8.246  21.378  0.00  0.00    +0.000 N 
ATOM      2  C   UNL     1       1.721   7.995  20.086  0.00  0.00    +0.000 C 
ATOM      3  O   UNL     1       1.567   8.781  19.152  0.00  0.00    +0.000 OA
ATOM      4  N   UNL     1       2.362   6.779  19.883  0.00  0.00    +0.000 N 
ATOM      5  C   UNL     1       2.975   6.544  18.578  0.00  0.00    +0.000 C 
ATOM      6  C   UNL     1       2.238   5.431  17.839  0.00  0.00    +0.000 C 
ATOM      7  C   UNL     1       2.243   4.134  18.661  0.00  0.00    +0.000 C 
ATOM      8  C   UNL     1       1.659   4.419  20.062  0.00  0.00    +0.000 C 
ATOM      9  C   UNL     1       2.325   5.610  20.765  0.00  0.00    +0.000 C 
ATOM     10  H   UNL     1       1.823   7.744  22.096  0.00  0.00    +0.000 HD
ENDROOT
BRANCH   1  14
ATOM     11  C   UNL     1      -0.834  11.695  22.555  0.00  0.00    +0.000 A 
ATOM     12  C   UNL     1      -1.054  10.483  23.207  0.00  0.00    +0.000 A 
ATOM     13  C   UNL     1      -0.330   9.345  22.848  0.00  0.00    +0.000 A 
ATOM     14  C   UNL     1       0.601   9.386  21.808  0.00  0.00    +0.000 A 
ATOM     15  C   UNL     1       0.832  10.603  21.161  0.00  0.00    +0.000 A 
ATOM     16  C   UNL     1       0.109  11.748  21.524  0.00  0.00    +0.000 A 
BRANCH  11  18
ATOM     17  C   UNL     1      -3.364  12.412  23.348  0.00  0.00    +0.000 C 
ATOM     18  S   UNL     1      -1.749  13.159  22.994  0.00  0.00    +0.000 S 
ENDBRANCH  11  18
ENDBRANCH   1  14
BRANCH   7  19
ATOM     19  C   UNL     1       3.646   3.521  18.762  0.00  0.00    +0.000 C 
ATOM     20  O   UNL     1       3.951   2.737  19.659  0.00  0.00    +0.000 OA
BRANCH  19  21
ATOM     21  C   UNL     1       4.697   3.879  17.764  0.00  0.00    +0.000 A 
ATOM     22  C   UNL     1       5.886   4.454  18.241  0.00  0.00    +0.000 A 
ATOM     23  C   UNL     1       6.911   4.792  17.356  0.00  0.00    +0.000 A 
ATOM     24  C   UNL     1       6.750   4.545  15.999  0.00  0.00    +0.000 A 
ATOM     25  F   UNL     1       7.735   4.859  15.149  0.00  0.00    +0.000 F 
ATOM     26  C   UNL     1       5.580   3.967  15.512  0.00  0.00    +0.000 A 
ATOM     27  C   UNL     1       4.547   3.634  16.393  0.00  0.00    +0.000 A 
ENDBRANCH  19  21
ENDBRANCH   7  19
TORSDOF 4
ENDMDL
MODEL 3
REMARK VINA RESULT:      -7.5      1.766      2.713
REMARK  Name = 
REMARK  5 active torsions:
REMARK  status: ('A' for Active; 'I' for Inactive)
REMARK    1  A    between atoms: C_1  and  S_2
REMARK    2  A    between atoms: S_2  and  C_3
REMARK    3  A    between atoms: C_6  and  N_7
REMARK    4  A    between atoms: C_13  and  C_14
REMARK    5  A    between atoms: C_14  and  C_16
REMARK                            x       y       z     vdW  Elec       q    Type
REMARK                         _______ _______ _______ _____ _____    ______ ____
ROOT
ATOM      1  N   UNL     1       1.729   7.979  19.505  0.00  0.00    +0.000 N 
ATOM      2  C   UNL     1       2.143   6.719  19.869  0.00  0.00    +0.000 C 
ATOM      3  O   UNL     1       1.897   6.199  20.957  0.00  0.00    +0.000 OA
ATOM      4  N   UNL     1       2.847   6.017  18.898  0.00  0.00    +0.000 N 
ATOM      5  C   UNL     1       3.141   4.610  19.156  0.00  0.00    +0.000 C 
ATOM      6  C   UNL     1       4.643   4.407  19.332  0.00  0.00    +0.000 C 
ATOM      7  C   UNL     1       5.407   4.882  18.087  0.00  0.00    +0.000 C 
ATOM      8  C   UNL     1       5.027   6.348  17.788  0.00  0.00    +0.000 C 
ATOM      9  C   UNL     1       3.511   6.578  17.719  0.00  0.00    +0.000 C 
ATOM     10  H   UNL     1       1.640   8.143  18.514  0.00  0.00    +0.000 HD
ENDROOT
BRANCH   1  14
ATOM     11  C   UNL     1      -0.372  10.736  21.938  0.00  0.00    +0.000 A 
ATOM     12  C   UNL     1       0.333   9.689  22.527  0.00  0.00    +0.000 A 
ATOM     13  C   UNL     1       1.054   8.789  21.738  0.00  0.00    +0.000 A 
ATOM     14  C   UNL     1       1.053   8.896  20.347  0.00  0.00    +0.000 A 
ATOM     15  C   UNL     1       0.356   9.954  19.755  0.00  0.00    +0.000 A 
ATOM     16  C   UNL     1      -0.363  10.861  20.546  0.00  0.00    +0.000 A 
BRANCH  11  18
ATOM     17  C   UNL     1      -0.612  13.449  22.293  0.00  0.00    +0.000 C 
ATOM     18  S   UNL     1      -1.301  11.894  22.924  0.00  0.00    +0.000 S 
ENDBRANCH  11  18
ENDBRANCH   1  14
BRANCH   7  19
ATOM     19  C   UNL     1       5.143   3.983  16.872  0.00  0.00    +0.000 C 
ATOM     20  O   UNL     1       4.349   3.046  16.914  0.00  0.00    +0.000 OA
BRANCH  19  21
ATOM     21  C   UNL     1       5.869   4.223  15.589  0.00  0.00    +0.000 A 
ATOM     22  C   UNL     1       5.335   3.659  14.418  0.00  0.00    +0.000 A 
ATOM     23  C   UNL     1       5.959   3.865  13.187  0.00  0.00    +0.000 A 
ATOM     24  C   UNL     1       7.109   4.641  13.127  0.00  0.00    +0.000 A 
ATOM     25  F   UNL     1       7.706   4.848  11.947  0.00  0.00    +0.000 F 
ATOM     26  C   UNL     1       7.646   5.214  14.277  0.00  0.00    +0.000 A 
ATOM     27  C   UNL     1       7.028   5.005  15.514  0.00  0.00    +0.000 A 
ENDBRANCH  19  21
ENDBRANCH   7  19
TORSDOF 4
ENDMDL
MODEL 4
REMARK VINA RESULT:      -7.5      2.514      3.338
REMARK  Name = 
REMARK  5 active torsions:
REMARK  status: ('A' for Active; 'I' for Inactive)
REMARK    1  A    between atoms: C_1  and  S_2
REMARK    2  A    between atoms: S_2  and  C_3
REMARK    3  A    between atoms: C_6  and  N_7
REMARK    4  A    between atoms: C_13  and  C_14
REMARK    5  A    between atoms: C_14  and  C_16
REMARK                            x       y       z     vdW  Elec       q    Type
REMARK                         _______ _______ _______ _____ _____    ______ ____
ROOT
ATOM      1  N   UNL     1       1.833   9.066  18.133  0.00  0.00    +0.000 N 
ATOM      2  C   UNL     1       2.151   7.966  18.896  0.00  0.00    +0.000 C 
ATOM      3  O   UNL     1       1.787   7.806  20.060  0.00  0.00    +0.000 OA
ATOM      4  N   UNL     1       2.903   6.989  18.254  0.00  0.00    +0.000 N 
ATOM      5  C   UNL     1       3.104   5.721  18.950  0.00  0.00    +0.000 C 
ATOM      6  C   UNL     1       4.573   5.550  19.325  0.00  0.00    +0.000 C 
ATOM      7  C   UNL     1       5.465   5.610  18.077  0.00  0.00    +0.000 C 
ATOM      8  C   UNL     1       5.185   6.924  17.316  0.00  0.00    +0.000 C 
ATOM      9  C   UNL     1       3.694   7.153  17.032  0.00  0.00    +0.000 C 
ATOM     10  H   UNL     1       1.839   8.923  17.134  0.00  0.00    +0.000 HD
ENDROOT
BRANCH   1  14
ATOM     11  C   UNL     1      -0.192  12.548  19.437  0.00  0.00    +0.000 A 
ATOM     12  C   UNL     1      -0.891  11.351  19.298  0.00  0.00    +0.000 A 
ATOM     13  C   UNL     1      -0.230  10.189  18.895  0.00  0.00    +0.000 A 
ATOM     14  C   UNL     1       1.132  10.208  18.590  0.00  0.00    +0.000 A 
ATOM     15  C   UNL     1       1.837  11.406  18.742  0.00  0.00    +0.000 A 
ATOM     16  C   UNL     1       1.176  12.572  19.150  0.00  0.00    +0.000 A 
BRANCH  11  18
ATOM     17  C   UNL     1      -0.160  15.237  18.880  0.00  0.00    +0.000 C 
ATOM     18  S   UNL     1      -1.016  14.044  19.945  0.00  0.00    +0.000 S 
ENDBRANCH  11  18
ENDBRANCH   1  14
BRANCH   7  19
ATOM     19  C   UNL     1       5.265   4.391  17.166  0.00  0.00    +0.000 C 
ATOM     20  O   UNL     1       4.647   3.395  17.537  0.00  0.00    +0.000 OA
BRANCH  19  21
ATOM     21  C   UNL     1       5.839   4.380  15.788  0.00  0.00    +0.000 A 
ATOM     22  C   UNL     1       5.051   3.850  14.754  0.00  0.00    +0.000 A 
ATOM     23  C   UNL     1       5.527   3.831  13.442  0.00  0.00    +0.000 A 
ATOM     24  C   UNL     1       6.785   4.350  13.165  0.00  0.00    +0.000 A 
ATOM     25  F   UNL     1       7.242   4.341  11.907  0.00  0.00    +0.000 F 
ATOM     26  C   UNL     1       7.575   4.887  14.179  0.00  0.00    +0.000 A 
ATOM     27  C   UNL     1       7.105   4.902  15.496  0.00  0.00    +0.000 A 
ENDBRANCH  19  21
ENDBRANCH   7  19
TORSDOF 4
ENDMDL
MODEL 5
REMARK VINA RESULT:      -7.4      2.562      3.409
REMARK  Name = 
REMARK  5 active torsions:
REMARK  status: ('A' for Active; 'I' for Inactive)
REMARK    1  A    between atoms: C_1  and  S_2
REMARK    2  A    between atoms: S_2  and  C_3
REMARK    3  A    between atoms: C_6  and  N_7
REMARK    4  A    between atoms: C_13  and  C_14
REMARK    5  A    between atoms: C_14  and  C_16
REMARK                            x       y       z     vdW  Elec       q    Type
REMARK                         _______ _______ _______ _____ _____    ______ ____
ROOT
ATOM      1  N   UNL     1       1.970   9.121  17.984  0.00  0.00    +0.000 N 
ATOM      2  C   UNL     1       2.238   8.019  18.762  0.00  0.00    +0.000 C 
ATOM      3  O   UNL     1       1.842   7.878  19.918  0.00  0.00    +0.000 OA
ATOM      4  N   UNL     1       2.976   7.016  18.144  0.00  0.00    +0.000 N 
ATOM      5  C   UNL     1       3.124   5.748  18.853  0.00  0.00    +0.000 C 
ATOM      6  C   UNL     1       4.578   5.537  19.264  0.00  0.00    +0.000 C 
ATOM      7  C   UNL     1       5.500   5.562  18.036  0.00  0.00    +0.000 C 
ATOM      8  C   UNL     1       5.276   6.878  17.260  0.00  0.00    +0.000 C 
ATOM      9  C   UNL     1       3.799   7.148  16.940  0.00  0.00    +0.000 C 
ATOM     10  H   UNL     1       1.995   8.971  16.987  0.00  0.00    +0.000 HD
ENDROOT
BRANCH   1  14
ATOM     11  C   UNL     1      -0.126  12.539  19.346  0.00  0.00    +0.000 A 
ATOM     12  C   UNL     1       1.223  12.641  19.011  0.00  0.00    +0.000 A 
ATOM     13  C   UNL     1       1.919  11.528  18.534  0.00  0.00    +0.000 A 
ATOM     14  C   UNL     1       1.292  10.287  18.417  0.00  0.00    +0.000 A 
ATOM     15  C   UNL     1      -0.065  10.186  18.741  0.00  0.00    +0.000 A 
ATOM     16  C   UNL     1      -0.766  11.304  19.214  0.00  0.00    +0.000 A 
BRANCH  11  18
ATOM     17  C   UNL     1      -0.211  15.266  19.027  0.00  0.00    +0.000 C 
ATOM     18  S   UNL     1      -1.033  13.945  19.960  0.00  0.00    +0.000 S 
ENDBRANCH  11  18
ENDBRANCH   1  14
BRANCH   7  19
ATOM     19  C   UNL     1       5.286   4.343  17.130  0.00  0.00    +0.000 C 
ATOM     20  O   UNL     1       4.710   3.330  17.524  0.00  0.00    +0.000 OA
BRANCH  19  21
ATOM     21  C   UNL     1       5.794   4.351  15.726  0.00  0.00    +0.000 A 
ATOM     22  C   UNL     1       7.051   4.931  15.487  0.00  0.00    +0.000 A 
ATOM     23  C   UNL     1       7.585   4.951  14.197  0.00  0.00    +0.000 A 
ATOM     24  C   UNL     1       6.868   4.382  13.153  0.00  0.00    +0.000 A 
ATOM     25  F   UNL     1       7.381   4.392  11.917  0.00  0.00    +0.000 F 
ATOM     26  C   UNL     1       5.624   3.796  13.376  0.00  0.00    +0.000 A 
ATOM     27  C   UNL     1       5.082   3.780  14.665  0.00  0.00    +0.000 A 
ENDBRANCH  19  21
ENDBRANCH   7  19
TORSDOF 4
ENDMDL
MODEL 6
REMARK VINA RESULT:      -7.4      1.396      1.819
REMARK  Name = 
REMARK  5 active torsions:
REMARK  status: ('A' for Active; 'I' for Inactive)
REMARK    1  A    between atoms: C_1  and  S_2
REMARK    2  A    between atoms: S_2  and  C_3
REMARK    3  A    between atoms: C_6  and  N_7
REMARK    4  A    between atoms: C_13  and  C_14
REMARK    5  A    between atoms: C_14  and  C_16
REMARK                            x       y       z     vdW  Elec       q    Type
REMARK                         _______ _______ _______ _____ _____    ______ ____
ROOT
ATOM      1  N   UNL     1       1.184   9.188  20.328  0.00  0.00    +0.000 N 
ATOM      2  C   UNL     1       1.587   8.572  19.166  0.00  0.00    +0.000 C 
ATOM      3  O   UNL     1       1.443   9.054  18.043  0.00  0.00    +0.000 OA
ATOM      4  N   UNL     1       2.222   7.346  19.328  0.00  0.00    +0.000 N 
ATOM      5  C   UNL     1       2.840   6.741  18.151  0.00  0.00    +0.000 C 
ATOM      6  C   UNL     1       2.099   5.465  17.761  0.00  0.00    +0.000 C 
ATOM      7  C   UNL     1       2.093   4.462  18.924  0.00  0.00    +0.000 C 
ATOM      8  C   UNL     1       1.503   5.143  20.178  0.00  0.00    +0.000 C 
ATOM      9  C   UNL     1       2.174   6.484  20.510  0.00  0.00    +0.000 C 
ATOM     10  H   UNL     1       1.678   8.914  21.163  0.00  0.00    +0.000 HD
ENDROOT
BRANCH   1  14
ATOM     11  C   UNL     1      -0.860  12.890  20.542  0.00  0.00    +0.000 A 
ATOM     12  C   UNL     1      -1.507  11.770  20.024  0.00  0.00    +0.000 A 
ATOM     13  C   UNL     1      -0.854  10.537  19.974  0.00  0.00    +0.000 A 
ATOM     14  C   UNL     1       0.467  10.407  20.405  0.00  0.00    +0.000 A 
ATOM     15  C   UNL     1       1.113  11.528  20.936  0.00  0.00    +0.000 A 
ATOM     16  C   UNL     1       0.457  12.765  20.992  0.00  0.00    +0.000 A 
BRANCH  11  18
ATOM     17  C   UNL     1      -2.883  14.135  21.920  0.00  0.00    +0.000 C 
ATOM     18  S   UNL     1      -1.673  14.474  20.613  0.00  0.00    +0.000 S 
ENDBRANCH  11  18
ENDBRANCH   1  14
BRANCH   7  19
ATOM     19  C   UNL     1       3.491   3.898  19.207  0.00  0.00    +0.000 C 
ATOM     20  O   UNL     1       3.755   3.302  20.250  0.00  0.00    +0.000 OA
BRANCH  19  21
ATOM     21  C   UNL     1       4.589   4.075  18.211  0.00  0.00    +0.000 A 
ATOM     22  C   UNL     1       5.777   4.686  18.645  0.00  0.00    +0.000 A 
ATOM     23  C   UNL     1       6.844   4.860  17.763  0.00  0.00    +0.000 A 
ATOM     24  C   UNL     1       6.727   4.415  16.453  0.00  0.00    +0.000 A 
ATOM     25  F   UNL     1       7.752   4.573  15.607  0.00  0.00    +0.000 F 
ATOM     26  C   UNL     1       5.559   3.800  16.010  0.00  0.00    +0.000 A 
ATOM     27  C   UNL     1       4.484   3.629  16.888  0.00  0.00    +0.000 A 
ENDBRANCH  19  21
ENDBRANCH   7  19
TORSDOF 4
ENDMDL
MODEL 7
REMARK VINA RESULT:      -7.4      1.479      1.814
REMARK  Name = 
REMARK  5 active torsions:
REMARK  status: ('A' for Active; 'I' for Inactive)
REMARK    1  A    between atoms: C_1  and  S_2
REMARK    2  A    between atoms: S_2  and  C_3
REMARK    3  A    between atoms: C_6  and  N_7
REMARK    4  A    between atoms: C_13  and  C_14
REMARK    5  A    between atoms: C_14  and  C_16
REMARK                            x       y       z     vdW  Elec       q    Type
REMARK                         _______ _______ _______ _____ _____    ______ ____
ROOT
ATOM      1  N   UNL     1       1.158   9.111  20.302  0.00  0.00    +0.000 N 
ATOM      2  C   UNL     1       1.613   8.518  19.148  0.00  0.00    +0.000 C 
ATOM      3  O   UNL     1       1.504   9.014  18.027  0.00  0.00    +0.000 OA
ATOM      4  N   UNL     1       2.260   7.299  19.316  0.00  0.00    +0.000 N 
ATOM      5  C   UNL     1       2.930   6.720  18.155  0.00  0.00    +0.000 C 
ATOM      6  C   UNL     1       2.225   5.440  17.720  0.00  0.00    +0.000 C 
ATOM      7  C   UNL     1       2.190   4.420  18.867  0.00  0.00    +0.000 C 
ATOM      8  C   UNL     1       1.543   5.074  20.108  0.00  0.00    +0.000 C 
ATOM      9  C   UNL     1       2.181   6.419  20.484  0.00  0.00    +0.000 C 
ATOM     10  H   UNL     1       1.624   8.832  21.152  0.00  0.00    +0.000 HD
ENDROOT
BRANCH   1  14
ATOM     11  C   UNL     1      -0.949  12.779  20.503  0.00  0.00    +0.000 A 
ATOM     12  C   UNL     1      -1.510  11.693  19.834  0.00  0.00    +0.000 A 
ATOM     13  C   UNL     1      -0.838  10.470  19.784  0.00  0.00    +0.000 A 
ATOM     14  C   UNL     1       0.420  10.318  20.369  0.00  0.00    +0.000 A 
ATOM     15  C   UNL     1       0.978  11.403  21.051  0.00  0.00    +0.000 A 
ATOM     16  C   UNL     1       0.303  12.630  21.107  0.00  0.00    +0.000 A 
BRANCH  11  18
ATOM     17  C   UNL     1      -0.520  15.403  19.813  0.00  0.00    +0.000 C 
ATOM     18  S   UNL     1      -1.785  14.350  20.576  0.00  0.00    +0.000 S 
ENDBRANCH  11  18
ENDBRANCH   1  14
BRANCH   7  19
ATOM     19  C   UNL     1       3.585   3.872  19.195  0.00  0.00    +0.000 C 
ATOM     20  O   UNL     1       3.820   3.273  20.243  0.00  0.00    +0.000 OA
BRANCH  19  21
ATOM     21  C   UNL     1       4.714   4.069  18.238  0.00  0.00    +0.000 A 
ATOM     22  C   UNL     1       4.551   3.597  16.926  0.00  0.00    +0.000 A 
ATOM     23  C   UNL     1       5.565   3.769  15.982  0.00  0.00    +0.000 A 
ATOM     24  C   UNL     1       6.735   4.422  16.350  0.00  0.00    +0.000 A 
ATOM     25  F   UNL     1       7.706   4.597  15.445  0.00  0.00    +0.000 F 
ATOM     26  C   UNL     1       6.908   4.904  17.645  0.00  0.00    +0.000 A 
ATOM     27  C   UNL     1       5.897   4.727  18.596  0.00  0.00    +0.000 A 
ENDBRANCH  19  21
ENDBRANCH   7  19
TORSDOF 4
ENDMDL
MODEL 8
REMARK VINA RESULT:      -7.4      1.468      2.416
REMARK  Name = 
REMARK  5 active torsions:
REMARK  status: ('A' for Active; 'I' for Inactive)
REMARK    1  A    between atoms: C_1  and  S_2
REMARK    2  A    between atoms: S_2  and  C_3
REMARK    3  A    between atoms: C_6  and  N_7
REMARK    4  A    between atoms: C_13  and  C_14
REMARK    5  A    between atoms: C_14  and  C_16
REMARK                            x       y       z     vdW  Elec       q    Type
REMARK                         _______ _______ _______ _____ _____    ______ ____
ROOT
ATOM      1  N   UNL     1       1.669   8.002  19.838  0.00  0.00    +0.000 N 
ATOM      2  C   UNL     1       1.753   6.666  20.153  0.00  0.00    +0.000 C 
ATOM      3  O   UNL     1       1.176   6.144  21.107  0.00  0.00    +0.000 OA
ATOM      4  N   UNL     1       2.520   5.895  19.289  0.00  0.00    +0.000 N 
ATOM      5  C   UNL     1       2.487   4.445  19.462  0.00  0.00    +0.000 C 
ATOM      6  C   UNL     1       3.847   3.936  19.931  0.00  0.00    +0.000 C 
ATOM      7  C   UNL     1       4.947   4.320  18.931  0.00  0.00    +0.000 C 
ATOM      8  C   UNL     1       4.919   5.847  18.706  0.00  0.00    +0.000 C 
ATOM      9  C   UNL     1       3.525   6.379  18.340  0.00  0.00    +0.000 C 
ATOM     10  H   UNL     1       1.839   8.236  18.872  0.00  0.00    +0.000 HD
ENDROOT
BRANCH   1  14
ATOM     11  C   UNL     1      -0.419  10.953  22.044  0.00  0.00    +0.000 A 
ATOM     12  C   UNL     1       0.274   9.947  22.715  0.00  0.00    +0.000 A 
ATOM     13  C   UNL     1       0.990   8.984  22.000  0.00  0.00    +0.000 A 
ATOM     14  C   UNL     1       0.997   8.986  20.605  0.00  0.00    +0.000 A 
ATOM     15  C   UNL     1       0.312  10.001  19.931  0.00  0.00    +0.000 A 
ATOM     16  C   UNL     1      -0.403  10.971  20.647  0.00  0.00    +0.000 A 
BRANCH  11  18
ATOM     17  C   UNL     1      -2.526  12.669  21.647  0.00  0.00    +0.000 C 
ATOM     18  S   UNL     1      -1.342  12.189  22.935  0.00  0.00    +0.000 S 
ENDBRANCH  11  18
ENDBRANCH   1  14
BRANCH   7  19
ATOM     19  C   UNL     1       4.809   3.563  17.604  0.00  0.00    +0.000 C 
ATOM     20  O   UNL     1       4.108   2.558  17.496  0.00  0.00    +0.000 OA
BRANCH  19  21
ATOM     21  C   UNL     1       5.546   4.029  16.392  0.00  0.00    +0.000 A 
ATOM     22  C   UNL     1       6.851   4.520  16.566  0.00  0.00    +0.000 A 
ATOM     23  C   UNL     1       7.595   4.952  15.467  0.00  0.00    +0.000 A 
ATOM     24  C   UNL     1       7.039   4.882  14.197  0.00  0.00    +0.000 A 
ATOM     25  F   UNL     1       7.753   5.288  13.140  0.00  0.00    +0.000 F 
ATOM     26  C   UNL     1       5.750   4.390  14.007  0.00  0.00    +0.000 A 
ATOM     27  C   UNL     1       4.998   3.962  15.105  0.00  0.00    +0.000 A 
ENDBRANCH  19  21
ENDBRANCH   7  19
TORSDOF 4
ENDMDL
MODEL 9
REMARK VINA RESULT:      -7.3      2.155      2.959
REMARK  Name = 
REMARK  5 active torsions:
REMARK  status: ('A' for Active; 'I' for Inactive)
REMARK    1  A    between atoms: C_1  and  S_2
REMARK    2  A    between atoms: S_2  and  C_3
REMARK    3  A    between atoms: C_6  and  N_7
REMARK    4  A    between atoms: C_13  and  C_14
REMARK    5  A    between atoms: C_14  and  C_16
REMARK                            x       y       z     vdW  Elec       q    Type
REMARK                         _______ _______ _______ _____ _____    ______ ____
ROOT
ATOM      1  N   UNL     1       1.701   8.938  18.298  0.00  0.00    +0.000 N 
ATOM      2  C   UNL     1       2.102   7.845  19.031  0.00  0.00    +0.000 C 
ATOM      3  O   UNL     1       1.800   7.656  20.209  0.00  0.00    +0.000 OA
ATOM      4  N   UNL     1       2.863   6.909  18.342  0.00  0.00    +0.000 N 
ATOM      5  C   UNL     1       3.151   5.643  19.011  0.00  0.00    +0.000 C 
ATOM      6  C   UNL     1       4.642   5.532  19.314  0.00  0.00    +0.000 C 
ATOM      7  C   UNL     1       5.471   5.644  18.026  0.00  0.00    +0.000 C 
ATOM      8  C   UNL     1       5.099   6.953  17.297  0.00  0.00    +0.000 C 
ATOM      9  C   UNL     1       3.588   7.121  17.087  0.00  0.00    +0.000 C 
ATOM     10  H   UNL     1       1.666   8.807  17.299  0.00  0.00    +0.000 HD
ENDROOT
BRANCH   1  14
ATOM     11  C   UNL     1      -0.568  12.177  19.811  0.00  0.00    +0.000 A 
ATOM     12  C   UNL     1       0.786  12.074  20.123  0.00  0.00    +0.000 A 
ATOM     13  C   UNL     1       1.553  11.026  19.608  0.00  0.00    +0.000 A 
ATOM     14  C   UNL     1       0.974  10.044  18.803  0.00  0.00    +0.000 A 
ATOM     15  C   UNL     1      -0.381  10.153  18.479  0.00  0.00    +0.000 A 
ATOM     16  C   UNL     1      -1.151  11.207  18.991  0.00  0.00    +0.000 A 
BRANCH  11  18
ATOM     17  C   UNL     1      -1.019  13.475  22.189  0.00  0.00    +0.000 C 
ATOM     18  S   UNL     1      -1.566  13.503  20.460  0.00  0.00    +0.000 S 
ENDBRANCH  11  18
ENDBRANCH   1  14
BRANCH   7  19
ATOM     19  C   UNL     1       5.281   4.428  17.110  0.00  0.00    +0.000 C 
ATOM     20  O   UNL     1       4.651   3.434  17.469  0.00  0.00    +0.000 OA
BRANCH  19  21
ATOM     21  C   UNL     1       5.878   4.416  15.742  0.00  0.00    +0.000 A 
ATOM     22  C   UNL     1       5.119   3.860  14.700  0.00  0.00    +0.000 A 
ATOM     23  C   UNL     1       5.619   3.838  13.397  0.00  0.00    +0.000 A 
ATOM     24  C   UNL     1       6.870   4.382  13.136  0.00  0.00    +0.000 A 
ATOM     25  F   UNL     1       7.348   4.371  11.886  0.00  0.00    +0.000 F 
ATOM     26  C   UNL     1       7.630   4.946  14.158  0.00  0.00    +0.000 A 
ATOM     27  C   UNL     1       7.137   4.963  15.467  0.00  0.00    +0.000 A 
ENDBRANCH  19  21
ENDBRANCH   7  19
TORSDOF 4
ENDMDL
