MODEL 1
REMARK VINA RESULT:      -9.3      0.000      0.000
REMARK  Name = 
REMARK  5 active torsions:
REMARK  status: ('A' for Active; 'I' for Inactive)
REMARK    1  A    between atoms: C_2  and  C_4
REMARK    2  A    between atoms: C_9  and  N_10
REMARK    3  A    between atoms: N_10  and  C_11
REMARK    4  A    between atoms: C_14  and  C_15
REMARK    5  A    between atoms: C_16  and  C_17
REMARK                            x       y       z     vdW  Elec       q    Type
REMARK                         _______ _______ _______ _____ _____    ______ ____
ROOT
ATOM      1  C   UNL     1       5.740   5.411  18.054  0.00  0.00    +0.000 A 
ATOM      2  C   UNL     1       5.446   6.499  17.226  0.00  0.00    +0.000 A 
ATOM      3  C   UNL     1       6.314   7.599  17.144  0.00  0.00    +0.000 A 
ATOM      4  C   UNL     1       7.490   7.641  17.904  0.00  0.00    +0.000 A 
ATOM      5  C   UNL     1       7.827   6.516  18.662  0.00  0.00    +0.000 A 
ATOM      6  C   UNL     1       6.965   5.414  18.731  0.00  0.00    +0.000 A 
ENDROOT
BRANCH   1   7
ATOM      7  N   UNL     1       4.808   4.357  18.185  0.00  0.00    +0.000 N 
ATOM      8  H   UNL     1       4.636   3.864  17.311  0.00  0.00    +0.000 HD
BRANCH   7  14
ATOM      9  C   UNL     1       3.640   2.987  19.912  0.00  0.00    +0.000 A 
ATOM     10  C   UNL     1       2.608   2.893  20.867  0.00  0.00    +0.000 A 
ATOM     11  C   UNL     1       1.746   3.960  21.101  0.00  0.00    +0.000 A 
ATOM     12  C   UNL     1       1.911   5.141  20.390  0.00  0.00    +0.000 A 
ATOM     13  C   UNL     1       2.928   5.244  19.439  0.00  0.00    +0.000 A 
ATOM     14  C   UNL     1       3.811   4.177  19.171  0.00  0.00    +0.000 A 
BRANCH   9  16
ATOM     15  N   UNL     1       4.265   0.954  18.700  0.00  0.00    +0.000 N 
ATOM     16  C   UNL     1       4.482   1.767  19.777  0.00  0.00    +0.000 C 
ATOM     17  O   UNL     1       5.299   1.449  20.628  0.00  0.00    +0.000 OA
ATOM     18  H   UNL     1       4.699   0.042  18.778  0.00  0.00    +0.000 HD
ATOM     19  H   UNL     1       3.387   1.000  18.203  0.00  0.00    +0.000 HD
ENDBRANCH   9  16
ENDBRANCH   7  14
ENDBRANCH   1   7
BRANCH   4  20
ATOM     20  C   UNL     1       8.318   8.862  17.883  0.00  0.00    +0.000 C 
ATOM     21  C   UNL     1       8.931   9.366  18.966  0.00  0.00    +0.000 C 
BRANCH  21  22
ATOM     22  C   UNL     1       9.662  10.645  19.000  0.00  0.00    +0.000 A 
ATOM     23  C   UNL     1       9.934  11.228  20.248  0.00  0.00    +0.000 A 
ATOM     24  C   UNL     1      10.603  12.452  20.336  0.00  0.00    +0.000 A 
ATOM     25  C   UNL     1      11.021  13.102  19.178  0.00  0.00    +0.000 A 
ATOM     26  C   UNL     1      10.784  12.520  17.934  0.00  0.00    +0.000 A 
ATOM     27  C   UNL     1      10.116  11.296  17.847  0.00  0.00    +0.000 A 
ENDBRANCH  21  22
ENDBRANCH   4  20
TORSDOF 5
ENDMDL
MODEL 2
REMARK VINA RESULT:      -9.3      1.028      1.444
REMARK  Name = 
REMARK  5 active torsions:
REMARK  status: ('A' for Active; 'I' for Inactive)
REMARK    1  A    between atoms: C_2  and  C_4
REMARK    2  A    between atoms: C_9  and  N_10
REMARK    3  A    between atoms: N_10  and  C_11
REMARK    4  A    between atoms: C_14  and  C_15
REMARK    5  A    between atoms: C_16  and  C_17
REMARK                            x       y       z     vdW  Elec       q    Type
REMARK                         _______ _______ _______ _____ _____    ______ ____
ROOT
ATOM      1  C   UNL     1       6.195   5.090  17.682  0.00  0.00    +0.000 A 
ATOM      2  C   UNL     1       6.064   6.063  16.687  0.00  0.00    +0.000 A 
ATOM      3  C   UNL     1       6.784   7.266  16.754  0.00  0.00    +0.000 A 
ATOM      4  C   UNL     1       7.641   7.529  17.830  0.00  0.00    +0.000 A 
ATOM      5  C   UNL     1       7.840   6.520  18.777  0.00  0.00    +0.000 A 
ATOM      6  C   UNL     1       7.129   5.315  18.700  0.00  0.00    +0.000 A 
ENDROOT
BRANCH   1   7
ATOM      7  N   UNL     1       5.394   3.927  17.637  0.00  0.00    +0.000 N 
ATOM      8  H   UNL     1       5.730   3.235  16.970  0.00  0.00    +0.000 HD
BRANCH   7  14
ATOM      9  C   UNL     1       3.575   2.734  18.859  0.00  0.00    +0.000 A 
ATOM     10  C   UNL     1       2.205   2.649  19.177  0.00  0.00    +0.000 A 
ATOM     11  C   UNL     1       1.292   3.573  18.680  0.00  0.00    +0.000 A 
ATOM     12  C   UNL     1       1.739   4.606  17.866  0.00  0.00    +0.000 A 
ATOM     13  C   UNL     1       3.094   4.698  17.541  0.00  0.00    +0.000 A 
ATOM     14  C   UNL     1       4.042   3.770  18.020  0.00  0.00    +0.000 A 
BRANCH   9  16
ATOM     15  N   UNL     1       4.457   0.450  18.864  0.00  0.00    +0.000 N 
ATOM     16  C   UNL     1       4.428   1.677  19.468  0.00  0.00    +0.000 C 
ATOM     17  O   UNL     1       5.034   1.859  20.513  0.00  0.00    +0.000 OA
ATOM     18  H   UNL     1       4.864  -0.280  19.436  0.00  0.00    +0.000 HD
ATOM     19  H   UNL     1       3.712   0.179  18.239  0.00  0.00    +0.000 HD
ENDBRANCH   9  16
ENDBRANCH   7  14
ENDBRANCH   1   7
BRANCH   4  20
ATOM     20  C   UNL     1       8.290   8.849  17.928  0.00  0.00    +0.000 C 
ATOM     21  C   UNL     1       8.971   9.268  19.008  0.00  0.00    +0.000 C 
BRANCH  21  22
ATOM     22  C   UNL     1       9.525  10.622  19.180  0.00  0.00    +0.000 A 
ATOM     23  C   UNL     1       9.827  11.374  18.033  0.00  0.00    +0.000 A 
ATOM     24  C   UNL     1      10.376  12.654  18.140  0.00  0.00    +0.000 A 
ATOM     25  C   UNL     1      10.619  13.205  19.395  0.00  0.00    +0.000 A 
ATOM     26  C   UNL     1      10.297  12.482  20.542  0.00  0.00    +0.000 A 
ATOM     27  C   UNL     1       9.745  11.202  20.435  0.00  0.00    +0.000 A 
ENDBRANCH  21  22
ENDBRANCH   4  20
TORSDOF 5
ENDMDL
MODEL 3
REMARK VINA RESULT:      -9.2      0.719      1.217
REMARK  Name = 
REMARK  5 active torsions:
REMARK  status: ('A' for Active; 'I' for Inactive)
REMARK    1  A    between atoms: C_2  and  C_4
REMARK    2  A    between atoms: C_9  and  N_10
REMARK    3  A    between atoms: N_10  and  C_11
REMARK    4  A    between atoms: C_14  and  C_15
REMARK    5  A    between atoms: C_16  and  C_17
REMARK                            x       y       z     vdW  Elec       q    Type
REMARK                         _______ _______ _______ _____ _____    ______ ____
ROOT
ATOM      1  C   UNL     1       5.807   5.587  18.022  0.00  0.00    +0.000 A 
ATOM      2  C   UNL     1       5.568   6.677  17.179  0.00  0.00    +0.000 A 
ATOM      3  C   UNL     1       6.463   7.756  17.124  0.00  0.00    +0.000 A 
ATOM      4  C   UNL     1       7.611   7.776  17.925  0.00  0.00    +0.000 A 
ATOM      5  C   UNL     1       7.895   6.648  18.700  0.00  0.00    +0.000 A 
ATOM      6  C   UNL     1       7.007   5.567  18.743  0.00  0.00    +0.000 A 
ENDROOT
BRANCH   1   7
ATOM      7  N   UNL     1       4.848   4.555  18.125  0.00  0.00    +0.000 N 
ATOM      8  H   UNL     1       4.711   4.048  17.253  0.00  0.00    +0.000 HD
BRANCH   7  14
ATOM      9  C   UNL     1       3.413   3.184  19.638  0.00  0.00    +0.000 A 
ATOM     10  C   UNL     1       2.343   3.138  20.554  0.00  0.00    +0.000 A 
ATOM     11  C   UNL     1       1.651   4.291  20.909  0.00  0.00    +0.000 A 
ATOM     12  C   UNL     1       2.027   5.510  20.361  0.00  0.00    +0.000 A 
ATOM     13  C   UNL     1       3.083   5.568  19.450  0.00  0.00    +0.000 A 
ATOM     14  C   UNL     1       3.797   4.415  19.062  0.00  0.00    +0.000 A 
BRANCH   9  16
ATOM     15  N   UNL     1       5.147   1.521  20.108  0.00  0.00    +0.000 N 
ATOM     16  C   UNL     1       4.058   1.871  19.360  0.00  0.00    +0.000 C 
ATOM     17  O   UNL     1       3.683   1.148  18.449  0.00  0.00    +0.000 OA
ATOM     18  H   UNL     1       5.671   0.740  19.731  0.00  0.00    +0.000 HD
ATOM     19  H   UNL     1       5.674   2.231  20.594  0.00  0.00    +0.000 HD
ENDBRANCH   9  16
ENDBRANCH   7  14
ENDBRANCH   1   7
BRANCH   4  20
ATOM     20  C   UNL     1       8.467   8.978  17.927  0.00  0.00    +0.000 C 
ATOM     21  C   UNL     1       9.007   9.507  19.038  0.00  0.00    +0.000 C 
BRANCH  21  22
ATOM     22  C   UNL     1       9.763  10.770  19.086  0.00  0.00    +0.000 A 
ATOM     23  C   UNL     1      10.213  11.329  17.879  0.00  0.00    +0.000 A 
ATOM     24  C   UNL     1      10.954  12.513  17.870  0.00  0.00    +0.000 A 
ATOM     25  C   UNL     1      11.245  13.161  19.067  0.00  0.00    +0.000 A 
ATOM     26  C   UNL     1      10.780  12.634  20.270  0.00  0.00    +0.000 A 
ATOM     27  C   UNL     1      10.037  11.451  20.279  0.00  0.00    +0.000 A 
ENDBRANCH  21  22
ENDBRANCH   4  20
TORSDOF 5
ENDMDL
MODEL 4
REMARK VINA RESULT:      -9.1      1.887      2.501
REMARK  Name = 
REMARK  5 active torsions:
REMARK  status: ('A' for Active; 'I' for Inactive)
REMARK    1  A    between atoms: C_2  and  C_4
REMARK    2  A    between atoms: C_9  and  N_10
REMARK    3  A    between atoms: N_10  and  C_11
REMARK    4  A    between atoms: C_14  and  C_15
REMARK    5  A    between atoms: C_16  and  C_17
REMARK                            x       y       z     vdW  Elec       q    Type
REMARK                         _______ _______ _______ _____ _____    ______ ____
ROOT
ATOM      1  C   UNL     1       5.573   5.463  17.299  0.00  0.00    +0.000 A 
ATOM      2  C   UNL     1       5.637   6.761  16.783  0.00  0.00    +0.000 A 
ATOM      3  C   UNL     1       6.655   7.644  17.175  0.00  0.00    +0.000 A 
ATOM      4  C   UNL     1       7.623   7.252  18.107  0.00  0.00    +0.000 A 
ATOM      5  C   UNL     1       7.611   5.928  18.554  0.00  0.00    +0.000 A 
ATOM      6  C   UNL     1       6.602   5.045  18.151  0.00  0.00    +0.000 A 
ENDROOT
BRANCH   1   7
ATOM      7  N   UNL     1       4.490   4.623  16.955  0.00  0.00    +0.000 N 
ATOM      8  H   UNL     1       4.111   4.817  16.031  0.00  0.00    +0.000 HD
BRANCH   7  14
ATOM      9  C   UNL     1       2.735   4.513  18.725  0.00  0.00    +0.000 A 
ATOM     10  C   UNL     1       1.915   3.716  19.549  0.00  0.00    +0.000 A 
ATOM     11  C   UNL     1       1.960   2.327  19.479  0.00  0.00    +0.000 A 
ATOM     12  C   UNL     1       2.818   1.716  18.575  0.00  0.00    +0.000 A 
ATOM     13  C   UNL     1       3.637   2.495  17.756  0.00  0.00    +0.000 A 
ATOM     14  C   UNL     1       3.622   3.905  17.811  0.00  0.00    +0.000 A 
BRANCH   9  16
ATOM     15  N   UNL     1       2.629   6.477  20.183  0.00  0.00    +0.000 N 
ATOM     16  C   UNL     1       2.572   5.981  18.911  0.00  0.00    +0.000 C 
ATOM     17  O   UNL     1       2.324   6.727  17.974  0.00  0.00    +0.000 OA
ATOM     18  H   UNL     1       2.292   7.428  20.270  0.00  0.00    +0.000 HD
ATOM     19  H   UNL     1       2.473   5.864  20.970  0.00  0.00    +0.000 HD
ENDBRANCH   9  16
ENDBRANCH   7  14
ENDBRANCH   1   7
BRANCH   4  20
ATOM     20  C   UNL     1       8.606   8.243  18.584  0.00  0.00    +0.000 C 
ATOM     21  C   UNL     1       8.496   9.565  18.372  0.00  0.00    +0.000 C 
BRANCH  21  22
ATOM     22  C   UNL     1       9.519  10.562  18.730  0.00  0.00    +0.000 A 
ATOM     23  C   UNL     1       9.699  10.881  20.086  0.00  0.00    +0.000 A 
ATOM     24  C   UNL     1      10.639  11.837  20.478  0.00  0.00    +0.000 A 
ATOM     25  C   UNL     1      11.421  12.478  19.521  0.00  0.00    +0.000 A 
ATOM     26  C   UNL     1      11.274  12.151  18.175  0.00  0.00    +0.000 A 
ATOM     27  C   UNL     1      10.335  11.193  17.783  0.00  0.00    +0.000 A 
ENDBRANCH  21  22
ENDBRANCH   4  20
TORSDOF 5
ENDMDL
MODEL 5
REMARK VINA RESULT:      -9.1      1.029      1.437
REMARK  Name = 
REMARK  5 active torsions:
REMARK  status: ('A' for Active; 'I' for Inactive)
REMARK    1  A    between atoms: C_2  and  C_4
REMARK    2  A    between atoms: C_9  and  N_10
REMARK    3  A    between atoms: N_10  and  C_11
REMARK    4  A    between atoms: C_14  and  C_15
REMARK    5  A    between atoms: C_16  and  C_17
REMARK                            x       y       z     vdW  Elec       q    Type
REMARK                         _______ _______ _______ _____ _____    ______ ____
ROOT
ATOM      1  C   UNL     1       5.929   5.063  17.833  0.00  0.00    +0.000 A 
ATOM      2  C   UNL     1       7.019   5.173  18.702  0.00  0.00    +0.000 A 
ATOM      3  C   UNL     1       7.792   6.343  18.746  0.00  0.00    +0.000 A 
ATOM      4  C   UNL     1       7.500   7.426  17.907  0.00  0.00    +0.000 A 
ATOM      5  C   UNL     1       6.358   7.349  17.104  0.00  0.00    +0.000 A 
ATOM      6  C   UNL     1       5.581   6.185  17.072  0.00  0.00    +0.000 A 
ENDROOT
BRANCH   1   7
ATOM      7  N   UNL     1       5.221   3.843  17.745  0.00  0.00    +0.000 N 
ATOM      8  H   UNL     1       5.604   3.207  17.048  0.00  0.00    +0.000 HD
BRANCH   7  14
ATOM      9  C   UNL     1       3.532   2.583  19.081  0.00  0.00    +0.000 A 
ATOM     10  C   UNL     1       2.175   2.366  19.393  0.00  0.00    +0.000 A 
ATOM     11  C   UNL     1       1.169   3.105  18.781  0.00  0.00    +0.000 A 
ATOM     12  C   UNL     1       1.506   4.083  17.855  0.00  0.00    +0.000 A 
ATOM     13  C   UNL     1       2.847   4.305  17.535  0.00  0.00    +0.000 A 
ATOM     14  C   UNL     1       3.889   3.564  18.131  0.00  0.00    +0.000 A 
BRANCH   9  16
ATOM     15  N   UNL     1       4.781   0.489  19.297  0.00  0.00    +0.000 N 
ATOM     16  C   UNL     1       4.492   1.719  19.820  0.00  0.00    +0.000 C 
ATOM     17  O   UNL     1       4.964   2.051  20.897  0.00  0.00    +0.000 OA
ATOM     18  H   UNL     1       5.253  -0.132  19.943  0.00  0.00    +0.000 HD
ATOM     19  H   UNL     1       4.152   0.064  18.632  0.00  0.00    +0.000 HD
ENDBRANCH   9  16
ENDBRANCH   7  14
ENDBRANCH   1   7
BRANCH   4  20
ATOM     20  C   UNL     1       8.402   8.592  17.896  0.00  0.00    +0.000 C 
ATOM     21  C   UNL     1       8.734   9.289  18.996  0.00  0.00    +0.000 C 
BRANCH  21  22
ATOM     22  C   UNL     1       9.534  10.526  18.998  0.00  0.00    +0.000 A 
ATOM     23  C   UNL     1       9.976  11.036  20.230  0.00  0.00    +0.000 A 
ATOM     24  C   UNL     1      10.718  12.218  20.290  0.00  0.00    +0.000 A 
ATOM     25  C   UNL     1      11.038  12.900  19.120  0.00  0.00    +0.000 A 
ATOM     26  C   UNL     1      10.631  12.391  17.889  0.00  0.00    +0.000 A 
ATOM     27  C   UNL     1       9.891  11.207  17.828  0.00  0.00    +0.000 A 
ENDBRANCH  21  22
ENDBRANCH   4  20
TORSDOF 5
ENDMDL
MODEL 6
REMARK VINA RESULT:      -9.0      1.103      1.174
REMARK  Name = 
REMARK  5 active torsions:
REMARK  status: ('A' for Active; 'I' for Inactive)
REMARK    1  A    between atoms: C_2  and  C_4
REMARK    2  A    between atoms: C_9  and  N_10
REMARK    3  A    between atoms: N_10  and  C_11
REMARK    4  A    between atoms: C_14  and  C_15
REMARK    5  A    between atoms: C_16  and  C_17
REMARK                            x       y       z     vdW  Elec       q    Type
REMARK                         _______ _______ _______ _____ _____    ______ ____
ROOT
ATOM      1  C   UNL     1       6.070   4.936  17.973  0.00  0.00    +0.000 A 
ATOM      2  C   UNL     1       5.788   5.910  17.010  0.00  0.00    +0.000 A 
ATOM      3  C   UNL     1       6.508   7.114  16.968  0.00  0.00    +0.000 A 
ATOM      4  C   UNL     1       7.518   7.376  17.903  0.00  0.00    +0.000 A 
ATOM      5  C   UNL     1       7.859   6.367  18.807  0.00  0.00    +0.000 A 
ATOM      6  C   UNL     1       7.147   5.161  18.837  0.00  0.00    +0.000 A 
ENDROOT
BRANCH   1   7
ATOM      7  N   UNL     1       5.273   3.771  18.048  0.00  0.00    +0.000 N 
ATOM      8  H   UNL     1       5.674   2.979  17.550  0.00  0.00    +0.000 HD
BRANCH   7  14
ATOM      9  C   UNL     1       3.342   2.932  19.387  0.00  0.00    +0.000 A 
ATOM     10  C   UNL     1       1.945   2.870  19.562  0.00  0.00    +0.000 A 
ATOM     11  C   UNL     1       1.081   3.524  18.690  0.00  0.00    +0.000 A 
ATOM     12  C   UNL     1       1.604   4.260  17.635  0.00  0.00    +0.000 A 
ATOM     13  C   UNL     1       2.986   4.325  17.449  0.00  0.00    +0.000 A 
ATOM     14  C   UNL     1       3.887   3.665  18.310  0.00  0.00    +0.000 A 
BRANCH   9  16
ATOM     15  N   UNL     1       5.173   1.411  19.961  0.00  0.00    +0.000 N 
ATOM     16  C   UNL     1       4.135   2.185  20.401  0.00  0.00    +0.000 C 
ATOM     17  O   UNL     1       3.840   2.196  21.587  0.00  0.00    +0.000 OA
ATOM     18  H   UNL     1       5.525   0.763  20.655  0.00  0.00    +0.000 HD
ATOM     19  H   UNL     1       5.204   1.111  18.998  0.00  0.00    +0.000 HD
ENDBRANCH   9  16
ENDBRANCH   7  14
ENDBRANCH   1   7
BRANCH   4  20
ATOM     20  C   UNL     1       8.173   8.698  17.903  0.00  0.00    +0.000 C 
ATOM     21  C   UNL     1       8.905   9.167  18.926  0.00  0.00    +0.000 C 
BRANCH  21  22
ATOM     22  C   UNL     1       9.469  10.526  19.004  0.00  0.00    +0.000 A 
ATOM     23  C   UNL     1       9.639  11.110  20.270  0.00  0.00    +0.000 A 
ATOM     24  C   UNL     1      10.147  12.405  20.398  0.00  0.00    +0.000 A 
ATOM     25  C   UNL     1      10.503  13.129  19.264  0.00  0.00    +0.000 A 
ATOM     26  C   UNL     1      10.367  12.552  18.003  0.00  0.00    +0.000 A 
ATOM     27  C   UNL     1       9.861  11.255  17.875  0.00  0.00    +0.000 A 
ENDBRANCH  21  22
ENDBRANCH   4  20
TORSDOF 5
ENDMDL
MODEL 7
REMARK VINA RESULT:      -8.9      1.187      1.247
REMARK  Name = 
REMARK  5 active torsions:
REMARK  status: ('A' for Active; 'I' for Inactive)
REMARK    1  A    between atoms: C_2  and  C_4
REMARK    2  A    between atoms: C_9  and  N_10
REMARK    3  A    between atoms: N_10  and  C_11
REMARK    4  A    between atoms: C_14  and  C_15
REMARK    5  A    between atoms: C_16  and  C_17
REMARK                            x       y       z     vdW  Elec       q    Type
REMARK                         _______ _______ _______ _____ _____    ______ ____
ROOT
ATOM      1  C   UNL     1       5.754   5.392  18.309  0.00  0.00    +0.000 A 
ATOM      2  C   UNL     1       5.475   6.344  17.324  0.00  0.00    +0.000 A 
ATOM      3  C   UNL     1       6.361   7.404  17.073  0.00  0.00    +0.000 A 
ATOM      4  C   UNL     1       7.539   7.544  17.818  0.00  0.00    +0.000 A 
ATOM      5  C   UNL     1       7.859   6.544  18.740  0.00  0.00    +0.000 A 
ATOM      6  C   UNL     1       6.980   5.480  18.978  0.00  0.00    +0.000 A 
ENDROOT
BRANCH   1   7
ATOM      7  N   UNL     1       4.805   4.386  18.601  0.00  0.00    +0.000 N 
ATOM      8  H   UNL     1       4.886   3.572  17.995  0.00  0.00    +0.000 HD
BRANCH   7  14
ATOM      9  C   UNL     1       2.625   3.459  19.385  0.00  0.00    +0.000 A 
ATOM     10  C   UNL     1       1.402   3.679  20.050  0.00  0.00    +0.000 A 
ATOM     11  C   UNL     1       1.094   4.920  20.597  0.00  0.00    +0.000 A 
ATOM     12  C   UNL     1       2.011   5.958  20.497  0.00  0.00    +0.000 A 
ATOM     13  C   UNL     1       3.224   5.753  19.836  0.00  0.00    +0.000 A 
ATOM     14  C   UNL     1       3.560   4.510  19.262  0.00  0.00    +0.000 A 
BRANCH   9  16
ATOM     15  N   UNL     1       1.712   1.413  18.399  0.00  0.00    +0.000 N 
ATOM     16  C   UNL     1       2.814   2.080  18.857  0.00  0.00    +0.000 C 
ATOM     17  O   UNL     1       3.899   1.520  18.888  0.00  0.00    +0.000 OA
ATOM     18  H   UNL     1       1.858   0.419  18.267  0.00  0.00    +0.000 HD
ATOM     19  H   UNL     1       0.790   1.703  18.690  0.00  0.00    +0.000 HD
ENDBRANCH   9  16
ENDBRANCH   7  14
ENDBRANCH   1   7
BRANCH   4  20
ATOM     20  C   UNL     1       8.386   8.733  17.609  0.00  0.00    +0.000 C 
ATOM     21  C   UNL     1       8.633   9.649  18.560  0.00  0.00    +0.000 C 
BRANCH  21  22
ATOM     22  C   UNL     1       9.374  10.905  18.346  0.00  0.00    +0.000 A 
ATOM     23  C   UNL     1      10.733  10.949  18.696  0.00  0.00    +0.000 A 
ATOM     24  C   UNL     1      11.476  12.122  18.536  0.00  0.00    +0.000 A 
ATOM     25  C   UNL     1      10.873  13.261  18.011  0.00  0.00    +0.000 A 
ATOM     26  C   UNL     1       9.533  13.223  17.632  0.00  0.00    +0.000 A 
ATOM     27  C   UNL     1       8.791  12.050  17.790  0.00  0.00    +0.000 A 
ENDBRANCH  21  22
ENDBRANCH   4  20
TORSDOF 5
ENDMDL
MODEL 8
REMARK VINA RESULT:      -8.8      1.610      2.357
REMARK  Name = 
REMARK  5 active torsions:
REMARK  status: ('A' for Active; 'I' for Inactive)
REMARK    1  A    between atoms: C_2  and  C_4
REMARK    2  A    between atoms: C_9  and  N_10
REMARK    3  A    between atoms: N_10  and  C_11
REMARK    4  A    between atoms: C_14  and  C_15
REMARK    5  A    between atoms: C_16  and  C_17
REMARK                            x       y       z     vdW  Elec       q    Type
REMARK                         _______ _______ _______ _____ _____    ______ ____
ROOT
ATOM      1  C   UNL     1       5.685   5.140  18.102  0.00  0.00    +0.000 A 
ATOM      2  C   UNL     1       5.497   6.109  17.112  0.00  0.00    +0.000 A 
ATOM      3  C   UNL     1       6.369   7.203  16.997  0.00  0.00    +0.000 A 
ATOM      4  C   UNL     1       7.441   7.360  17.884  0.00  0.00    +0.000 A 
ATOM      5  C   UNL     1       7.681   6.346  18.816  0.00  0.00    +0.000 A 
ATOM      6  C   UNL     1       6.816   5.248  18.919  0.00  0.00    +0.000 A 
ENDROOT
BRANCH   1   7
ATOM      7  N   UNL     1       4.744   4.097  18.252  0.00  0.00    +0.000 N 
ATOM      8  H   UNL     1       4.414   3.725  17.364  0.00  0.00    +0.000 HD
BRANCH   7  14
ATOM      9  C   UNL     1       2.884   4.664  19.816  0.00  0.00    +0.000 A 
ATOM     10  C   UNL     1       2.112   4.301  20.937  0.00  0.00    +0.000 A 
ATOM     11  C   UNL     1       2.340   3.105  21.610  0.00  0.00    +0.000 A 
ATOM     12  C   UNL     1       3.337   2.248  21.163  0.00  0.00    +0.000 A 
ATOM     13  C   UNL     1       4.111   2.599  20.055  0.00  0.00    +0.000 A 
ATOM     14  C   UNL     1       3.911   3.809  19.359  0.00  0.00    +0.000 A 
BRANCH   9  16
ATOM     15  N   UNL     1       2.453   7.066  20.014  0.00  0.00    +0.000 N 
ATOM     16  C   UNL     1       2.521   5.970  19.200  0.00  0.00    +0.000 C 
ATOM     17  O   UNL     1       2.221   6.065  18.019  0.00  0.00    +0.000 OA
ATOM     18  H   UNL     1       1.990   7.862  19.594  0.00  0.00    +0.000 HD
ATOM     19  H   UNL     1       2.342   6.947  21.010  0.00  0.00    +0.000 HD
ENDBRANCH   9  16
ENDBRANCH   7  14
ENDBRANCH   1   7
BRANCH   4  20
ATOM     20  C   UNL     1       8.266   8.580  17.809  0.00  0.00    +0.000 C 
ATOM     21  C   UNL     1       8.672   9.274  18.885  0.00  0.00    +0.000 C 
BRANCH  21  22
ATOM     22  C   UNL     1       9.392  10.558  18.836  0.00  0.00    +0.000 A 
ATOM     23  C   UNL     1      10.406  10.795  19.777  0.00  0.00    +0.000 A 
ATOM     24  C   UNL     1      11.104  12.006  19.789  0.00  0.00    +0.000 A 
ATOM     25  C   UNL     1      10.805  12.990  18.852  0.00  0.00    +0.000 A 
ATOM     26  C   UNL     1       9.821  12.758  17.894  0.00  0.00    +0.000 A 
ATOM     27  C   UNL     1       9.125  11.546  17.881  0.00  0.00    +0.000 A 
ENDBRANCH  21  22
ENDBRANCH   4  20
TORSDOF 5
ENDMDL
MODEL 9
REMARK VINA RESULT:      -8.8      1.455      1.673
REMARK  Name = 
REMARK  5 active torsions:
REMARK  status: ('A' for Active; 'I' for Inactive)
REMARK    1  A    between atoms: C_2  and  C_4
REMARK    2  A    between atoms: C_9  and  N_10
REMARK    3  A    between atoms: N_10  and  C_11
REMARK    4  A    between atoms: C_14  and  C_15
REMARK    5  A    between atoms: C_16  and  C_17
REMARK                            x       y       z     vdW  Elec       q    Type
REMARK                         _______ _______ _______ _____ _____    ______ ____
ROOT
ATOM      1  C   UNL     1       6.137   5.001  18.501  0.00  0.00    +0.000 A 
ATOM      2  C   UNL     1       5.733   5.818  17.440  0.00  0.00    +0.000 A 
ATOM      3  C   UNL     1       6.442   6.986  17.119  0.00  0.00    +0.000 A 
ATOM      4  C   UNL     1       7.562   7.372  17.866  0.00  0.00    +0.000 A 
ATOM      5  C   UNL     1       8.016   6.510  18.868  0.00  0.00    +0.000 A 
ATOM      6  C   UNL     1       7.315   5.338  19.177  0.00  0.00    +0.000 A 
ENDROOT
BRANCH   1   7
ATOM      7  N   UNL     1       5.357   3.878  18.859  0.00  0.00    +0.000 N 
ATOM      8  H   UNL     1       5.900   3.021  18.933  0.00  0.00    +0.000 HD
BRANCH   7  14
ATOM      9  C   UNL     1       3.157   2.987  19.628  0.00  0.00    +0.000 A 
ATOM     10  C   UNL     1       1.778   2.831  19.384  0.00  0.00    +0.000 A 
ATOM     11  C   UNL     1       1.187   3.357  18.240  0.00  0.00    +0.000 A 
ATOM     12  C   UNL     1       1.966   4.057  17.328  0.00  0.00    +0.000 A 
ATOM     13  C   UNL     1       3.334   4.215  17.558  0.00  0.00    +0.000 A 
ATOM     14  C   UNL     1       3.964   3.684  18.703  0.00  0.00    +0.000 A 
BRANCH   9  16
ATOM     15  N   UNL     1       2.777   2.311  21.951  0.00  0.00    +0.000 N 
ATOM     16  C   UNL     1       3.643   2.373  20.895  0.00  0.00    +0.000 C 
ATOM     17  O   UNL     1       4.798   1.995  21.027  0.00  0.00    +0.000 OA
ATOM     18  H   UNL     1       3.221   2.097  22.835  0.00  0.00    +0.000 HD
ATOM     19  H   UNL     1       1.973   2.921  21.980  0.00  0.00    +0.000 HD
ENDBRANCH   9  16
ENDBRANCH   7  14
ENDBRANCH   1   7
BRANCH   4  20
ATOM     20  C   UNL     1       8.211   8.665  17.575  0.00  0.00    +0.000 C 
ATOM     21  C   UNL     1       8.691   9.488  18.521  0.00  0.00    +0.000 C 
BRANCH  21  22
ATOM     22  C   UNL     1       9.232  10.834  18.269  0.00  0.00    +0.000 A 
ATOM     23  C   UNL     1      10.607  11.050  18.458  0.00  0.00    +0.000 A 
ATOM     24  C   UNL     1      11.168  12.313  18.256  0.00  0.00    +0.000 A 
ATOM     25  C   UNL     1      10.365  13.375  17.849  0.00  0.00    +0.000 A 
ATOM     26  C   UNL     1       9.005  13.169  17.629  0.00  0.00    +0.000 A 
ATOM     27  C   UNL     1       8.444  11.905  17.830  0.00  0.00    +0.000 A 
ENDBRANCH  21  22
ENDBRANCH   4  20
TORSDOF 5
ENDMDL
