MODEL 1
REMARK VINA RESULT:      -5.3      0.000      0.000
REMARK  Name = 
REMARK  2 active torsions:
REMARK  status: ('A' for Active; 'I' for Inactive)
REMARK    1  A    between atoms: C_1  and  C_2
REMARK    2  A    between atoms: C_2  and  C_4
REMARK                            x       y       z     vdW  Elec       q    Type
REMARK                         _______ _______ _______ _____ _____    ______ ____
ROOT
ATOM      1  C   UNL     1       6.226   5.008  15.856  0.00  0.00    +0.000 C 
ATOM      2  C   UNL     1       7.160   4.901  17.021  0.00  0.00    +0.000 C 
ATOM      3  O   UNL     1       8.128   4.156  17.085  0.00  0.00    +0.000 OA
ATOM      4  C   UNL     1       6.713   5.787  18.155  0.00  0.00    +0.000 C 
ATOM      5  C   UNL     1       5.920   6.893  17.467  0.00  0.00    +0.000 C 
ATOM      6  C   UNL     1       5.609   6.356  16.088  0.00  0.00    +0.000 C 
ATOM      7  O   UNL     1       4.947   6.973  15.264  0.00  0.00    +0.000 OA
ENDROOT
BRANCH   1   9
ATOM      8  C   UNL     1       6.224   3.800  13.569  0.00  0.00    +0.000 C 
ATOM      9  C   UNL     1       6.842   4.803  14.506  0.00  0.00    +0.000 C 
ATOM     10  O   UNL     1       7.836   5.452  14.164  0.00  0.00    +0.000 OA
ENDBRANCH   1   9
TORSDOF 1
ENDMDL
MODEL 2
REMARK VINA RESULT:      -5.2      2.082      4.033
REMARK  Name = 
REMARK  2 active torsions:
REMARK  status: ('A' for Active; 'I' for Inactive)
REMARK    1  A    between atoms: C_1  and  C_2
REMARK    2  A    between atoms: C_2  and  C_4
REMARK                            x       y       z     vdW  Elec       q    Type
REMARK                         _______ _______ _______ _____ _____    ______ ____
ROOT
ATOM      1  C   UNL     1       6.444   4.709  18.267  0.00  0.00    +0.000 C 
ATOM      2  C   UNL     1       4.995   5.083  18.217  0.00  0.00    +0.000 C 
ATOM      3  O   UNL     1       4.382   5.662  19.103  0.00  0.00    +0.000 OA
ATOM      4  C   UNL     1       4.352   4.586  16.948  0.00  0.00    +0.000 C 
ATOM      5  C   UNL     1       5.511   4.498  15.959  0.00  0.00    +0.000 C 
ATOM      6  C   UNL     1       6.760   4.532  16.811  0.00  0.00    +0.000 C 
ATOM      7  O   UNL     1       7.888   4.446  16.346  0.00  0.00    +0.000 OA
ENDROOT
BRANCH   1   9
ATOM      8  C   UNL     1       7.800   6.911  18.321  0.00  0.00    +0.000 C 
ATOM      9  C   UNL     1       7.335   5.656  19.011  0.00  0.00    +0.000 C 
ATOM     10  O   UNL     1       7.676   5.416  20.174  0.00  0.00    +0.000 OA
ENDBRANCH   1   9
TORSDOF 1
ENDMDL
MODEL 3
REMARK VINA RESULT:      -5.2      2.122      3.150
REMARK  Name = 
REMARK  2 active torsions:
REMARK  status: ('A' for Active; 'I' for Inactive)
REMARK    1  A    between atoms: C_1  and  C_2
REMARK    2  A    between atoms: C_2  and  C_4
REMARK                            x       y       z     vdW  Elec       q    Type
REMARK                         _______ _______ _______ _____ _____    ______ ____
ROOT
ATOM      1  C   UNL     1       5.916   4.791  17.443  0.00  0.00    +0.000 C 
ATOM      2  C   UNL     1       4.983   4.363  18.533  0.00  0.00    +0.000 C 
ATOM      3  O   UNL     1       5.254   3.572  19.426  0.00  0.00    +0.000 OA
ATOM      4  C   UNL     1       3.621   4.982  18.353  0.00  0.00    +0.000 C 
ATOM      5  C   UNL     1       3.899   6.261  17.569  0.00  0.00    +0.000 C 
ATOM      6  C   UNL     1       5.288   6.079  16.998  0.00  0.00    +0.000 C 
ATOM      7  O   UNL     1       5.827   6.907  16.276  0.00  0.00    +0.000 OA
ENDROOT
BRANCH   1   9
ATOM      8  C   UNL     1       7.775   5.822  18.917  0.00  0.00    +0.000 C 
ATOM      9  C   UNL     1       7.364   4.876  17.820  0.00  0.00    +0.000 C 
ATOM     10  O   UNL     1       8.204   4.176  17.247  0.00  0.00    +0.000 OA
ENDBRANCH   1   9
TORSDOF 1
ENDMDL
MODEL 4
REMARK VINA RESULT:      -5.2      5.539      6.898
REMARK  Name = 
REMARK  2 active torsions:
REMARK  status: ('A' for Active; 'I' for Inactive)
REMARK    1  A    between atoms: C_1  and  C_2
REMARK    2  A    between atoms: C_2  and  C_4
REMARK                            x       y       z     vdW  Elec       q    Type
REMARK                         _______ _______ _______ _____ _____    ______ ____
ROOT
ATOM      1  C   UNL     1       2.860   2.524  19.886  0.00  0.00    +0.000 C 
ATOM      2  C   UNL     1       1.837   2.464  18.794  0.00  0.00    +0.000 C 
ATOM      3  O   UNL     1       0.625   2.466  18.960  0.00  0.00    +0.000 OA
ATOM      4  C   UNL     1       2.494   2.324  17.446  0.00  0.00    +0.000 C 
ATOM      5  C   UNL     1       3.872   2.948  17.641  0.00  0.00    +0.000 C 
ATOM      6  C   UNL     1       4.068   3.008  19.140  0.00  0.00    +0.000 C 
ATOM      7  O   UNL     1       5.092   3.426  19.663  0.00  0.00    +0.000 OA
ENDROOT
BRANCH   1   9
ATOM      8  C   UNL     1       2.131   4.784  20.913  0.00  0.00    +0.000 C 
ATOM      9  C   UNL     1       2.479   3.329  21.091  0.00  0.00    +0.000 C 
ATOM     10  O   UNL     1       2.445   2.808  22.210  0.00  0.00    +0.000 OA
ENDBRANCH   1   9
TORSDOF 1
ENDMDL
MODEL 5
REMARK VINA RESULT:      -5.0      1.846      3.273
REMARK  Name = 
REMARK  2 active torsions:
REMARK  status: ('A' for Active; 'I' for Inactive)
REMARK    1  A    between atoms: C_1  and  C_2
REMARK    2  A    between atoms: C_2  and  C_4
REMARK                            x       y       z     vdW  Elec       q    Type
REMARK                         _______ _______ _______ _____ _____    ______ ____
ROOT
ATOM      1  C   UNL     1       6.062   6.299  16.571  0.00  0.00    +0.000 C 
ATOM      2  C   UNL     1       6.557   5.264  15.609  0.00  0.00    +0.000 C 
ATOM      3  O   UNL     1       7.643   5.283  15.046  0.00  0.00    +0.000 OA
ATOM      4  C   UNL     1       5.506   4.214  15.357  0.00  0.00    +0.000 C 
ATOM      5  C   UNL     1       4.654   4.235  16.622  0.00  0.00    +0.000 C 
ATOM      6  C   UNL     1       4.994   5.542  17.304  0.00  0.00    +0.000 C 
ATOM      7  O   UNL     1       4.464   5.911  18.343  0.00  0.00    +0.000 OA
ENDROOT
BRANCH   1   9
ATOM      8  C   UNL     1       7.699   6.147  18.568  0.00  0.00    +0.000 C 
ATOM      9  C   UNL     1       7.107   6.940  17.432  0.00  0.00    +0.000 C 
ATOM     10  O   UNL     1       7.482   8.095  17.211  0.00  0.00    +0.000 OA
ENDBRANCH   1   9
TORSDOF 1
ENDMDL
MODEL 6
REMARK VINA RESULT:      -5.0      1.662      3.596
REMARK  Name = 
REMARK  2 active torsions:
REMARK  status: ('A' for Active; 'I' for Inactive)
REMARK    1  A    between atoms: C_1  and  C_2
REMARK    2  A    between atoms: C_2  and  C_4
REMARK                            x       y       z     vdW  Elec       q    Type
REMARK                         _______ _______ _______ _____ _____    ______ ____
ROOT
ATOM      1  C   UNL     1       6.447   5.272  17.235  0.00  0.00    +0.000 C 
ATOM      2  C   UNL     1       6.656   5.218  15.753  0.00  0.00    +0.000 C 
ATOM      3  O   UNL     1       7.678   5.553  15.170  0.00  0.00    +0.000 OA
ATOM      4  C   UNL     1       5.407   4.758  15.047  0.00  0.00    +0.000 C 
ATOM      5  C   UNL     1       4.677   3.925  16.096  0.00  0.00    +0.000 C 
ATOM      6  C   UNL     1       5.314   4.305  17.414  0.00  0.00    +0.000 C 
ATOM      7  O   UNL     1       4.948   3.848  18.489  0.00  0.00    +0.000 OA
ENDROOT
BRANCH   1   9
ATOM      8  C   UNL     1       7.930   5.898  19.259  0.00  0.00    +0.000 C 
ATOM      9  C   UNL     1       7.660   5.009  18.074  0.00  0.00    +0.000 C 
ATOM     10  O   UNL     1       8.421   4.076  17.803  0.00  0.00    +0.000 OA
ENDBRANCH   1   9
TORSDOF 1
ENDMDL
MODEL 7
REMARK VINA RESULT:      -5.0      1.735      3.041
REMARK  Name = 
REMARK  2 active torsions:
REMARK  status: ('A' for Active; 'I' for Inactive)
REMARK    1  A    between atoms: C_1  and  C_2
REMARK    2  A    between atoms: C_2  and  C_4
REMARK                            x       y       z     vdW  Elec       q    Type
REMARK                         _______ _______ _______ _____ _____    ______ ____
ROOT
ATOM      1  C   UNL     1       6.051   5.553  17.443  0.00  0.00    +0.000 C 
ATOM      2  C   UNL     1       5.086   6.442  16.722  0.00  0.00    +0.000 C 
ATOM      3  O   UNL     1       5.225   6.859  15.581  0.00  0.00    +0.000 OA
ATOM      4  C   UNL     1       3.935   6.827  17.615  0.00  0.00    +0.000 C 
ATOM      5  C   UNL     1       3.851   5.683  18.621  0.00  0.00    +0.000 C 
ATOM      6  C   UNL     1       5.177   4.964  18.511  0.00  0.00    +0.000 C 
ATOM      7  O   UNL     1       5.475   4.003  19.207  0.00  0.00    +0.000 OA
ENDROOT
BRANCH   1   9
ATOM      8  C   UNL     1       6.006   3.727  15.612  0.00  0.00    +0.000 C 
ATOM      9  C   UNL     1       6.786   4.564  16.591  0.00  0.00    +0.000 C 
ATOM     10  O   UNL     1       8.011   4.442  16.686  0.00  0.00    +0.000 OA
ENDBRANCH   1   9
TORSDOF 1
ENDMDL
MODEL 8
REMARK VINA RESULT:      -5.0      0.887      2.569
REMARK  Name = 
REMARK  2 active torsions:
REMARK  status: ('A' for Active; 'I' for Inactive)
REMARK    1  A    between atoms: C_1  and  C_2
REMARK    2  A    between atoms: C_2  and  C_4
REMARK                            x       y       z     vdW  Elec       q    Type
REMARK                         _______ _______ _______ _____ _____    ______ ____
ROOT
ATOM      1  C   UNL     1       6.936   5.701  16.446  0.00  0.00    +0.000 C 
ATOM      2  C   UNL     1       5.559   6.148  16.830  0.00  0.00    +0.000 C 
ATOM      3  O   UNL     1       4.710   6.566  16.055  0.00  0.00    +0.000 OA
ATOM      4  C   UNL     1       5.367   6.085  18.323  0.00  0.00    +0.000 C 
ATOM      5  C   UNL     1       6.352   5.012  18.776  0.00  0.00    +0.000 C 
ATOM      6  C   UNL     1       7.312   4.845  17.620  0.00  0.00    +0.000 C 
ATOM      7  O   UNL     1       8.267   4.080  17.649  0.00  0.00    +0.000 OA
ENDROOT
BRANCH   1   9
ATOM      8  C   UNL     1       6.176   3.870  14.786  0.00  0.00    +0.000 C 
ATOM      9  C   UNL     1       7.059   5.048  15.104  0.00  0.00    +0.000 C 
ATOM     10  O   UNL     1       7.864   5.472  14.270  0.00  0.00    +0.000 OA
ENDBRANCH   1   9
TORSDOF 1
ENDMDL
MODEL 9
REMARK VINA RESULT:      -5.0      1.803      3.452
REMARK  Name = 
REMARK  2 active torsions:
REMARK  status: ('A' for Active; 'I' for Inactive)
REMARK    1  A    between atoms: C_1  and  C_2
REMARK    2  A    between atoms: C_2  and  C_4
REMARK                            x       y       z     vdW  Elec       q    Type
REMARK                         _______ _______ _______ _____ _____    ______ ____
ROOT
ATOM      1  C   UNL     1       6.810   5.175  16.973  0.00  0.00    +0.000 C 
ATOM      2  C   UNL     1       5.380   4.842  17.267  0.00  0.00    +0.000 C 
ATOM      3  O   UNL     1       4.771   5.169  18.276  0.00  0.00    +0.000 OA
ATOM      4  C   UNL     1       4.793   3.977  16.183  0.00  0.00    +0.000 C 
ATOM      5  C   UNL     1       5.620   4.321  14.948  0.00  0.00    +0.000 C 
ATOM      6  C   UNL     1       6.857   5.009  15.482  0.00  0.00    +0.000 C 
ATOM      7  O   UNL     1       7.769   5.396  14.764  0.00  0.00    +0.000 OA
ENDROOT
BRANCH   1   9
ATOM      8  C   UNL     1       8.044   6.535  18.795  0.00  0.00    +0.000 C 
ATOM      9  C   UNL     1       7.291   6.496  17.491  0.00  0.00    +0.000 C 
ATOM     10  O   UNL     1       7.080   7.534  16.857  0.00  0.00    +0.000 OA
ENDBRANCH   1   9
TORSDOF 1
ENDMDL
