MODEL 1
REMARK VINA RESULT:      -7.3      0.000      0.000
REMARK  Name = 
REMARK  10 active torsions:
REMARK  status: ('A' for Active; 'I' for Inactive)
REMARK    1  A    between atoms: C_1  and  C_2
REMARK    2  A    between atoms: C_2  and  N_3
REMARK    3  A    between atoms: N_3  and  C_4
REMARK    4  A    between atoms: N_3  and  C_6
REMARK    5  A    between atoms: C_4  and  C_5
REMARK    6  A    between atoms: C_6  and  C_7
REMARK    7  A    between atoms: C_7  and  N_8
REMARK    8  A    between atoms: N_8  and  C_9
REMARK    9  A    between atoms: C_19  and  O_20
REMARK   10  A    between atoms: O_20  and  C_21
REMARK                            x       y       z     vdW  Elec       q    Type
REMARK                         _______ _______ _______ _____ _____    ______ ____
ROOT
ATOM      1  C   UNL     1       2.242   6.247  19.810  0.00  0.00    +0.000 A 
ATOM      2  C   UNL     1       1.449   5.362  20.596  0.00  0.00    +0.000 A 
ATOM      3  C   UNL     1       1.541   3.964  20.542  0.00  0.00    +0.000 A 
ATOM      4  C   UNL     1       2.427   3.418  19.627  0.00  0.00    +0.000 A 
ATOM      5  N   UNL     1       2.717   2.113  19.333  0.00  0.00    +0.000 NA
ATOM      6  C   UNL     1       3.595   2.171  18.354  0.00  0.00    +0.000 A 
ATOM      7  N   UNL     1       3.864   3.463  17.996  0.00  0.00    +0.000 N 
ATOM      8  C   UNL     1       4.658   3.994  16.975  0.00  0.00    +0.000 A 
ATOM      9  C   UNL     1       5.254   3.142  16.044  0.00  0.00    +0.000 A 
ATOM     10  C   UNL     1       6.053   3.681  15.045  0.00  0.00    +0.000 A 
ATOM     11  C   UNL     1       6.292   5.057  14.997  0.00  0.00    +0.000 A 
ATOM     12  C   UNL     1       5.649   5.918  15.912  0.00  0.00    +0.000 A 
ATOM     13  C   UNL     1       4.809   5.398  16.910  0.00  0.00    +0.000 A 
ATOM     14  C   UNL     1       4.078   6.315  17.895  0.00  0.00    +0.000 A 
ATOM     15  O   UNL     1       4.273   7.525  17.898  0.00  0.00    +0.000 OA
ATOM     16  C   UNL     1       3.142   5.668  18.880  0.00  0.00    +0.000 A 
ATOM     17  C   UNL     1       3.167   4.275  18.837  0.00  0.00    +0.000 A 
ENDROOT
BRANCH   1  18
ATOM     18  N   UNL     1       2.014   7.637  19.875  0.00  0.00    +0.000 N 
ATOM     19  H   UNL     1       2.764   8.181  19.445  0.00  0.00    +0.000 HD
BRANCH  18  20
ATOM     20  C   UNL     1       1.398   8.187  21.093  0.00  0.00    +0.000 C 
BRANCH  20  21
ATOM     21  C   UNL     1       0.078   8.941  20.856  0.00  0.00    +0.000 C 
BRANCH  21  22
ATOM     22  N   UNL     1       0.220  10.425  20.842  0.00  0.00    +0.000 NA
BRANCH  22  24
ATOM     23  C   UNL     1      -0.169  10.115  18.356  0.00  0.00    +0.000 C 
ATOM     24  C   UNL     1      -0.384  10.962  19.609  0.00  0.00    +0.000 C 
ENDBRANCH  22  24
BRANCH  22  25
ATOM     25  C   UNL     1      -0.246  11.094  22.069  0.00  0.00    +0.000 C 
ATOM     26  C   UNL     1      -0.790  10.187  23.168  0.00  0.00    +0.000 C 
ENDBRANCH  22  25
ENDBRANCH  21  22
ENDBRANCH  20  21
ENDBRANCH  18  20
ENDBRANCH   1  18
BRANCH  11  27
ATOM     27  O   UNL     1       7.117   5.642  14.070  0.00  0.00    +0.000 OA
ATOM     28  C   UNL     1       7.452   4.826  12.944  0.00  0.00    +0.000 C 
ENDBRANCH  11  27
TORSDOF 7
ENDMDL
MODEL 2
REMARK VINA RESULT:      -7.3      0.521      1.472
REMARK  Name = 
REMARK  10 active torsions:
REMARK  status: ('A' for Active; 'I' for Inactive)
REMARK    1  A    between atoms: C_1  and  C_2
REMARK    2  A    between atoms: C_2  and  N_3
REMARK    3  A    between atoms: N_3  and  C_4
REMARK    4  A    between atoms: N_3  and  C_6
REMARK    5  A    between atoms: C_4  and  C_5
REMARK    6  A    between atoms: C_6  and  C_7
REMARK    7  A    between atoms: C_7  and  N_8
REMARK    8  A    between atoms: N_8  and  C_9
REMARK    9  A    between atoms: C_19  and  O_20
REMARK   10  A    between atoms: O_20  and  C_21
REMARK                            x       y       z     vdW  Elec       q    Type
REMARK                         _______ _______ _______ _____ _____    ______ ____
ROOT
ATOM      1  C   UNL     1       2.262   6.201  19.781  0.00  0.00    +0.000 A 
ATOM      2  C   UNL     1       1.458   5.315  20.555  0.00  0.00    +0.000 A 
ATOM      3  C   UNL     1       1.531   3.916  20.481  0.00  0.00    +0.000 A 
ATOM      4  C   UNL     1       2.409   3.372  19.557  0.00  0.00    +0.000 A 
ATOM      5  N   UNL     1       2.682   2.068  19.243  0.00  0.00    +0.000 NA
ATOM      6  C   UNL     1       3.559   2.129  18.264  0.00  0.00    +0.000 A 
ATOM      7  N   UNL     1       3.845   3.423  17.925  0.00  0.00    +0.000 N 
ATOM      8  C   UNL     1       4.645   3.958  16.911  0.00  0.00    +0.000 A 
ATOM      9  C   UNL     1       5.229   3.111  15.967  0.00  0.00    +0.000 A 
ATOM     10  C   UNL     1       6.034   3.654  14.975  0.00  0.00    +0.000 A 
ATOM     11  C   UNL     1       6.292   5.027  14.947  0.00  0.00    +0.000 A 
ATOM     12  C   UNL     1       5.661   5.883  15.875  0.00  0.00    +0.000 A 
ATOM     13  C   UNL     1       4.814   5.360  16.867  0.00  0.00    +0.000 A 
ATOM     14  C   UNL     1       4.097   6.272  17.865  0.00  0.00    +0.000 A 
ATOM     15  O   UNL     1       4.308   7.479  17.886  0.00  0.00    +0.000 OA
ATOM     16  C   UNL     1       3.153   5.623  18.842  0.00  0.00    +0.000 A 
ATOM     17  C   UNL     1       3.160   4.231  18.779  0.00  0.00    +0.000 A 
ENDROOT
BRANCH   1  18
ATOM     18  N   UNL     1       2.053   7.592  19.867  0.00  0.00    +0.000 N 
ATOM     19  H   UNL     1       2.868   8.134  19.573  0.00  0.00    +0.000 HD
BRANCH  18  20
ATOM     20  C   UNL     1       1.273   8.112  21.002  0.00  0.00    +0.000 C 
BRANCH  20  21
ATOM     21  C   UNL     1       1.046   9.633  20.977  0.00  0.00    +0.000 C 
BRANCH  21  22
ATOM     22  N   UNL     1      -0.314  10.039  20.523  0.00  0.00    +0.000 NA
BRANCH  22  24
ATOM     23  C   UNL     1      -0.929  10.958  22.804  0.00  0.00    +0.000 C 
ATOM     24  C   UNL     1      -0.764  11.204  21.305  0.00  0.00    +0.000 C 
ENDBRANCH  22  24
BRANCH  22  25
ATOM     25  C   UNL     1      -0.441  10.220  19.066  0.00  0.00    +0.000 C 
ATOM     26  C   UNL     1      -1.767  10.788  18.569  0.00  0.00    +0.000 C 
ENDBRANCH  22  25
ENDBRANCH  21  22
ENDBRANCH  20  21
ENDBRANCH  18  20
ENDBRANCH   1  18
BRANCH  11  27
ATOM     27  O   UNL     1       7.122   5.616  14.028  0.00  0.00    +0.000 OA
ATOM     28  C   UNL     1       7.453   4.808  12.894  0.00  0.00    +0.000 C 
ENDBRANCH  11  27
TORSDOF 7
ENDMDL
MODEL 3
REMARK VINA RESULT:      -7.3      0.897      1.502
REMARK  Name = 
REMARK  10 active torsions:
REMARK  status: ('A' for Active; 'I' for Inactive)
REMARK    1  A    between atoms: C_1  and  C_2
REMARK    2  A    between atoms: C_2  and  N_3
REMARK    3  A    between atoms: N_3  and  C_4
REMARK    4  A    between atoms: N_3  and  C_6
REMARK    5  A    between atoms: C_4  and  C_5
REMARK    6  A    between atoms: C_6  and  C_7
REMARK    7  A    between atoms: C_7  and  N_8
REMARK    8  A    between atoms: N_8  and  C_9
REMARK    9  A    between atoms: C_19  and  O_20
REMARK   10  A    between atoms: O_20  and  C_21
REMARK                            x       y       z     vdW  Elec       q    Type
REMARK                         _______ _______ _______ _____ _____    ______ ____
ROOT
ATOM      1  C   UNL     1       2.398   6.056  19.881  0.00  0.00    +0.000 A 
ATOM      2  C   UNL     1       1.556   5.161  20.602  0.00  0.00    +0.000 A 
ATOM      3  C   UNL     1       1.558   3.769  20.432  0.00  0.00    +0.000 A 
ATOM      4  C   UNL     1       2.400   3.246  19.464  0.00  0.00    +0.000 A 
ATOM      5  N   UNL     1       2.603   1.954  19.061  0.00  0.00    +0.000 NA
ATOM      6  C   UNL     1       3.476   2.037  18.079  0.00  0.00    +0.000 A 
ATOM      7  N   UNL     1       3.825   3.335  17.824  0.00  0.00    +0.000 N 
ATOM      8  C   UNL     1       4.643   3.897  16.840  0.00  0.00    +0.000 A 
ATOM      9  C   UNL     1       5.176   3.088  15.835  0.00  0.00    +0.000 A 
ATOM     10  C   UNL     1       6.000   3.657  14.873  0.00  0.00    +0.000 A 
ATOM     11  C   UNL     1       6.327   5.014  14.936  0.00  0.00    +0.000 A 
ATOM     12  C   UNL     1       5.747   5.835  15.926  0.00  0.00    +0.000 A 
ATOM     13  C   UNL     1       4.883   5.289  16.889  0.00  0.00    +0.000 A 
ATOM     14  C   UNL     1       4.220   6.166  17.955  0.00  0.00    +0.000 A 
ATOM     15  O   UNL     1       4.492   7.356  18.054  0.00  0.00    +0.000 OA
ATOM     16  C   UNL     1       3.252   5.500  18.895  0.00  0.00    +0.000 A 
ATOM     17  C   UNL     1       3.188   4.117  18.738  0.00  0.00    +0.000 A 
ENDROOT
BRANCH   1  18
ATOM     18  N   UNL     1       2.260   7.448  20.063  0.00  0.00    +0.000 N 
ATOM     19  H   UNL     1       3.158   7.934  20.085  0.00  0.00    +0.000 HD
BRANCH  18  20
ATOM     20  C   UNL     1       1.210   7.931  20.973  0.00  0.00    +0.000 C 
BRANCH  20  21
ATOM     21  C   UNL     1       0.864   9.422  20.813  0.00  0.00    +0.000 C 
BRANCH  21  22
ATOM     22  N   UNL     1       0.377   9.791  19.453  0.00  0.00    +0.000 NA
BRANCH  22  24
ATOM     23  C   UNL     1      -1.807  10.280  18.263  0.00  0.00    +0.000 C 
ATOM     24  C   UNL     1      -0.990  10.333  19.553  0.00  0.00    +0.000 C 
ENDBRANCH  22  24
BRANCH  22  25
ATOM     25  C   UNL     1       1.298  10.648  18.688  0.00  0.00    +0.000 C 
ATOM     26  C   UNL     1       2.213   9.940  17.694  0.00  0.00    +0.000 C 
ENDBRANCH  22  25
ENDBRANCH  21  22
ENDBRANCH  20  21
ENDBRANCH  18  20
ENDBRANCH   1  18
BRANCH  11  27
ATOM     27  O   UNL     1       7.180   5.621  14.049  0.00  0.00    +0.000 OA
ATOM     28  C   UNL     1       7.540   4.836  12.908  0.00  0.00    +0.000 C 
ENDBRANCH  11  27
TORSDOF 7
ENDMDL
MODEL 4
REMARK VINA RESULT:      -7.0      1.447      1.700
REMARK  Name = 
REMARK  10 active torsions:
REMARK  status: ('A' for Active; 'I' for Inactive)
REMARK    1  A    between atoms: C_1  and  C_2
REMARK    2  A    between atoms: C_2  and  N_3
REMARK    3  A    between atoms: N_3  and  C_4
REMARK    4  A    between atoms: N_3  and  C_6
REMARK    5  A    between atoms: C_4  and  C_5
REMARK    6  A    between atoms: C_6  and  C_7
REMARK    7  A    between atoms: C_7  and  N_8
REMARK    8  A    between atoms: N_8  and  C_9
REMARK    9  A    between atoms: C_19  and  O_20
REMARK   10  A    between atoms: O_20  and  C_21
REMARK                            x       y       z     vdW  Elec       q    Type
REMARK                         _______ _______ _______ _____ _____    ______ ____
ROOT
ATOM      1  C   UNL     1       2.504   5.935  19.893  0.00  0.00    +0.000 A 
ATOM      2  C   UNL     1       1.494   5.081  20.423  0.00  0.00    +0.000 A 
ATOM      3  C   UNL     1       1.330   3.736  20.061  0.00  0.00    +0.000 A 
ATOM      4  C   UNL     1       2.176   3.230  19.088  0.00  0.00    +0.000 A 
ATOM      5  N   UNL     1       2.244   1.985  18.522  0.00  0.00    +0.000 NA
ATOM      6  C   UNL     1       3.200   2.072  17.622  0.00  0.00    +0.000 A 
ATOM      7  N   UNL     1       3.735   3.330  17.575  0.00  0.00    +0.000 N 
ATOM      8  C   UNL     1       4.700   3.894  16.736  0.00  0.00    +0.000 A 
ATOM      9  C   UNL     1       5.207   3.156  15.665  0.00  0.00    +0.000 A 
ATOM     10  C   UNL     1       6.177   3.723  14.850  0.00  0.00    +0.000 A 
ATOM     11  C   UNL     1       6.671   5.001  15.123  0.00  0.00    +0.000 A 
ATOM     12  C   UNL     1       6.120   5.760  16.178  0.00  0.00    +0.000 A 
ATOM     13  C   UNL     1       5.114   5.221  16.995  0.00  0.00    +0.000 A 
ATOM     14  C   UNL     1       4.482   6.037  18.126  0.00  0.00    +0.000 A 
ATOM     15  O   UNL     1       4.897   7.154  18.409  0.00  0.00    +0.000 OA
ATOM     16  C   UNL     1       3.359   5.397  18.897  0.00  0.00    +0.000 A 
ATOM     17  C   UNL     1       3.130   4.068  18.545  0.00  0.00    +0.000 A 
ENDROOT
BRANCH   1  18
ATOM     18  N   UNL     1       2.533   7.296  20.257  0.00  0.00    +0.000 N 
ATOM     19  H   UNL     1       2.775   7.437  21.240  0.00  0.00    +0.000 HD
BRANCH  18  20
ATOM     20  C   UNL     1       1.522   8.196  19.678  0.00  0.00    +0.000 C 
BRANCH  20  21
ATOM     21  C   UNL     1       1.888   8.759  18.294  0.00  0.00    +0.000 C 
BRANCH  21  22
ATOM     22  N   UNL     1       1.232  10.059  17.974  0.00  0.00    +0.000 NA
BRANCH  22  24
ATOM     23  C   UNL     1      -1.292  10.175  17.772  0.00  0.00    +0.000 C 
ATOM     24  C   UNL     1      -0.060  10.142  18.676  0.00  0.00    +0.000 C 
ENDBRANCH  22  24
BRANCH  22  25
ATOM     25  C   UNL     1       2.090  11.240  18.174  0.00  0.00    +0.000 C 
ATOM     26  C   UNL     1       1.539  12.328  19.090  0.00  0.00    +0.000 C 
ENDBRANCH  22  25
ENDBRANCH  21  22
ENDBRANCH  20  21
ENDBRANCH  18  20
ENDBRANCH   1  18
BRANCH  11  27
ATOM     27  O   UNL     1       7.668   5.592  14.389  0.00  0.00    +0.000 OA
ATOM     28  C   UNL     1       7.759   5.169  13.025  0.00  0.00    +0.000 C 
ENDBRANCH  11  27
TORSDOF 7
ENDMDL
MODEL 5
REMARK VINA RESULT:      -7.0      2.320      6.880
REMARK  Name = 
REMARK  10 active torsions:
REMARK  status: ('A' for Active; 'I' for Inactive)
REMARK    1  A    between atoms: C_1  and  C_2
REMARK    2  A    between atoms: C_2  and  N_3
REMARK    3  A    between atoms: N_3  and  C_4
REMARK    4  A    between atoms: N_3  and  C_6
REMARK    5  A    between atoms: C_4  and  C_5
REMARK    6  A    between atoms: C_6  and  C_7
REMARK    7  A    between atoms: C_7  and  N_8
REMARK    8  A    between atoms: N_8  and  C_9
REMARK    9  A    between atoms: C_19  and  O_20
REMARK   10  A    between atoms: O_20  and  C_21
REMARK                            x       y       z     vdW  Elec       q    Type
REMARK                         _______ _______ _______ _____ _____    ______ ____
ROOT
ATOM      1  C   UNL     1       4.155   4.921  17.281  0.00  0.00    +0.000 A 
ATOM      2  C   UNL     1       4.406   3.624  17.816  0.00  0.00    +0.000 A 
ATOM      3  C   UNL     1       3.855   3.146  19.015  0.00  0.00    +0.000 A 
ATOM      4  C   UNL     1       3.059   4.016  19.742  0.00  0.00    +0.000 A 
ATOM      5  N   UNL     1       2.411   3.847  20.936  0.00  0.00    +0.000 NA
ATOM      6  C   UNL     1       1.842   5.009  21.181  0.00  0.00    +0.000 A 
ATOM      7  N   UNL     1       2.116   5.920  20.199  0.00  0.00    +0.000 N 
ATOM      8  C   UNL     1       1.794   7.276  20.080  0.00  0.00    +0.000 A 
ATOM      9  C   UNL     1       1.161   7.935  21.135  0.00  0.00    +0.000 A 
ATOM     10  C   UNL     1       0.833   9.277  20.996  0.00  0.00    +0.000 A 
ATOM     11  C   UNL     1       1.094   9.948  19.799  0.00  0.00    +0.000 A 
ATOM     12  C   UNL     1       1.777   9.289  18.755  0.00  0.00    +0.000 A 
ATOM     13  C   UNL     1       2.150   7.942  18.885  0.00  0.00    +0.000 A 
ATOM     14  C   UNL     1       2.917   7.215  17.777  0.00  0.00    +0.000 A 
ATOM     15  O   UNL     1       3.152   7.762  16.706  0.00  0.00    +0.000 OA
ATOM     16  C   UNL     1       3.337   5.795  18.042  0.00  0.00    +0.000 A 
ATOM     17  C   UNL     1       2.847   5.286  19.243  0.00  0.00    +0.000 A 
ENDROOT
BRANCH   1  18
ATOM     18  N   UNL     1       4.824   5.338  16.113  0.00  0.00    +0.000 N 
ATOM     19  H   UNL     1       4.183   5.562  15.349  0.00  0.00    +0.000 HD
BRANCH  18  20
ATOM     20  C   UNL     1       6.088   4.674  15.758  0.00  0.00    +0.000 C 
BRANCH  20  21
ATOM     21  C   UNL     1       7.320   5.596  15.777  0.00  0.00    +0.000 C 
BRANCH  21  22
ATOM     22  N   UNL     1       7.717   6.054  17.139  0.00  0.00    +0.000 NA
BRANCH  22  24
ATOM     23  C   UNL     1       7.891   8.540  17.600  0.00  0.00    +0.000 C 
ATOM     24  C   UNL     1       7.005   7.303  17.462  0.00  0.00    +0.000 C 
ENDBRANCH  22  24
BRANCH  22  25
ATOM     25  C   UNL     1       7.605   5.022  18.185  0.00  0.00    +0.000 C 
ATOM     26  C   UNL     1       7.480   5.525  19.620  0.00  0.00    +0.000 C 
ENDBRANCH  22  25
ENDBRANCH  21  22
ENDBRANCH  20  21
ENDBRANCH  18  20
ENDBRANCH   1  18
BRANCH  11  27
ATOM     27  O   UNL     1       0.743  11.256  19.582  0.00  0.00    +0.000 OA
ATOM     28  C   UNL     1       1.277  12.199  20.516  0.00  0.00    +0.000 C 
ENDBRANCH  11  27
TORSDOF 7
ENDMDL
MODEL 6
REMARK VINA RESULT:      -6.9      2.706      6.762
REMARK  Name = 
REMARK  10 active torsions:
REMARK  status: ('A' for Active; 'I' for Inactive)
REMARK    1  A    between atoms: C_1  and  C_2
REMARK    2  A    between atoms: C_2  and  N_3
REMARK    3  A    between atoms: N_3  and  C_4
REMARK    4  A    between atoms: N_3  and  C_6
REMARK    5  A    between atoms: C_4  and  C_5
REMARK    6  A    between atoms: C_6  and  C_7
REMARK    7  A    between atoms: C_7  and  N_8
REMARK    8  A    between atoms: N_8  and  C_9
REMARK    9  A    between atoms: C_19  and  O_20
REMARK   10  A    between atoms: O_20  and  C_21
REMARK                            x       y       z     vdW  Elec       q    Type
REMARK                         _______ _______ _______ _____ _____    ______ ____
ROOT
ATOM      1  C   UNL     1       4.231   5.217  17.284  0.00  0.00    +0.000 A 
ATOM      2  C   UNL     1       4.564   3.898  17.707  0.00  0.00    +0.000 A 
ATOM      3  C   UNL     1       4.041   3.283  18.854  0.00  0.00    +0.000 A 
ATOM      4  C   UNL     1       3.185   4.033  19.645  0.00  0.00    +0.000 A 
ATOM      5  N   UNL     1       2.545   3.720  20.814  0.00  0.00    +0.000 NA
ATOM      6  C   UNL     1       1.899   4.816  21.152  0.00  0.00    +0.000 A 
ATOM      7  N   UNL     1       2.117   5.826  20.256  0.00  0.00    +0.000 N 
ATOM      8  C   UNL     1       1.708   7.162  20.250  0.00  0.00    +0.000 A 
ATOM      9  C   UNL     1       1.028   7.685  21.352  0.00  0.00    +0.000 A 
ATOM     10  C   UNL     1       0.613   9.010  21.326  0.00  0.00    +0.000 A 
ATOM     11  C   UNL     1       0.835   9.798  20.194  0.00  0.00    +0.000 A 
ATOM     12  C   UNL     1       1.565   9.278  19.103  0.00  0.00    +0.000 A 
ATOM     13  C   UNL     1       2.025   7.951  19.121  0.00  0.00    +0.000 A 
ATOM     14  C   UNL     1       2.843   7.375  17.962  0.00  0.00    +0.000 A 
ATOM     15  O   UNL     1       3.046   8.027  16.945  0.00  0.00    +0.000 OA
ATOM     16  C   UNL     1       3.354   5.967  18.108  0.00  0.00    +0.000 A 
ATOM     17  C   UNL     1       2.893   5.325  19.255  0.00  0.00    +0.000 A 
ENDROOT
BRANCH   1  18
ATOM     18  N   UNL     1       4.877   5.777  16.162  0.00  0.00    +0.000 N 
ATOM     19  H   UNL     1       4.633   5.305  15.290  0.00  0.00    +0.000 HD
BRANCH  18  20
ATOM     20  C   UNL     1       6.267   6.235  16.315  0.00  0.00    +0.000 C 
BRANCH  20  21
ATOM     21  C   UNL     1       6.443   7.438  17.258  0.00  0.00    +0.000 C 
BRANCH  21  22
ATOM     22  N   UNL     1       7.854   7.689  17.667  0.00  0.00    +0.000 NA
BRANCH  22  24
ATOM     23  C   UNL     1       8.942   9.626  18.888  0.00  0.00    +0.000 C 
ATOM     24  C   UNL     1       8.100   9.142  17.708  0.00  0.00    +0.000 C 
ENDBRANCH  22  24
BRANCH  22  25
ATOM     25  C   UNL     1       8.268   6.985  18.894  0.00  0.00    +0.000 C 
ATOM     26  C   UNL     1       7.707   5.580  19.089  0.00  0.00    +0.000 C 
ENDBRANCH  22  25
ENDBRANCH  21  22
ENDBRANCH  20  21
ENDBRANCH  18  20
ENDBRANCH   1  18
BRANCH  11  27
ATOM     27  O   UNL     1       0.400  11.094  20.086  0.00  0.00    +0.000 OA
ATOM     28  C   UNL     1       0.719  11.749  18.854  0.00  0.00    +0.000 C 
ENDBRANCH  11  27
TORSDOF 7
ENDMDL
MODEL 7
REMARK VINA RESULT:      -6.9      2.416      6.913
REMARK  Name = 
REMARK  10 active torsions:
REMARK  status: ('A' for Active; 'I' for Inactive)
REMARK    1  A    between atoms: C_1  and  C_2
REMARK    2  A    between atoms: C_2  and  N_3
REMARK    3  A    between atoms: N_3  and  C_4
REMARK    4  A    between atoms: N_3  and  C_6
REMARK    5  A    between atoms: C_4  and  C_5
REMARK    6  A    between atoms: C_6  and  C_7
REMARK    7  A    between atoms: C_7  and  N_8
REMARK    8  A    between atoms: N_8  and  C_9
REMARK    9  A    between atoms: C_19  and  O_20
REMARK   10  A    between atoms: O_20  and  C_21
REMARK                            x       y       z     vdW  Elec       q    Type
REMARK                         _______ _______ _______ _____ _____    ______ ____
ROOT
ATOM      1  C   UNL     1       4.215   5.111  17.277  0.00  0.00    +0.000 A 
ATOM      2  C   UNL     1       4.497   3.801  17.763  0.00  0.00    +0.000 A 
ATOM      3  C   UNL     1       3.945   3.260  18.934  0.00  0.00    +0.000 A 
ATOM      4  C   UNL     1       3.115   4.077  19.684  0.00  0.00    +0.000 A 
ATOM      5  N   UNL     1       2.458   3.843  20.862  0.00  0.00    +0.000 NA
ATOM      6  C   UNL     1       1.853   4.977  21.146  0.00  0.00    +0.000 A 
ATOM      7  N   UNL     1       2.113   5.935  20.206  0.00  0.00    +0.000 N 
ATOM      8  C   UNL     1       1.755   7.284  20.136  0.00  0.00    +0.000 A 
ATOM      9  C   UNL     1       1.090   7.883  21.208  0.00  0.00    +0.000 A 
ATOM     10  C   UNL     1       0.726   9.219  21.119  0.00  0.00    +0.000 A 
ATOM     11  C   UNL     1       0.984   9.945  19.953  0.00  0.00    +0.000 A 
ATOM     12  C   UNL     1       1.697   9.349  18.892  0.00  0.00    +0.000 A 
ATOM     13  C   UNL     1       2.107   8.007  18.974  0.00  0.00    +0.000 A 
ATOM     14  C   UNL     1       2.907   7.348  17.848  0.00  0.00    +0.000 A 
ATOM     15  O   UNL     1       3.140   7.944  16.803  0.00  0.00    +0.000 OA
ATOM     16  C   UNL     1       3.364   5.930  18.061  0.00  0.00    +0.000 A 
ATOM     17  C   UNL     1       2.874   5.360  19.234  0.00  0.00    +0.000 A 
ENDROOT
BRANCH   1  18
ATOM     18  N   UNL     1       4.887   5.593  16.136  0.00  0.00    +0.000 N 
ATOM     19  H   UNL     1       4.269   5.700  15.329  0.00  0.00    +0.000 HD
BRANCH  18  20
ATOM     20  C   UNL     1       6.255   5.116  15.877  0.00  0.00    +0.000 C 
BRANCH  20  21
ATOM     21  C   UNL     1       7.359   6.139  16.199  0.00  0.00    +0.000 C 
BRANCH  21  22
ATOM     22  N   UNL     1       7.157   6.867  17.484  0.00  0.00    +0.000 NA
BRANCH  22  24
ATOM     23  C   UNL     1       6.964   5.467  19.588  0.00  0.00    +0.000 C 
ATOM     24  C   UNL     1       7.865   6.158  18.565  0.00  0.00    +0.000 C 
ENDBRANCH  22  24
BRANCH  22  25
ATOM     25  C   UNL     1       7.464   8.307  17.422  0.00  0.00    +0.000 C 
ATOM     26  C   UNL     1       8.457   8.832  18.455  0.00  0.00    +0.000 C 
ENDBRANCH  22  25
ENDBRANCH  21  22
ENDBRANCH  20  21
ENDBRANCH  18  20
ENDBRANCH   1  18
BRANCH  11  27
ATOM     27  O   UNL     1       0.598  11.251  19.784  0.00  0.00    +0.000 OA
ATOM     28  C   UNL     1      -0.530  11.664  20.560  0.00  0.00    +0.000 C 
ENDBRANCH  11  27
TORSDOF 7
ENDMDL
MODEL 8
REMARK VINA RESULT:      -6.8      0.837      1.037
REMARK  Name = 
REMARK  10 active torsions:
REMARK  status: ('A' for Active; 'I' for Inactive)
REMARK    1  A    between atoms: C_1  and  C_2
REMARK    2  A    between atoms: C_2  and  N_3
REMARK    3  A    between atoms: N_3  and  C_4
REMARK    4  A    between atoms: N_3  and  C_6
REMARK    5  A    between atoms: C_4  and  C_5
REMARK    6  A    between atoms: C_6  and  C_7
REMARK    7  A    between atoms: C_7  and  N_8
REMARK    8  A    between atoms: N_8  and  C_9
REMARK    9  A    between atoms: C_19  and  O_20
REMARK   10  A    between atoms: O_20  and  C_21
REMARK                            x       y       z     vdW  Elec       q    Type
REMARK                         _______ _______ _______ _____ _____    ______ ____
ROOT
ATOM      1  C   UNL     1       2.533   6.050  19.849  0.00  0.00    +0.000 A 
ATOM      2  C   UNL     1       1.512   5.223  20.398  0.00  0.00    +0.000 A 
ATOM      3  C   UNL     1       1.330   3.871  20.069  0.00  0.00    +0.000 A 
ATOM      4  C   UNL     1       2.171   3.331  19.110  0.00  0.00    +0.000 A 
ATOM      5  N   UNL     1       2.223   2.072  18.574  0.00  0.00    +0.000 NA
ATOM      6  C   UNL     1       3.181   2.124  17.674  0.00  0.00    +0.000 A 
ATOM      7  N   UNL     1       3.732   3.374  17.597  0.00  0.00    +0.000 N 
ATOM      8  C   UNL     1       4.705   3.905  16.746  0.00  0.00    +0.000 A 
ATOM      9  C   UNL     1       5.204   3.134  15.694  0.00  0.00    +0.000 A 
ATOM     10  C   UNL     1       6.182   3.668  14.866  0.00  0.00    +0.000 A 
ATOM     11  C   UNL     1       6.692   4.946  15.109  0.00  0.00    +0.000 A 
ATOM     12  C   UNL     1       6.151   5.738  16.144  0.00  0.00    +0.000 A 
ATOM     13  C   UNL     1       5.136   5.231  16.973  0.00  0.00    +0.000 A 
ATOM     14  C   UNL     1       4.514   6.083  18.083  0.00  0.00    +0.000 A 
ATOM     15  O   UNL     1       4.943   7.202  18.339  0.00  0.00    +0.000 OA
ATOM     16  C   UNL     1       3.382   5.477  18.868  0.00  0.00    +0.000 A 
ATOM     17  C   UNL     1       3.135   4.143  18.548  0.00  0.00    +0.000 A 
ENDROOT
BRANCH   1  18
ATOM     18  N   UNL     1       2.579   7.420  20.180  0.00  0.00    +0.000 N 
ATOM     19  H   UNL     1       3.226   7.620  20.945  0.00  0.00    +0.000 HD
BRANCH  18  20
ATOM     20  C   UNL     1       1.326   8.190  20.140  0.00  0.00    +0.000 C 
BRANCH  20  21
ATOM     21  C   UNL     1       1.268   9.258  19.034  0.00  0.00    +0.000 C 
BRANCH  21  22
ATOM     22  N   UNL     1       0.191  10.271  19.223  0.00  0.00    +0.000 NA
BRANCH  22  24
ATOM     23  C   UNL     1      -1.837  11.270  18.075  0.00  0.00    +0.000 C 
ATOM     24  C   UNL     1      -0.774  10.172  18.114  0.00  0.00    +0.000 C 
ENDBRANCH  22  24
BRANCH  22  25
ATOM     25  C   UNL     1      -0.436  10.253  20.556  0.00  0.00    +0.000 C 
ATOM     26  C   UNL     1      -0.036  11.377  21.507  0.00  0.00    +0.000 C 
ENDBRANCH  22  25
ENDBRANCH  21  22
ENDBRANCH  20  21
ENDBRANCH  18  20
ENDBRANCH   1  18
BRANCH  11  27
ATOM     27  O   UNL     1       7.697   5.506  14.362  0.00  0.00    +0.000 OA
ATOM     28  C   UNL     1       7.718   5.131  12.982  0.00  0.00    +0.000 C 
ENDBRANCH  11  27
TORSDOF 7
ENDMDL
MODEL 9
REMARK VINA RESULT:      -6.7      2.096      7.785
REMARK  Name = 
REMARK  10 active torsions:
REMARK  status: ('A' for Active; 'I' for Inactive)
REMARK    1  A    between atoms: C_1  and  C_2
REMARK    2  A    between atoms: C_2  and  N_3
REMARK    3  A    between atoms: N_3  and  C_4
REMARK    4  A    between atoms: N_3  and  C_6
REMARK    5  A    between atoms: C_4  and  C_5
REMARK    6  A    between atoms: C_6  and  C_7
REMARK    7  A    between atoms: C_7  and  N_8
REMARK    8  A    between atoms: N_8  and  C_9
REMARK    9  A    between atoms: C_19  and  O_20
REMARK   10  A    between atoms: O_20  and  C_21
REMARK                            x       y       z     vdW  Elec       q    Type
REMARK                         _______ _______ _______ _____ _____    ______ ____
ROOT
ATOM      1  C   UNL     1       4.698   4.938  17.624  0.00  0.00    +0.000 A 
ATOM      2  C   UNL     1       4.946   3.677  18.239  0.00  0.00    +0.000 A 
ATOM      3  C   UNL     1       4.259   3.202  19.366  0.00  0.00    +0.000 A 
ATOM      4  C   UNL     1       3.318   4.042  19.940  0.00  0.00    +0.000 A 
ATOM      5  N   UNL     1       2.518   3.870  21.038  0.00  0.00    +0.000 NA
ATOM      6  C   UNL     1       1.854   5.000  21.155  0.00  0.00    +0.000 A 
ATOM      7  N   UNL     1       2.211   5.897  20.186  0.00  0.00    +0.000 N 
ATOM      8  C   UNL     1       1.831   7.225  19.970  0.00  0.00    +0.000 A 
ATOM      9  C   UNL     1       1.018   7.875  20.899  0.00  0.00    +0.000 A 
ATOM     10  C   UNL     1       0.635   9.189  20.663  0.00  0.00    +0.000 A 
ATOM     11  C   UNL     1       1.025   9.838  19.489  0.00  0.00    +0.000 A 
ATOM     12  C   UNL     1       1.886   9.192  18.577  0.00  0.00    +0.000 A 
ATOM     13  C   UNL     1       2.314   7.875  18.812  0.00  0.00    +0.000 A 
ATOM     14  C   UNL     1       3.272   7.165  17.851  0.00  0.00    +0.000 A 
ATOM     15  O   UNL     1       3.624   7.692  16.802  0.00  0.00    +0.000 OA
ATOM     16  C   UNL     1       3.731   5.782  18.228  0.00  0.00    +0.000 A 
ATOM     17  C   UNL     1       3.106   5.280  19.367  0.00  0.00    +0.000 A 
ENDROOT
BRANCH   1  18
ATOM     18  N   UNL     1       5.501   5.361  16.545  0.00  0.00    +0.000 N 
ATOM     19  H   UNL     1       5.036   6.051  15.953  0.00  0.00    +0.000 HD
BRANCH  18  20
ATOM     20  C   UNL     1       6.352   4.364  15.876  0.00  0.00    +0.000 C 
BRANCH  20  21
ATOM     21  C   UNL     1       5.673   3.628  14.707  0.00  0.00    +0.000 C 
BRANCH  21  22
ATOM     22  N   UNL     1       6.033   4.161  13.362  0.00  0.00    +0.000 NA
BRANCH  22  24
ATOM     23  C   UNL     1       7.834   5.447  12.127  0.00  0.00    +0.000 C 
ATOM     24  C   UNL     1       7.362   4.793  13.425  0.00  0.00    +0.000 C 
ENDBRANCH  22  24
BRANCH  22  25
ATOM     25  C   UNL     1       5.893   3.189  12.264  0.00  0.00    +0.000 C 
ATOM     26  C   UNL     1       4.557   3.188  11.528  0.00  0.00    +0.000 C 
ENDBRANCH  22  25
ENDBRANCH  21  22
ENDBRANCH  20  21
ENDBRANCH  18  20
ENDBRANCH   1  18
BRANCH  11  27
ATOM     27  O   UNL     1       0.633  11.115  19.173  0.00  0.00    +0.000 OA
ATOM     28  C   UNL     1      -0.332  11.697  20.055  0.00  0.00    +0.000 C 
ENDBRANCH  11  27
TORSDOF 7
ENDMDL
