MODEL 1
REMARK VINA RESULT:      -6.4      0.000      0.000
REMARK  Name = 
REMARK  4 active torsions:
REMARK  status: ('A' for Active; 'I' for Inactive)
REMARK    1  A    between atoms: C_2  and  C_3
REMARK    2  A    between atoms: C_6  and  C_7
REMARK    3  A    between atoms: C_8  and  C_9
REMARK    4  A    between atoms: N_11  and  O_12
REMARK                            x       y       z     vdW  Elec       q    Type
REMARK                         _______ _______ _______ _____ _____    ______ ____
ROOT
ATOM      1  C   UNL     1       2.917   3.388  19.891  0.00  0.00    +0.000 A 
ATOM      2  C   UNL     1       3.212   4.717  19.578  0.00  0.00    +0.000 A 
ATOM      3  C   UNL     1       3.856   5.034  18.373  0.00  0.00    +0.000 A 
ATOM      4  C   UNL     1       4.228   4.029  17.468  0.00  0.00    +0.000 A 
ATOM      5  C   UNL     1       3.931   2.698  17.796  0.00  0.00    +0.000 A 
ATOM      6  C   UNL     1       3.284   2.379  18.997  0.00  0.00    +0.000 A 
ENDROOT
BRANCH   1   8
ATOM      7  N   UNL     1       1.679   2.801  22.096  0.00  0.00    +0.000 NA
ATOM      8  C   UNL     1       2.232   3.057  21.110  0.00  0.00    +0.000 C 
ENDBRANCH   1   8
BRANCH   4   9
ATOM      9  C   UNL     1       4.854   4.412  16.190  0.00  0.00    +0.000 C 
ATOM     10  C   UNL     1       5.984   3.873  15.703  0.00  0.00    +0.000 C 
BRANCH  10  11
ATOM     11  C   UNL     1       6.548   4.319  14.405  0.00  0.00    +0.000 C 
ATOM     12  O   UNL     1       6.152   3.924  13.315  0.00  0.00    +0.000 OA
ATOM     13  N   UNL     1       7.571   5.220  14.547  0.00  0.00    +0.000 N 
ATOM     14  H   UNL     1       7.936   5.571  15.423  0.00  0.00    +0.000 HD
BRANCH  13  15
ATOM     15  O   UNL     1       8.184   5.692  13.367  0.00  0.00    +0.000 OA
ATOM     16  H   UNL     1       8.460   4.859  12.925  0.00  0.00    +0.000 HD
ENDBRANCH  13  15
ENDBRANCH  10  11
ENDBRANCH   4   9
TORSDOF 4
ENDMDL
MODEL 2
REMARK VINA RESULT:      -6.4      0.810      1.072
REMARK  Name = 
REMARK  4 active torsions:
REMARK  status: ('A' for Active; 'I' for Inactive)
REMARK    1  A    between atoms: C_2  and  C_3
REMARK    2  A    between atoms: C_6  and  C_7
REMARK    3  A    between atoms: C_8  and  C_9
REMARK    4  A    between atoms: N_11  and  O_12
REMARK                            x       y       z     vdW  Elec       q    Type
REMARK                         _______ _______ _______ _____ _____    ______ ____
ROOT
ATOM      1  C   UNL     1       3.086   3.672  19.739  0.00  0.00    +0.000 A 
ATOM      2  C   UNL     1       4.458   3.445  19.607  0.00  0.00    +0.000 A 
ATOM      3  C   UNL     1       5.118   3.779  18.415  0.00  0.00    +0.000 A 
ATOM      4  C   UNL     1       4.418   4.332  17.333  0.00  0.00    +0.000 A 
ATOM      5  C   UNL     1       3.040   4.551  17.476  0.00  0.00    +0.000 A 
ATOM      6  C   UNL     1       2.379   4.222  18.667  0.00  0.00    +0.000 A 
ENDROOT
BRANCH   1   8
ATOM      7  N   UNL     1       1.848   3.106  21.949  0.00  0.00    +0.000 NA
ATOM      8  C   UNL     1       2.406   3.359  20.966  0.00  0.00    +0.000 C 
ENDBRANCH   1   8
BRANCH   4   9
ATOM      9  C   UNL     1       5.162   4.717  16.120  0.00  0.00    +0.000 C 
ATOM     10  C   UNL     1       5.938   3.886  15.406  0.00  0.00    +0.000 C 
BRANCH  10  11
ATOM     11  C   UNL     1       6.655   4.358  14.195  0.00  0.00    +0.000 C 
ATOM     12  O   UNL     1       6.449   3.927  13.066  0.00  0.00    +0.000 OA
ATOM     13  N   UNL     1       7.583   5.328  14.466  0.00  0.00    +0.000 N 
ATOM     14  H   UNL     1       7.792   5.712  15.379  0.00  0.00    +0.000 HD
BRANCH  13  15
ATOM     15  O   UNL     1       8.330   5.831  13.379  0.00  0.00    +0.000 OA
ATOM     16  H   UNL     1       8.729   5.016  13.003  0.00  0.00    +0.000 HD
ENDBRANCH  13  15
ENDBRANCH  10  11
ENDBRANCH   4   9
TORSDOF 4
ENDMDL
MODEL 3
REMARK VINA RESULT:      -6.3      0.571      1.265
REMARK  Name = 
REMARK  4 active torsions:
REMARK  status: ('A' for Active; 'I' for Inactive)
REMARK    1  A    between atoms: C_2  and  C_3
REMARK    2  A    between atoms: C_6  and  C_7
REMARK    3  A    between atoms: C_8  and  C_9
REMARK    4  A    between atoms: N_11  and  O_12
REMARK                            x       y       z     vdW  Elec       q    Type
REMARK                         _______ _______ _______ _____ _____    ______ ____
ROOT
ATOM      1  C   UNL     1       3.039   3.655  19.660  0.00  0.00    +0.000 A 
ATOM      2  C   UNL     1       2.751   3.039  18.439  0.00  0.00    +0.000 A 
ATOM      3  C   UNL     1       3.427   3.428  17.274  0.00  0.00    +0.000 A 
ATOM      4  C   UNL     1       4.391   4.448  17.305  0.00  0.00    +0.000 A 
ATOM      5  C   UNL     1       4.667   5.062  18.535  0.00  0.00    +0.000 A 
ATOM      6  C   UNL     1       3.995   4.672  19.702  0.00  0.00    +0.000 A 
ENDROOT
BRANCH   1   8
ATOM      7  N   UNL     1       1.842   2.906  21.838  0.00  0.00    +0.000 NA
ATOM      8  C   UNL     1       2.371   3.243  20.863  0.00  0.00    +0.000 C 
ENDBRANCH   1   8
BRANCH   4   9
ATOM      9  C   UNL     1       5.115   4.787  16.067  0.00  0.00    +0.000 C 
ATOM     10  C   UNL     1       5.996   3.981  15.453  0.00  0.00    +0.000 C 
BRANCH  10  11
ATOM     11  C   UNL     1       6.683   4.404  14.207  0.00  0.00    +0.000 C 
ATOM     12  O   UNL     1       6.403   3.977  13.093  0.00  0.00    +0.000 OA
ATOM     13  N   UNL     1       7.675   5.322  14.428  0.00  0.00    +0.000 N 
ATOM     14  H   UNL     1       7.946   5.699  15.328  0.00  0.00    +0.000 HD
BRANCH  13  15
ATOM     15  O   UNL     1       8.399   5.774  13.304  0.00  0.00    +0.000 OA
ATOM     16  H   UNL     1       8.539   6.724  13.512  0.00  0.00    +0.000 HD
ENDBRANCH  13  15
ENDBRANCH  10  11
ENDBRANCH   4   9
TORSDOF 4
ENDMDL
MODEL 4
REMARK VINA RESULT:      -6.3      0.823      1.687
REMARK  Name = 
REMARK  4 active torsions:
REMARK  status: ('A' for Active; 'I' for Inactive)
REMARK    1  A    between atoms: C_2  and  C_3
REMARK    2  A    between atoms: C_6  and  C_7
REMARK    3  A    between atoms: C_8  and  C_9
REMARK    4  A    between atoms: N_11  and  O_12
REMARK                            x       y       z     vdW  Elec       q    Type
REMARK                         _______ _______ _______ _____ _____    ______ ____
ROOT
ATOM      1  C   UNL     1       2.814   3.338  19.866  0.00  0.00    +0.000 A 
ATOM      2  C   UNL     1       3.160   2.394  18.895  0.00  0.00    +0.000 A 
ATOM      3  C   UNL     1       3.814   2.794  17.721  0.00  0.00    +0.000 A 
ATOM      4  C   UNL     1       4.123   4.144  17.491  0.00  0.00    +0.000 A 
ATOM      5  C   UNL     1       3.766   5.082  18.470  0.00  0.00    +0.000 A 
ATOM      6  C   UNL     1       3.115   4.684  19.646  0.00  0.00    +0.000 A 
ENDROOT
BRANCH   1   8
ATOM      7  N   UNL     1       1.642   2.600  22.061  0.00  0.00    +0.000 NA
ATOM      8  C   UNL     1       2.169   2.934  21.084  0.00  0.00    +0.000 C 
ENDBRANCH   1   8
BRANCH   4   9
ATOM      9  C   UNL     1       4.859   4.511  16.268  0.00  0.00    +0.000 C 
ATOM     10  C   UNL     1       5.960   3.884  15.823  0.00  0.00    +0.000 C 
BRANCH  10  11
ATOM     11  C   UNL     1       6.641   4.322  14.580  0.00  0.00    +0.000 C 
ATOM     12  O   UNL     1       7.440   5.250  14.528  0.00  0.00    +0.000 OA
ATOM     13  N   UNL     1       6.280   3.585  13.483  0.00  0.00    +0.000 N 
ATOM     14  H   UNL     1       5.622   2.815  13.474  0.00  0.00    +0.000 HD
BRANCH  13  15
ATOM     15  O   UNL     1       6.863   3.937  12.247  0.00  0.00    +0.000 OA
ATOM     16  H   UNL     1       6.283   4.668  11.940  0.00  0.00    +0.000 HD
ENDBRANCH  13  15
ENDBRANCH  10  11
ENDBRANCH   4   9
TORSDOF 4
ENDMDL
MODEL 5
REMARK VINA RESULT:      -6.3      0.806      1.109
REMARK  Name = 
REMARK  4 active torsions:
REMARK  status: ('A' for Active; 'I' for Inactive)
REMARK    1  A    between atoms: C_2  and  C_3
REMARK    2  A    between atoms: C_6  and  C_7
REMARK    3  A    between atoms: C_8  and  C_9
REMARK    4  A    between atoms: N_11  and  O_12
REMARK                            x       y       z     vdW  Elec       q    Type
REMARK                         _______ _______ _______ _____ _____    ______ ____
ROOT
ATOM      1  C   UNL     1       2.796   3.250  19.956  0.00  0.00    +0.000 A 
ATOM      2  C   UNL     1       3.167   4.565  19.662  0.00  0.00    +0.000 A 
ATOM      3  C   UNL     1       3.835   4.860  18.464  0.00  0.00    +0.000 A 
ATOM      4  C   UNL     1       4.155   3.847  17.548  0.00  0.00    +0.000 A 
ATOM      5  C   UNL     1       3.782   2.531  17.857  0.00  0.00    +0.000 A 
ATOM      6  C   UNL     1       3.112   2.234  19.052  0.00  0.00    +0.000 A 
ENDROOT
BRANCH   1   8
ATOM      7  N   UNL     1       1.519   2.683  22.144  0.00  0.00    +0.000 NA
ATOM      8  C   UNL     1       2.088   2.942  21.167  0.00  0.00    +0.000 C 
ENDBRANCH   1   8
BRANCH   4   9
ATOM      9  C   UNL     1       4.809   4.210  16.278  0.00  0.00    +0.000 C 
ATOM     10  C   UNL     1       6.100   3.977  15.991  0.00  0.00    +0.000 C 
BRANCH  10  11
ATOM     11  C   UNL     1       6.679   4.378  14.685  0.00  0.00    +0.000 C 
ATOM     12  O   UNL     1       7.458   5.313  14.540  0.00  0.00    +0.000 OA
ATOM     13  N   UNL     1       6.248   3.597  13.645  0.00  0.00    +0.000 N 
ATOM     14  H   UNL     1       5.604   2.819  13.714  0.00  0.00    +0.000 HD
BRANCH  13  15
ATOM     15  O   UNL     1       6.732   3.911  12.357  0.00  0.00    +0.000 OA
ATOM     16  H   UNL     1       7.293   4.698  12.529  0.00  0.00    +0.000 HD
ENDBRANCH  13  15
ENDBRANCH  10  11
ENDBRANCH   4   9
TORSDOF 4
ENDMDL
MODEL 6
REMARK VINA RESULT:      -6.2      2.468      3.161
REMARK  Name = 
REMARK  4 active torsions:
REMARK  status: ('A' for Active; 'I' for Inactive)
REMARK    1  A    between atoms: C_2  and  C_3
REMARK    2  A    between atoms: C_6  and  C_7
REMARK    3  A    between atoms: C_8  and  C_9
REMARK    4  A    between atoms: N_11  and  O_12
REMARK                            x       y       z     vdW  Elec       q    Type
REMARK                         _______ _______ _______ _____ _____    ______ ____
ROOT
ATOM      1  C   UNL     1       3.740   5.802  17.949  0.00  0.00    +0.000 A 
ATOM      2  C   UNL     1       4.446   6.677  17.120  0.00  0.00    +0.000 A 
ATOM      3  C   UNL     1       5.210   6.179  16.053  0.00  0.00    +0.000 A 
ATOM      4  C   UNL     1       5.292   4.801  15.806  0.00  0.00    +0.000 A 
ATOM      5  C   UNL     1       4.583   3.933  16.649  0.00  0.00    +0.000 A 
ATOM      6  C   UNL     1       3.816   4.428  17.713  0.00  0.00    +0.000 A 
ENDROOT
BRANCH   1   8
ATOM      7  N   UNL     1       2.274   6.712  19.889  0.00  0.00    +0.000 NA
ATOM      8  C   UNL     1       2.933   6.304  19.027  0.00  0.00    +0.000 C 
ENDBRANCH   1   8
BRANCH   4   9
ATOM      9  C   UNL     1       6.062   4.326  14.643  0.00  0.00    +0.000 C 
ATOM     10  C   UNL     1       5.517   3.876  13.500  0.00  0.00    +0.000 C 
BRANCH  10  11
ATOM     11  C   UNL     1       6.369   3.415  12.376  0.00  0.00    +0.000 C 
ATOM     12  O   UNL     1       7.212   4.113  11.825  0.00  0.00    +0.000 OA
ATOM     13  N   UNL     1       6.113   2.121  12.006  0.00  0.00    +0.000 N 
ATOM     14  H   UNL     1       5.426   1.508  12.426  0.00  0.00    +0.000 HD
BRANCH  13  15
ATOM     15  O   UNL     1       6.863   1.595  10.932  0.00  0.00    +0.000 OA
ATOM     16  H   UNL     1       7.782   1.844  11.175  0.00  0.00    +0.000 HD
ENDBRANCH  13  15
ENDBRANCH  10  11
ENDBRANCH   4   9
TORSDOF 4
ENDMDL
MODEL 7
REMARK VINA RESULT:      -6.1      2.351      3.266
REMARK  Name = 
REMARK  4 active torsions:
REMARK  status: ('A' for Active; 'I' for Inactive)
REMARK    1  A    between atoms: C_2  and  C_3
REMARK    2  A    between atoms: C_6  and  C_7
REMARK    3  A    between atoms: C_8  and  C_9
REMARK    4  A    between atoms: N_11  and  O_12
REMARK                            x       y       z     vdW  Elec       q    Type
REMARK                         _______ _______ _______ _____ _____    ______ ____
ROOT
ATOM      1  C   UNL     1       3.602   5.633  17.996  0.00  0.00    +0.000 A 
ATOM      2  C   UNL     1       3.616   4.286  17.625  0.00  0.00    +0.000 A 
ATOM      3  C   UNL     1       4.384   3.862  16.530  0.00  0.00    +0.000 A 
ATOM      4  C   UNL     1       5.138   4.777  15.780  0.00  0.00    +0.000 A 
ATOM      5  C   UNL     1       5.111   6.126  16.159  0.00  0.00    +0.000 A 
ATOM      6  C   UNL     1       4.349   6.552  17.255  0.00  0.00    +0.000 A 
ENDROOT
BRANCH   1   8
ATOM      7  N   UNL     1       2.220   6.430  20.043  0.00  0.00    +0.000 NA
ATOM      8  C   UNL     1       2.842   6.072  19.133  0.00  0.00    +0.000 C 
ENDBRANCH   1   8
BRANCH   4   9
ATOM      9  C   UNL     1       5.972   4.279  14.671  0.00  0.00    +0.000 C 
ATOM     10  C   UNL     1       5.508   3.968  13.449  0.00  0.00    +0.000 C 
BRANCH  10  11
ATOM     11  C   UNL     1       6.419   3.470  12.389  0.00  0.00    +0.000 C 
ATOM     12  O   UNL     1       7.303   4.146  11.874  0.00  0.00    +0.000 OA
ATOM     13  N   UNL     1       6.168   2.171  12.033  0.00  0.00    +0.000 N 
ATOM     14  H   UNL     1       5.449   1.577  12.424  0.00  0.00    +0.000 HD
BRANCH  13  15
ATOM     15  O   UNL     1       6.974   1.612  11.018  0.00  0.00    +0.000 OA
ATOM     16  H   UNL     1       6.598   2.015  10.205  0.00  0.00    +0.000 HD
ENDBRANCH  13  15
ENDBRANCH  10  11
ENDBRANCH   4   9
TORSDOF 4
ENDMDL
MODEL 8
REMARK VINA RESULT:      -6.0      1.432      2.070
REMARK  Name = 
REMARK  4 active torsions:
REMARK  status: ('A' for Active; 'I' for Inactive)
REMARK    1  A    between atoms: C_2  and  C_3
REMARK    2  A    between atoms: C_6  and  C_7
REMARK    3  A    between atoms: C_8  and  C_9
REMARK    4  A    between atoms: N_11  and  O_12
REMARK                            x       y       z     vdW  Elec       q    Type
REMARK                         _______ _______ _______ _____ _____    ______ ____
ROOT
ATOM      1  C   UNL     1       2.578   3.505  20.531  0.00  0.00    +0.000 A 
ATOM      2  C   UNL     1       3.749   2.894  20.075  0.00  0.00    +0.000 A 
ATOM      3  C   UNL     1       4.564   3.542  19.135  0.00  0.00    +0.000 A 
ATOM      4  C   UNL     1       4.217   4.802  18.625  0.00  0.00    +0.000 A 
ATOM      5  C   UNL     1       3.037   5.401  19.086  0.00  0.00    +0.000 A 
ATOM      6  C   UNL     1       2.223   4.759  20.029  0.00  0.00    +0.000 A 
ENDROOT
BRANCH   1   8
ATOM      7  N   UNL     1       1.094   2.336  22.311  0.00  0.00    +0.000 NA
ATOM      8  C   UNL     1       1.752   2.862  21.515  0.00  0.00    +0.000 C 
ENDBRANCH   1   8
BRANCH   4   9
ATOM      9  C   UNL     1       5.130   5.468  17.679  0.00  0.00    +0.000 C 
ATOM     10  C   UNL     1       6.194   4.882  17.105  0.00  0.00    +0.000 C 
BRANCH  10  11
ATOM     11  C   UNL     1       7.063   5.629  16.162  0.00  0.00    +0.000 C 
ATOM     12  O   UNL     1       7.575   6.713  16.417  0.00  0.00    +0.000 OA
ATOM     13  N   UNL     1       7.235   4.984  14.966  0.00  0.00    +0.000 N 
ATOM     14  H   UNL     1       6.830   4.093  14.708  0.00  0.00    +0.000 HD
BRANCH  13  15
ATOM     15  O   UNL     1       8.034   5.624  13.995  0.00  0.00    +0.000 OA
ATOM     16  H   UNL     1       7.417   6.289  13.619  0.00  0.00    +0.000 HD
ENDBRANCH  13  15
ENDBRANCH  10  11
ENDBRANCH   4   9
TORSDOF 4
ENDMDL
MODEL 9
REMARK VINA RESULT:      -5.9      1.444      1.638
REMARK  Name = 
REMARK  4 active torsions:
REMARK  status: ('A' for Active; 'I' for Inactive)
REMARK    1  A    between atoms: C_2  and  C_3
REMARK    2  A    between atoms: C_6  and  C_7
REMARK    3  A    between atoms: C_8  and  C_9
REMARK    4  A    between atoms: N_11  and  O_12
REMARK                            x       y       z     vdW  Elec       q    Type
REMARK                         _______ _______ _______ _____ _____    ______ ____
ROOT
ATOM      1  C   UNL     1       2.229   3.144  20.343  0.00  0.00    +0.000 A 
ATOM      2  C   UNL     1       3.622   3.211  20.255  0.00  0.00    +0.000 A 
ATOM      3  C   UNL     1       4.234   3.692  19.088  0.00  0.00    +0.000 A 
ATOM      4  C   UNL     1       3.468   4.099  17.986  0.00  0.00    +0.000 A 
ATOM      5  C   UNL     1       2.071   4.022  18.085  0.00  0.00    +0.000 A 
ATOM      6  C   UNL     1       1.457   3.547  19.251  0.00  0.00    +0.000 A 
ENDROOT
BRANCH   1   8
ATOM      7  N   UNL     1       1.068   2.307  22.508  0.00  0.00    +0.000 NA
ATOM      8  C   UNL     1       1.592   2.680  21.544  0.00  0.00    +0.000 C 
ENDBRANCH   1   8
BRANCH   4   9
ATOM      9  C   UNL     1       4.152   4.647  16.801  0.00  0.00    +0.000 C 
ATOM     10  C   UNL     1       5.375   5.203  16.815  0.00  0.00    +0.000 C 
BRANCH  10  11
ATOM     11  C   UNL     1       5.990   5.733  15.573  0.00  0.00    +0.000 C 
ATOM     12  O   UNL     1       5.444   6.540  14.830  0.00  0.00    +0.000 OA
ATOM     13  N   UNL     1       7.237   5.220  15.332  0.00  0.00    +0.000 N 
ATOM     14  H   UNL     1       7.726   4.550  15.912  0.00  0.00    +0.000 HD
BRANCH  13  15
ATOM     15  O   UNL     1       7.898   5.652  14.163  0.00  0.00    +0.000 OA
ATOM     16  H   UNL     1       7.698   4.929  13.528  0.00  0.00    +0.000 HD
ENDBRANCH  13  15
ENDBRANCH  10  11
ENDBRANCH   4   9
TORSDOF 4
ENDMDL
