MODEL 1
REMARK VINA RESULT:      -6.3      0.000      0.000
REMARK  Name = 
REMARK  24 active torsions:
REMARK  status: ('A' for Active; 'I' for Inactive)
REMARK    1  A    between atoms: C_1  and  C_2
REMARK    2  A    between atoms: C_2  and  C_3
REMARK    3  A    between atoms: C_3  and  C_4
REMARK    4  A    between atoms: C_4  and  C_5
REMARK    5  A    between atoms: C_5  and  C_6
REMARK    6  A    between atoms: C_6  and  C_7
REMARK    7  A    between atoms: C_7  and  C_8
REMARK    8  A    between atoms: C_8  and  C_9
REMARK    9  A    between atoms: C_9  and  C_10
REMARK   10  A    between atoms: C_10  and  C_11
REMARK   11  A    between atoms: C_11  and  C_12
REMARK   12  A    between atoms: C_12  and  C_13
REMARK   13  A    between atoms: C_13  and  C_14
REMARK   14  A    between atoms: C_14  and  C_15
REMARK   15  A    between atoms: C_15  and  C_16
REMARK   16  A    between atoms: C_16  and  N_17
REMARK   17  A    between atoms: N_17  and  C_18
REMARK   18  A    between atoms: C_21  and  C_22
REMARK   19  A    between atoms: C_22  and  C_24
REMARK   20  A    between atoms: C_24  and  C_25
REMARK   21  A    between atoms: C_24  and  C_26
REMARK   22  A    between atoms: C_26  and  O_28
REMARK   23  A    between atoms: O_28  and  C_29
REMARK   24  A    between atoms: C_29  and  C_30
REMARK                            x       y       z     vdW  Elec       q    Type
REMARK                         _______ _______ _______ _____ _____    ______ ____
ROOT
ATOM      1  N   UNL     1       2.301   5.931  20.921  0.00  0.00    +0.000 N 
ATOM      2  H   UNL     1       3.106   5.903  21.531  0.00  0.00    +0.000 HD
ENDROOT
BRANCH   1   3
ATOM      3  C   UNL     1       1.936   7.160  20.402  0.00  0.00    +0.000 A 
ATOM      4  C   UNL     1       1.202   8.080  21.150  0.00  0.00    +0.000 A 
ATOM      5  C   UNL     1       0.767   9.280  20.599  0.00  0.00    +0.000 A 
ATOM      6  C   UNL     1       1.125   9.633  19.289  0.00  0.00    +0.000 A 
ATOM      7  C   UNL     1       1.885   8.725  18.539  0.00  0.00    +0.000 A 
ATOM      8  C   UNL     1       2.250   7.486  19.080  0.00  0.00    +0.000 A 
BRANCH   6   9
ATOM      9  C   UNL     1       0.716  10.980  18.776  0.00  0.00    +0.000 C 
ATOM     10  O   UNL     1       1.612  11.688  18.267  0.00  0.00    +0.000 OA
BRANCH   9  11
ATOM     11  C   UNL     1      -0.745  11.449  18.865  0.00  0.00    +0.000 C 
ATOM     12  C   UNL     1      -0.796  12.995  18.799  0.00  0.00    +0.000 C 
BRANCH  11  13
ATOM     13  C   UNL     1      -1.644  10.877  17.778  0.00  0.00    +0.000 C 
ATOM     14  O   UNL     1      -1.422   9.829  17.158  0.00  0.00    +0.000 OA
BRANCH  13  15
ATOM     15  O   UNL     1      -2.747  11.651  17.544  0.00  0.00    +0.000 OA
BRANCH  15  16
ATOM     16  C   UNL     1      -3.974  10.949  17.802  0.00  0.00    +0.000 C 
ATOM     17  C   UNL     1      -5.013  11.942  18.295  0.00  0.00    +0.000 C 
ENDBRANCH  15  16
ENDBRANCH  13  15
ENDBRANCH  11  13
ENDBRANCH   9  11
ENDBRANCH   6   9
ENDBRANCH   1   3
BRANCH   1  18
ATOM     18  C   UNL     1       1.389   4.806  20.856  0.00  0.00    +0.000 C 
BRANCH  18  19
ATOM     19  C   UNL     1       1.989   3.604  21.557  0.00  0.00    +0.000 C 
BRANCH  19  20
ATOM     20  C   UNL     1       2.174   2.465  20.564  0.00  0.00    +0.000 C 
BRANCH  20  21
ATOM     21  C   UNL     1       1.219   2.628  19.396  0.00  0.00    +0.000 C 
BRANCH  21  22
ATOM     22  C   UNL     1       1.784   1.948  18.161  0.00  0.00    +0.000 C 
BRANCH  22  23
ATOM     23  C   UNL     1       3.301   1.991  18.196  0.00  0.00    +0.000 C 
BRANCH  23  24
ATOM     24  C   UNL     1       3.802   3.183  17.401  0.00  0.00    +0.000 C 
BRANCH  24  25
ATOM     25  C   UNL     1       4.664   4.067  18.285  0.00  0.00    +0.000 C 
BRANCH  25  26
ATOM     26  C   UNL     1       5.861   4.571  17.501  0.00  0.00    +0.000 C 
BRANCH  26  27
ATOM     27  C   UNL     1       5.646   6.020  17.105  0.00  0.00    +0.000 C 
BRANCH  27  28
ATOM     28  C   UNL     1       5.269   6.104  15.637  0.00  0.00    +0.000 C 
BRANCH  28  29
ATOM     29  C   UNL     1       5.600   4.796  14.942  0.00  0.00    +0.000 C 
BRANCH  29  30
ATOM     30  C   UNL     1       6.890   4.937  14.154  0.00  0.00    +0.000 C 
BRANCH  30  31
ATOM     31  C   UNL     1       6.847   4.052  12.919  0.00  0.00    +0.000 C 
BRANCH  31  33
ATOM     32  C   UNL     1       5.440   2.513  11.552  0.00  0.00    +0.000 C 
ATOM     33  C   UNL     1       5.476   3.410  12.774  0.00  0.00    +0.000 C 
ENDBRANCH  31  33
ENDBRANCH  30  31
ENDBRANCH  29  30
ENDBRANCH  28  29
ENDBRANCH  27  28
ENDBRANCH  26  27
ENDBRANCH  25  26
ENDBRANCH  24  25
ENDBRANCH  23  24
ENDBRANCH  22  23
ENDBRANCH  21  22
ENDBRANCH  20  21
ENDBRANCH  19  20
ENDBRANCH  18  19
ENDBRANCH   1  18
TORSDOF 21
ENDMDL
MODEL 2
REMARK VINA RESULT:      -6.2      1.741      3.294
REMARK  Name = 
REMARK  24 active torsions:
REMARK  status: ('A' for Active; 'I' for Inactive)
REMARK    1  A    between atoms: C_1  and  C_2
REMARK    2  A    between atoms: C_2  and  C_3
REMARK    3  A    between atoms: C_3  and  C_4
REMARK    4  A    between atoms: C_4  and  C_5
REMARK    5  A    between atoms: C_5  and  C_6
REMARK    6  A    between atoms: C_6  and  C_7
REMARK    7  A    between atoms: C_7  and  C_8
REMARK    8  A    between atoms: C_8  and  C_9
REMARK    9  A    between atoms: C_9  and  C_10
REMARK   10  A    between atoms: C_10  and  C_11
REMARK   11  A    between atoms: C_11  and  C_12
REMARK   12  A    between atoms: C_12  and  C_13
REMARK   13  A    between atoms: C_13  and  C_14
REMARK   14  A    between atoms: C_14  and  C_15
REMARK   15  A    between atoms: C_15  and  C_16
REMARK   16  A    between atoms: C_16  and  N_17
REMARK   17  A    between atoms: N_17  and  C_18
REMARK   18  A    between atoms: C_21  and  C_22
REMARK   19  A    between atoms: C_22  and  C_24
REMARK   20  A    between atoms: C_24  and  C_25
REMARK   21  A    between atoms: C_24  and  C_26
REMARK   22  A    between atoms: C_26  and  O_28
REMARK   23  A    between atoms: O_28  and  C_29
REMARK   24  A    between atoms: C_29  and  C_30
REMARK                            x       y       z     vdW  Elec       q    Type
REMARK                         _______ _______ _______ _____ _____    ______ ____
ROOT
ATOM      1  N   UNL     1       2.328   7.023  20.460  0.00  0.00    +0.000 N 
ATOM      2  H   UNL     1       3.260   7.204  20.805  0.00  0.00    +0.000 HD
ENDROOT
BRANCH   1   3
ATOM      3  C   UNL     1       1.532   8.115  20.170  0.00  0.00    +0.000 A 
ATOM      4  C   UNL     1       1.605   8.766  18.938  0.00  0.00    +0.000 A 
ATOM      5  C   UNL     1       0.862   9.912  18.679  0.00  0.00    +0.000 A 
ATOM      6  C   UNL     1      -0.044  10.404  19.631  0.00  0.00    +0.000 A 
ATOM      7  C   UNL     1      -0.142   9.741  20.862  0.00  0.00    +0.000 A 
ATOM      8  C   UNL     1       0.668   8.633  21.139  0.00  0.00    +0.000 A 
BRANCH   6   9
ATOM      9  C   UNL     1      -0.892  11.584  19.265  0.00  0.00    +0.000 C 
ATOM     10  O   UNL     1      -1.576  11.489  18.223  0.00  0.00    +0.000 OA
BRANCH   9  11
ATOM     11  C   UNL     1      -0.921  12.841  20.149  0.00  0.00    +0.000 C 
ATOM     12  C   UNL     1      -1.744  12.556  21.428  0.00  0.00    +0.000 C 
BRANCH  11  13
ATOM     13  C   UNL     1       0.459  13.345  20.550  0.00  0.00    +0.000 C 
ATOM     14  O   UNL     1       1.036  13.059  21.607  0.00  0.00    +0.000 OA
BRANCH  13  15
ATOM     15  O   UNL     1       1.014  14.167  19.608  0.00  0.00    +0.000 OA
BRANCH  15  16
ATOM     16  C   UNL     1       2.435  13.984  19.489  0.00  0.00    +0.000 C 
ATOM     17  C   UNL     1       2.710  13.015  18.351  0.00  0.00    +0.000 C 
ENDBRANCH  15  16
ENDBRANCH  13  15
ENDBRANCH  11  13
ENDBRANCH   9  11
ENDBRANCH   6   9
ENDBRANCH   1   3
BRANCH   1  18
ATOM     18  C   UNL     1       1.748   5.699  20.572  0.00  0.00    +0.000 C 
BRANCH  18  19
ATOM     19  C   UNL     1       2.500   4.882  21.603  0.00  0.00    +0.000 C 
BRANCH  19  20
ATOM     20  C   UNL     1       2.116   3.415  21.480  0.00  0.00    +0.000 C 
BRANCH  20  21
ATOM     21  C   UNL     1       1.060   3.237  20.404  0.00  0.00    +0.000 C 
BRANCH  21  22
ATOM     22  C   UNL     1       1.506   2.187  19.403  0.00  0.00    +0.000 C 
BRANCH  22  23
ATOM     23  C   UNL     1       1.437   2.752  17.996  0.00  0.00    +0.000 C 
BRANCH  23  24
ATOM     24  C   UNL     1       2.817   2.734  17.364  0.00  0.00    +0.000 C 
BRANCH  24  25
ATOM     25  C   UNL     1       3.737   3.685  18.108  0.00  0.00    +0.000 C 
BRANCH  25  26
ATOM     26  C   UNL     1       3.579   5.091  17.559  0.00  0.00    +0.000 C 
BRANCH  26  27
ATOM     27  C   UNL     1       4.603   6.012  18.196  0.00  0.00    +0.000 C 
BRANCH  27  28
ATOM     28  C   UNL     1       5.567   5.203  19.045  0.00  0.00    +0.000 C 
BRANCH  28  29
ATOM     29  C   UNL     1       6.998   5.528  18.655  0.00  0.00    +0.000 C 
BRANCH  29  30
ATOM     30  C   UNL     1       7.401   4.718  17.435  0.00  0.00    +0.000 C 
BRANCH  30  31
ATOM     31  C   UNL     1       7.107   5.503  16.168  0.00  0.00    +0.000 C 
BRANCH  31  33
ATOM     32  C   UNL     1       5.488   4.194  14.798  0.00  0.00    +0.000 C 
ATOM     33  C   UNL     1       6.947   4.560  14.985  0.00  0.00    +0.000 C 
ENDBRANCH  31  33
ENDBRANCH  30  31
ENDBRANCH  29  30
ENDBRANCH  28  29
ENDBRANCH  27  28
ENDBRANCH  26  27
ENDBRANCH  25  26
ENDBRANCH  24  25
ENDBRANCH  23  24
ENDBRANCH  22  23
ENDBRANCH  21  22
ENDBRANCH  20  21
ENDBRANCH  19  20
ENDBRANCH  18  19
ENDBRANCH   1  18
TORSDOF 21
ENDMDL
MODEL 3
REMARK VINA RESULT:      -6.0      1.482      2.073
REMARK  Name = 
REMARK  24 active torsions:
REMARK  status: ('A' for Active; 'I' for Inactive)
REMARK    1  A    between atoms: C_1  and  C_2
REMARK    2  A    between atoms: C_2  and  C_3
REMARK    3  A    between atoms: C_3  and  C_4
REMARK    4  A    between atoms: C_4  and  C_5
REMARK    5  A    between atoms: C_5  and  C_6
REMARK    6  A    between atoms: C_6  and  C_7
REMARK    7  A    between atoms: C_7  and  C_8
REMARK    8  A    between atoms: C_8  and  C_9
REMARK    9  A    between atoms: C_9  and  C_10
REMARK   10  A    between atoms: C_10  and  C_11
REMARK   11  A    between atoms: C_11  and  C_12
REMARK   12  A    between atoms: C_12  and  C_13
REMARK   13  A    between atoms: C_13  and  C_14
REMARK   14  A    between atoms: C_14  and  C_15
REMARK   15  A    between atoms: C_15  and  C_16
REMARK   16  A    between atoms: C_16  and  N_17
REMARK   17  A    between atoms: N_17  and  C_18
REMARK   18  A    between atoms: C_21  and  C_22
REMARK   19  A    between atoms: C_22  and  C_24
REMARK   20  A    between atoms: C_24  and  C_25
REMARK   21  A    between atoms: C_24  and  C_26
REMARK   22  A    between atoms: C_26  and  O_28
REMARK   23  A    between atoms: O_28  and  C_29
REMARK   24  A    between atoms: C_29  and  C_30
REMARK                            x       y       z     vdW  Elec       q    Type
REMARK                         _______ _______ _______ _____ _____    ______ ____
ROOT
ATOM      1  N   UNL     1       2.853   7.197  18.730  0.00  0.00    +0.000 N 
ATOM      2  H   UNL     1       3.810   7.484  18.573  0.00  0.00    +0.000 HD
ENDROOT
BRANCH   1   3
ATOM      3  C   UNL     1       1.933   8.185  19.028  0.00  0.00    +0.000 A 
ATOM      4  C   UNL     1       1.425   8.344  20.318  0.00  0.00    +0.000 A 
ATOM      5  C   UNL     1       0.440   9.285  20.598  0.00  0.00    +0.000 A 
ATOM      6  C   UNL     1      -0.017  10.157  19.597  0.00  0.00    +0.000 A 
ATOM      7  C   UNL     1       0.508  10.020  18.305  0.00  0.00    +0.000 A 
ATOM      8  C   UNL     1       1.443   9.018  18.019  0.00  0.00    +0.000 A 
BRANCH   6   9
ATOM      9  C   UNL     1      -1.006  11.218  19.973  0.00  0.00    +0.000 C 
ATOM     10  O   UNL     1      -1.131  11.470  21.191  0.00  0.00    +0.000 OA
BRANCH   9  11
ATOM     11  C   UNL     1      -1.812  11.964  18.897  0.00  0.00    +0.000 C 
ATOM     12  C   UNL     1      -0.860  12.855  18.063  0.00  0.00    +0.000 C 
BRANCH  11  13
ATOM     13  C   UNL     1      -2.583  11.047  17.958  0.00  0.00    +0.000 C 
ATOM     14  O   UNL     1      -3.468  10.257  18.311  0.00  0.00    +0.000 OA
BRANCH  13  15
ATOM     15  O   UNL     1      -2.195  11.182  16.653  0.00  0.00    +0.000 OA
BRANCH  15  16
ATOM     16  C   UNL     1      -3.309  11.156  15.745  0.00  0.00    +0.000 C 
ATOM     17  C   UNL     1      -3.032  10.129  14.660  0.00  0.00    +0.000 C 
ENDBRANCH  15  16
ENDBRANCH  13  15
ENDBRANCH  11  13
ENDBRANCH   9  11
ENDBRANCH   6   9
ENDBRANCH   1   3
BRANCH   1  18
ATOM     18  C   UNL     1       2.532   5.801  18.952  0.00  0.00    +0.000 C 
BRANCH  18  19
ATOM     19  C   UNL     1       3.235   5.292  20.194  0.00  0.00    +0.000 C 
BRANCH  19  20
ATOM     20  C   UNL     1       2.219   4.682  21.149  0.00  0.00    +0.000 C 
BRANCH  20  21
ATOM     21  C   UNL     1       1.958   3.233  20.781  0.00  0.00    +0.000 C 
BRANCH  21  22
ATOM     22  C   UNL     1       0.621   3.107  20.072  0.00  0.00    +0.000 C 
BRANCH  22  23
ATOM     23  C   UNL     1       0.785   2.295  18.800  0.00  0.00    +0.000 C 
BRANCH  23  24
ATOM     24  C   UNL     1       2.247   1.937  18.601  0.00  0.00    +0.000 C 
BRANCH  24  25
ATOM     25  C   UNL     1       2.822   2.740  17.448  0.00  0.00    +0.000 C 
BRANCH  25  26
ATOM     26  C   UNL     1       4.337   2.754  17.532  0.00  0.00    +0.000 C 
BRANCH  26  27
ATOM     27  C   UNL     1       4.860   4.140  17.207  0.00  0.00    +0.000 C 
BRANCH  27  28
ATOM     28  C   UNL     1       4.895   4.338  15.702  0.00  0.00    +0.000 C 
BRANCH  28  29
ATOM     29  C   UNL     1       6.122   5.144  15.314  0.00  0.00    +0.000 C 
BRANCH  29  30
ATOM     30  C   UNL     1       6.835   4.478  14.151  0.00  0.00    +0.000 C 
BRANCH  30  31
ATOM     31  C   UNL     1       5.820   3.918  13.168  0.00  0.00    +0.000 C 
BRANCH  31  33
ATOM     32  C   UNL     1       5.862   1.999  11.577  0.00  0.00    +0.000 C 
ATOM     33  C   UNL     1       6.526   3.304  11.968  0.00  0.00    +0.000 C 
ENDBRANCH  31  33
ENDBRANCH  30  31
ENDBRANCH  29  30
ENDBRANCH  28  29
ENDBRANCH  27  28
ENDBRANCH  26  27
ENDBRANCH  25  26
ENDBRANCH  24  25
ENDBRANCH  23  24
ENDBRANCH  22  23
ENDBRANCH  21  22
ENDBRANCH  20  21
ENDBRANCH  19  20
ENDBRANCH  18  19
ENDBRANCH   1  18
TORSDOF 21
ENDMDL
MODEL 4
REMARK VINA RESULT:      -6.0      5.736     10.210
REMARK  Name = 
REMARK  24 active torsions:
REMARK  status: ('A' for Active; 'I' for Inactive)
REMARK    1  A    between atoms: C_1  and  C_2
REMARK    2  A    between atoms: C_2  and  C_3
REMARK    3  A    between atoms: C_3  and  C_4
REMARK    4  A    between atoms: C_4  and  C_5
REMARK    5  A    between atoms: C_5  and  C_6
REMARK    6  A    between atoms: C_6  and  C_7
REMARK    7  A    between atoms: C_7  and  C_8
REMARK    8  A    between atoms: C_8  and  C_9
REMARK    9  A    between atoms: C_9  and  C_10
REMARK   10  A    between atoms: C_10  and  C_11
REMARK   11  A    between atoms: C_11  and  C_12
REMARK   12  A    between atoms: C_12  and  C_13
REMARK   13  A    between atoms: C_13  and  C_14
REMARK   14  A    between atoms: C_14  and  C_15
REMARK   15  A    between atoms: C_15  and  C_16
REMARK   16  A    between atoms: C_16  and  N_17
REMARK   17  A    between atoms: N_17  and  C_18
REMARK   18  A    between atoms: C_21  and  C_22
REMARK   19  A    between atoms: C_22  and  C_24
REMARK   20  A    between atoms: C_24  and  C_25
REMARK   21  A    between atoms: C_24  and  C_26
REMARK   22  A    between atoms: C_26  and  O_28
REMARK   23  A    between atoms: O_28  and  C_29
REMARK   24  A    between atoms: C_29  and  C_30
REMARK                            x       y       z     vdW  Elec       q    Type
REMARK                         _______ _______ _______ _____ _____    ______ ____
ROOT
ATOM      1  N   UNL     1       7.284   7.198  16.767  0.00  0.00    +0.000 N 
ATOM      2  H   UNL     1       7.405   7.614  15.855  0.00  0.00    +0.000 HD
ENDROOT
BRANCH   1   3
ATOM      3  C   UNL     1       6.226   6.322  16.933  0.00  0.00    +0.000 A 
ATOM      4  C   UNL     1       5.071   6.695  17.621  0.00  0.00    +0.000 A 
ATOM      5  C   UNL     1       4.043   5.789  17.856  0.00  0.00    +0.000 A 
ATOM      6  C   UNL     1       4.110   4.486  17.338  0.00  0.00    +0.000 A 
ATOM      7  C   UNL     1       5.256   4.112  16.623  0.00  0.00    +0.000 A 
ATOM      8  C   UNL     1       6.317   5.011  16.460  0.00  0.00    +0.000 A 
BRANCH   6   9
ATOM      9  C   UNL     1       2.934   3.579  17.534  0.00  0.00    +0.000 C 
ATOM     10  O   UNL     1       1.964   3.734  16.761  0.00  0.00    +0.000 OA
BRANCH   9  11
ATOM     11  C   UNL     1       2.940   2.503  18.631  0.00  0.00    +0.000 C 
ATOM     12  C   UNL     1       3.624   1.222  18.095  0.00  0.00    +0.000 C 
BRANCH  11  13
ATOM     13  C   UNL     1       3.635   2.935  19.915  0.00  0.00    +0.000 C 
ATOM     14  O   UNL     1       4.694   2.455  20.340  0.00  0.00    +0.000 OA
BRANCH  13  15
ATOM     15  O   UNL     1       2.960   3.927  20.572  0.00  0.00    +0.000 OA
BRANCH  15  16
ATOM     16  C   UNL     1       1.585   3.586  20.815  0.00  0.00    +0.000 C 
ATOM     17  C   UNL     1       1.524   2.578  21.950  0.00  0.00    +0.000 C 
ENDBRANCH  15  16
ENDBRANCH  13  15
ENDBRANCH  11  13
ENDBRANCH   9  11
ENDBRANCH   6   9
ENDBRANCH   1   3
BRANCH   1  18
ATOM     18  C   UNL     1       7.980   7.736  17.919  0.00  0.00    +0.000 C 
BRANCH  18  19
ATOM     19  C   UNL     1       8.156   9.234  17.772  0.00  0.00    +0.000 C 
BRANCH  19  20
ATOM     20  C   UNL     1       8.958   9.777  18.947  0.00  0.00    +0.000 C 
BRANCH  20  21
ATOM     21  C   UNL     1       9.396  11.203  18.667  0.00  0.00    +0.000 C 
BRANCH  21  22
ATOM     22  C   UNL     1      10.801  11.431  19.196  0.00  0.00    +0.000 C 
BRANCH  22  23
ATOM     23  C   UNL     1      10.753  12.319  20.426  0.00  0.00    +0.000 C 
BRANCH  23  24
ATOM     24  C   UNL     1      10.438  13.747  20.019  0.00  0.00    +0.000 C 
BRANCH  24  25
ATOM     25  C   UNL     1       9.326  14.299  20.893  0.00  0.00    +0.000 C 
BRANCH  25  26
ATOM     26  C   UNL     1       8.016  14.295  20.128  0.00  0.00    +0.000 C 
BRANCH  26  27
ATOM     27  C   UNL     1       8.248  14.764  18.704  0.00  0.00    +0.000 C 
BRANCH  27  28
ATOM     28  C   UNL     1       6.962  15.335  18.133  0.00  0.00    +0.000 C 
BRANCH  28  29
ATOM     29  C   UNL     1       5.913  15.442  19.225  0.00  0.00    +0.000 C 
BRANCH  29  30
ATOM     30  C   UNL     1       4.645  14.722  18.800  0.00  0.00    +0.000 C 
BRANCH  30  31
ATOM     31  C   UNL     1       4.039  15.407  17.586  0.00  0.00    +0.000 C 
BRANCH  31  33
ATOM     32  C   UNL     1       2.607  17.307  16.841  0.00  0.00    +0.000 C 
ATOM     33  C   UNL     1       3.012  16.443  18.019  0.00  0.00    +0.000 C 
ENDBRANCH  31  33
ENDBRANCH  30  31
ENDBRANCH  29  30
ENDBRANCH  28  29
ENDBRANCH  27  28
ENDBRANCH  26  27
ENDBRANCH  25  26
ENDBRANCH  24  25
ENDBRANCH  23  24
ENDBRANCH  22  23
ENDBRANCH  21  22
ENDBRANCH  20  21
ENDBRANCH  19  20
ENDBRANCH  18  19
ENDBRANCH   1  18
TORSDOF 21
ENDMDL
MODEL 5
REMARK VINA RESULT:      -6.0      2.661      3.560
REMARK  Name = 
REMARK  24 active torsions:
REMARK  status: ('A' for Active; 'I' for Inactive)
REMARK    1  A    between atoms: C_1  and  C_2
REMARK    2  A    between atoms: C_2  and  C_3
REMARK    3  A    between atoms: C_3  and  C_4
REMARK    4  A    between atoms: C_4  and  C_5
REMARK    5  A    between atoms: C_5  and  C_6
REMARK    6  A    between atoms: C_6  and  C_7
REMARK    7  A    between atoms: C_7  and  C_8
REMARK    8  A    between atoms: C_8  and  C_9
REMARK    9  A    between atoms: C_9  and  C_10
REMARK   10  A    between atoms: C_10  and  C_11
REMARK   11  A    between atoms: C_11  and  C_12
REMARK   12  A    between atoms: C_12  and  C_13
REMARK   13  A    between atoms: C_13  and  C_14
REMARK   14  A    between atoms: C_14  and  C_15
REMARK   15  A    between atoms: C_15  and  C_16
REMARK   16  A    between atoms: C_16  and  N_17
REMARK   17  A    between atoms: N_17  and  C_18
REMARK   18  A    between atoms: C_21  and  C_22
REMARK   19  A    between atoms: C_22  and  C_24
REMARK   20  A    between atoms: C_24  and  C_25
REMARK   21  A    between atoms: C_24  and  C_26
REMARK   22  A    between atoms: C_26  and  O_28
REMARK   23  A    between atoms: O_28  and  C_29
REMARK   24  A    between atoms: C_29  and  C_30
REMARK                            x       y       z     vdW  Elec       q    Type
REMARK                         _______ _______ _______ _____ _____    ______ ____
ROOT
ATOM      1  N   UNL     1       1.857   8.685  17.774  0.00  0.00    +0.000 N 
ATOM      2  H   UNL     1       1.538   8.712  16.815  0.00  0.00    +0.000 HD
ENDROOT
BRANCH   1   3
ATOM      3  C   UNL     1       1.357   9.642  18.638  0.00  0.00    +0.000 A 
ATOM      4  C   UNL     1       0.815   9.295  19.876  0.00  0.00    +0.000 A 
ATOM      5  C   UNL     1       0.241  10.250  20.709  0.00  0.00    +0.000 A 
ATOM      6  C   UNL     1       0.260  11.607  20.355  0.00  0.00    +0.000 A 
ATOM      7  C   UNL     1       0.827  11.967  19.124  0.00  0.00    +0.000 A 
ATOM      8  C   UNL     1       1.332  10.987  18.261  0.00  0.00    +0.000 A 
BRANCH   6   9
ATOM      9  C   UNL     1      -0.283  12.607  21.330  0.00  0.00    +0.000 C 
ATOM     10  O   UNL     1       0.550  13.238  22.016  0.00  0.00    +0.000 OA
BRANCH   9  11
ATOM     11  C   UNL     1      -1.796  12.844  21.460  0.00  0.00    +0.000 C 
ATOM     12  C   UNL     1      -2.493  12.479  20.127  0.00  0.00    +0.000 C 
BRANCH  11  13
ATOM     13  C   UNL     1      -2.449  12.060  22.590  0.00  0.00    +0.000 C 
ATOM     14  O   UNL     1      -1.843  11.323  23.380  0.00  0.00    +0.000 OA
BRANCH  13  15
ATOM     15  O   UNL     1      -3.802  12.251  22.651  0.00  0.00    +0.000 OA
BRANCH  15  16
ATOM     16  C   UNL     1      -4.149  13.552  23.154  0.00  0.00    +0.000 C 
ATOM     17  C   UNL     1      -3.757  13.630  24.621  0.00  0.00    +0.000 C 
ENDBRANCH  15  16
ENDBRANCH  13  15
ENDBRANCH  11  13
ENDBRANCH   9  11
ENDBRANCH   6   9
ENDBRANCH   1   3
BRANCH   1  18
ATOM     18  C   UNL     1       3.016   7.896  18.141  0.00  0.00    +0.000 C 
BRANCH  18  19
ATOM     19  C   UNL     1       2.634   6.437  18.280  0.00  0.00    +0.000 C 
BRANCH  19  20
ATOM     20  C   UNL     1       2.757   6.006  19.734  0.00  0.00    +0.000 C 
BRANCH  20  21
ATOM     21  C   UNL     1       1.460   5.374  20.206  0.00  0.00    +0.000 C 
BRANCH  21  22
ATOM     22  C   UNL     1       1.700   3.929  20.607  0.00  0.00    +0.000 C 
BRANCH  22  23
ATOM     23  C   UNL     1       0.915   3.003  19.696  0.00  0.00    +0.000 C 
BRANCH  23  24
ATOM     24  C   UNL     1       1.525   3.008  18.306  0.00  0.00    +0.000 C 
BRANCH  24  25
ATOM     25  C   UNL     1       2.628   1.968  18.223  0.00  0.00    +0.000 C 
BRANCH  25  26
ATOM     26  C   UNL     1       3.976   2.626  18.449  0.00  0.00    +0.000 C 
BRANCH  26  27
ATOM     27  C   UNL     1       4.312   3.532  17.280  0.00  0.00    +0.000 C 
BRANCH  27  28
ATOM     28  C   UNL     1       5.496   4.414  17.634  0.00  0.00    +0.000 C 
BRANCH  28  29
ATOM     29  C   UNL     1       6.562   4.305  16.560  0.00  0.00    +0.000 C 
BRANCH  29  30
ATOM     30  C   UNL     1       6.186   5.163  15.364  0.00  0.00    +0.000 C 
BRANCH  30  31
ATOM     31  C   UNL     1       6.593   4.468  14.075  0.00  0.00    +0.000 C 
BRANCH  31  33
ATOM     32  C   UNL     1       5.791   3.125  12.134  0.00  0.00    +0.000 C 
ATOM     33  C   UNL     1       5.376   3.861  13.393  0.00  0.00    +0.000 C 
ENDBRANCH  31  33
ENDBRANCH  30  31
ENDBRANCH  29  30
ENDBRANCH  28  29
ENDBRANCH  27  28
ENDBRANCH  26  27
ENDBRANCH  25  26
ENDBRANCH  24  25
ENDBRANCH  23  24
ENDBRANCH  22  23
ENDBRANCH  21  22
ENDBRANCH  20  21
ENDBRANCH  19  20
ENDBRANCH  18  19
ENDBRANCH   1  18
TORSDOF 21
ENDMDL
MODEL 6
REMARK VINA RESULT:      -6.0      1.076      1.686
REMARK  Name = 
REMARK  24 active torsions:
REMARK  status: ('A' for Active; 'I' for Inactive)
REMARK    1  A    between atoms: C_1  and  C_2
REMARK    2  A    between atoms: C_2  and  C_3
REMARK    3  A    between atoms: C_3  and  C_4
REMARK    4  A    between atoms: C_4  and  C_5
REMARK    5  A    between atoms: C_5  and  C_6
REMARK    6  A    between atoms: C_6  and  C_7
REMARK    7  A    between atoms: C_7  and  C_8
REMARK    8  A    between atoms: C_8  and  C_9
REMARK    9  A    between atoms: C_9  and  C_10
REMARK   10  A    between atoms: C_10  and  C_11
REMARK   11  A    between atoms: C_11  and  C_12
REMARK   12  A    between atoms: C_12  and  C_13
REMARK   13  A    between atoms: C_13  and  C_14
REMARK   14  A    between atoms: C_14  and  C_15
REMARK   15  A    between atoms: C_15  and  C_16
REMARK   16  A    between atoms: C_16  and  N_17
REMARK   17  A    between atoms: N_17  and  C_18
REMARK   18  A    between atoms: C_21  and  C_22
REMARK   19  A    between atoms: C_22  and  C_24
REMARK   20  A    between atoms: C_24  and  C_25
REMARK   21  A    between atoms: C_24  and  C_26
REMARK   22  A    between atoms: C_26  and  O_28
REMARK   23  A    between atoms: O_28  and  C_29
REMARK   24  A    between atoms: C_29  and  C_30
REMARK                            x       y       z     vdW  Elec       q    Type
REMARK                         _______ _______ _______ _____ _____    ______ ____
ROOT
ATOM      1  N   UNL     1       1.910   5.412  21.514  0.00  0.00    +0.000 N 
ATOM      2  H   UNL     1       1.453   5.397  22.415  0.00  0.00    +0.000 HD
ENDROOT
BRANCH   1   3
ATOM      3  C   UNL     1       1.802   6.569  20.763  0.00  0.00    +0.000 A 
ATOM      4  C   UNL     1       2.340   6.659  19.479  0.00  0.00    +0.000 A 
ATOM      5  C   UNL     1       2.301   7.847  18.759  0.00  0.00    +0.000 A 
ATOM      6  C   UNL     1       1.647   8.974  19.280  0.00  0.00    +0.000 A 
ATOM      7  C   UNL     1       1.081   8.884  20.559  0.00  0.00    +0.000 A 
ATOM      8  C   UNL     1       1.195   7.704  21.304  0.00  0.00    +0.000 A 
BRANCH   6   9
ATOM      9  C   UNL     1       1.547  10.200  18.423  0.00  0.00    +0.000 C 
ATOM     10  O   UNL     1       2.023  10.125  17.270  0.00  0.00    +0.000 OA
BRANCH   9  11
ATOM     11  C   UNL     1       0.873  11.478  18.948  0.00  0.00    +0.000 C 
ATOM     12  C   UNL     1       1.848  12.671  18.809  0.00  0.00    +0.000 C 
BRANCH  11  13
ATOM     13  C   UNL     1      -0.433  11.821  18.243  0.00  0.00    +0.000 C 
ATOM     14  O   UNL     1      -0.810  12.969  17.975  0.00  0.00    +0.000 OA
BRANCH  13  15
ATOM     15  O   UNL     1      -1.168  10.711  17.928  0.00  0.00    +0.000 OA
BRANCH  15  16
ATOM     16  C   UNL     1      -2.459  11.044  17.391  0.00  0.00    +0.000 C 
ATOM     17  C   UNL     1      -3.418   9.900  17.674  0.00  0.00    +0.000 C 
ENDBRANCH  15  16
ENDBRANCH  13  15
ENDBRANCH  11  13
ENDBRANCH   9  11
ENDBRANCH   6   9
ENDBRANCH   1   3
BRANCH   1  18
ATOM     18  C   UNL     1       2.374   4.181  20.904  0.00  0.00    +0.000 C 
BRANCH  18  19
ATOM     19  C   UNL     1       1.199   3.279  20.585  0.00  0.00    +0.000 C 
BRANCH  19  20
ATOM     20  C   UNL     1       1.652   2.140  19.684  0.00  0.00    +0.000 C 
BRANCH  20  21
ATOM     21  C   UNL     1       1.731   2.610  18.243  0.00  0.00    +0.000 C 
BRANCH  21  22
ATOM     22  C   UNL     1       3.037   2.156  17.616  0.00  0.00    +0.000 C 
BRANCH  22  23
ATOM     23  C   UNL     1       3.718   3.329  16.934  0.00  0.00    +0.000 C 
BRANCH  23  24
ATOM     24  C   UNL     1       3.900   4.466  17.923  0.00  0.00    +0.000 C 
BRANCH  24  25
ATOM     25  C   UNL     1       5.301   4.424  18.505  0.00  0.00    +0.000 C 
BRANCH  25  26
ATOM     26  C   UNL     1       5.970   5.776  18.344  0.00  0.00    +0.000 C 
BRANCH  26  27
ATOM     27  C   UNL     1       5.759   6.292  16.933  0.00  0.00    +0.000 C 
BRANCH  27  28
ATOM     28  C   UNL     1       6.664   5.544  15.970  0.00  0.00    +0.000 C 
BRANCH  28  29
ATOM     29  C   UNL     1       5.907   5.219  14.695  0.00  0.00    +0.000 C 
BRANCH  29  30
ATOM     30  C   UNL     1       6.186   3.786  14.275  0.00  0.00    +0.000 C 
BRANCH  30  31
ATOM     31  C   UNL     1       6.323   3.703  12.764  0.00  0.00    +0.000 C 
BRANCH  31  33
ATOM     32  C   UNL     1       4.473   2.640  11.474  0.00  0.00    +0.000 C 
ATOM     33  C   UNL     1       4.975   3.928  12.095  0.00  0.00    +0.000 C 
ENDBRANCH  31  33
ENDBRANCH  30  31
ENDBRANCH  29  30
ENDBRANCH  28  29
ENDBRANCH  27  28
ENDBRANCH  26  27
ENDBRANCH  25  26
ENDBRANCH  24  25
ENDBRANCH  23  24
ENDBRANCH  22  23
ENDBRANCH  21  22
ENDBRANCH  20  21
ENDBRANCH  19  20
ENDBRANCH  18  19
ENDBRANCH   1  18
TORSDOF 21
ENDMDL
MODEL 7
REMARK VINA RESULT:      -5.9      2.788      4.705
REMARK  Name = 
REMARK  24 active torsions:
REMARK  status: ('A' for Active; 'I' for Inactive)
REMARK    1  A    between atoms: C_1  and  C_2
REMARK    2  A    between atoms: C_2  and  C_3
REMARK    3  A    between atoms: C_3  and  C_4
REMARK    4  A    between atoms: C_4  and  C_5
REMARK    5  A    between atoms: C_5  and  C_6
REMARK    6  A    between atoms: C_6  and  C_7
REMARK    7  A    between atoms: C_7  and  C_8
REMARK    8  A    between atoms: C_8  and  C_9
REMARK    9  A    between atoms: C_9  and  C_10
REMARK   10  A    between atoms: C_10  and  C_11
REMARK   11  A    between atoms: C_11  and  C_12
REMARK   12  A    between atoms: C_12  and  C_13
REMARK   13  A    between atoms: C_13  and  C_14
REMARK   14  A    between atoms: C_14  and  C_15
REMARK   15  A    between atoms: C_15  and  C_16
REMARK   16  A    between atoms: C_16  and  N_17
REMARK   17  A    between atoms: N_17  and  C_18
REMARK   18  A    between atoms: C_21  and  C_22
REMARK   19  A    between atoms: C_22  and  C_24
REMARK   20  A    between atoms: C_24  and  C_25
REMARK   21  A    between atoms: C_24  and  C_26
REMARK   22  A    between atoms: C_26  and  O_28
REMARK   23  A    between atoms: O_28  and  C_29
REMARK   24  A    between atoms: C_29  and  C_30
REMARK                            x       y       z     vdW  Elec       q    Type
REMARK                         _______ _______ _______ _____ _____    ______ ____
ROOT
ATOM      1  N   UNL     1       1.249   9.483  17.589  0.00  0.00    +0.000 N 
ATOM      2  H   UNL     1       1.054   9.587  16.603  0.00  0.00    +0.000 HD
ENDROOT
BRANCH   1   3
ATOM      3  C   UNL     1       0.728  10.435  18.445  0.00  0.00    +0.000 A 
ATOM      4  C   UNL     1      -0.639  10.502  18.717  0.00  0.00    +0.000 A 
ATOM      5  C   UNL     1      -1.171  11.510  19.514  0.00  0.00    +0.000 A 
ATOM      6  C   UNL     1      -0.329  12.447  20.132  0.00  0.00    +0.000 A 
ATOM      7  C   UNL     1       1.048  12.370  19.885  0.00  0.00    +0.000 A 
ATOM      8  C   UNL     1       1.562  11.398  19.018  0.00  0.00    +0.000 A 
BRANCH   6   9
ATOM      9  C   UNL     1      -0.941  13.452  21.060  0.00  0.00    +0.000 C 
ATOM     10  O   UNL     1      -1.492  14.444  20.537  0.00  0.00    +0.000 OA
BRANCH   9  11
ATOM     11  C   UNL     1      -0.898  13.250  22.584  0.00  0.00    +0.000 C 
ATOM     12  C   UNL     1      -0.946  14.626  23.289  0.00  0.00    +0.000 C 
BRANCH  11  13
ATOM     13  C   UNL     1      -2.024  12.377  23.122  0.00  0.00    +0.000 C 
ATOM     14  O   UNL     1      -2.959  12.785  23.824  0.00  0.00    +0.000 OA
BRANCH  13  15
ATOM     15  O   UNL     1      -1.900  11.067  22.748  0.00  0.00    +0.000 OA
BRANCH  15  16
ATOM     16  C   UNL     1      -0.670  10.482  23.204  0.00  0.00    +0.000 C 
ATOM     17  C   UNL     1      -0.372   9.251  22.364  0.00  0.00    +0.000 C 
ENDBRANCH  15  16
ENDBRANCH  13  15
ENDBRANCH  11  13
ENDBRANCH   9  11
ENDBRANCH   6   9
ENDBRANCH   1   3
BRANCH   1  18
ATOM     18  C   UNL     1       2.285   8.576  18.041  0.00  0.00    +0.000 C 
BRANCH  18  19
ATOM     19  C   UNL     1       1.962   8.060  19.428  0.00  0.00    +0.000 C 
BRANCH  19  20
ATOM     20  C   UNL     1       2.712   6.761  19.685  0.00  0.00    +0.000 C 
BRANCH  20  21
ATOM     21  C   UNL     1       1.842   5.572  19.319  0.00  0.00    +0.000 C 
BRANCH  21  22
ATOM     22  C   UNL     1       1.232   4.967  20.572  0.00  0.00    +0.000 C 
BRANCH  22  23
ATOM     23  C   UNL     1       1.588   3.494  20.660  0.00  0.00    +0.000 C 
BRANCH  23  24
ATOM     24  C   UNL     1       0.753   2.701  19.671  0.00  0.00    +0.000 C 
BRANCH  24  25
ATOM     25  C   UNL     1       1.535   2.495  18.387  0.00  0.00    +0.000 C 
BRANCH  25  26
ATOM     26  C   UNL     1       2.906   1.925  18.701  0.00  0.00    +0.000 C 
BRANCH  26  27
ATOM     27  C   UNL     1       3.981   2.785  18.065  0.00  0.00    +0.000 C 
BRANCH  27  28
ATOM     28  C   UNL     1       4.770   3.506  19.143  0.00  0.00    +0.000 C 
BRANCH  28  29
ATOM     29  C   UNL     1       5.601   4.614  18.522  0.00  0.00    +0.000 C 
BRANCH  29  30
ATOM     30  C   UNL     1       4.960   5.083  17.228  0.00  0.00    +0.000 C 
BRANCH  30  31
ATOM     31  C   UNL     1       5.524   6.436  16.826  0.00  0.00    +0.000 C 
BRANCH  31  33
ATOM     32  C   UNL     1       7.603   7.556  17.626  0.00  0.00    +0.000 C 
ATOM     33  C   UNL     1       7.045   6.397  16.824  0.00  0.00    +0.000 C 
ENDBRANCH  31  33
ENDBRANCH  30  31
ENDBRANCH  29  30
ENDBRANCH  28  29
ENDBRANCH  27  28
ENDBRANCH  26  27
ENDBRANCH  25  26
ENDBRANCH  24  25
ENDBRANCH  23  24
ENDBRANCH  22  23
ENDBRANCH  21  22
ENDBRANCH  20  21
ENDBRANCH  19  20
ENDBRANCH  18  19
ENDBRANCH   1  18
TORSDOF 21
ENDMDL
MODEL 8
REMARK VINA RESULT:      -5.9      3.039      8.738
REMARK  Name = 
REMARK  24 active torsions:
REMARK  status: ('A' for Active; 'I' for Inactive)
REMARK    1  A    between atoms: C_1  and  C_2
REMARK    2  A    between atoms: C_2  and  C_3
REMARK    3  A    between atoms: C_3  and  C_4
REMARK    4  A    between atoms: C_4  and  C_5
REMARK    5  A    between atoms: C_5  and  C_6
REMARK    6  A    between atoms: C_6  and  C_7
REMARK    7  A    between atoms: C_7  and  C_8
REMARK    8  A    between atoms: C_8  and  C_9
REMARK    9  A    between atoms: C_9  and  C_10
REMARK   10  A    between atoms: C_10  and  C_11
REMARK   11  A    between atoms: C_11  and  C_12
REMARK   12  A    between atoms: C_12  and  C_13
REMARK   13  A    between atoms: C_13  and  C_14
REMARK   14  A    between atoms: C_14  and  C_15
REMARK   15  A    between atoms: C_15  and  C_16
REMARK   16  A    between atoms: C_16  and  N_17
REMARK   17  A    between atoms: N_17  and  C_18
REMARK   18  A    between atoms: C_21  and  C_22
REMARK   19  A    between atoms: C_22  and  C_24
REMARK   20  A    between atoms: C_24  and  C_25
REMARK   21  A    between atoms: C_24  and  C_26
REMARK   22  A    between atoms: C_26  and  O_28
REMARK   23  A    between atoms: O_28  and  C_29
REMARK   24  A    between atoms: C_29  and  C_30
REMARK                            x       y       z     vdW  Elec       q    Type
REMARK                         _______ _______ _______ _____ _____    ______ ____
ROOT
ATOM      1  N   UNL     1       2.218   2.361  19.080  0.00  0.00    +0.000 N 
ATOM      2  H   UNL     1       1.737   1.643  18.556  0.00  0.00    +0.000 HD
ENDROOT
BRANCH   1   3
ATOM      3  C   UNL     1       3.024   3.234  18.372  0.00  0.00    +0.000 A 
ATOM      4  C   UNL     1       2.822   3.476  17.013  0.00  0.00    +0.000 A 
ATOM      5  C   UNL     1       3.683   4.290  16.286  0.00  0.00    +0.000 A 
ATOM      6  C   UNL     1       4.742   4.955  16.923  0.00  0.00    +0.000 A 
ATOM      7  C   UNL     1       4.936   4.737  18.294  0.00  0.00    +0.000 A 
ATOM      8  C   UNL     1       4.108   3.854  18.998  0.00  0.00    +0.000 A 
BRANCH   6   9
ATOM      9  C   UNL     1       5.581   5.898  16.116  0.00  0.00    +0.000 C 
ATOM     10  O   UNL     1       5.092   7.022  15.871  0.00  0.00    +0.000 OA
BRANCH   9  11
ATOM     11  C   UNL     1       6.982   5.493  15.631  0.00  0.00    +0.000 C 
ATOM     12  C   UNL     1       7.470   4.261  16.430  0.00  0.00    +0.000 C 
BRANCH  11  13
ATOM     13  C   UNL     1       7.053   5.178  14.143  0.00  0.00    +0.000 C 
ATOM     14  O   UNL     1       7.972   5.527  13.391  0.00  0.00    +0.000 OA
BRANCH  13  15
ATOM     15  O   UNL     1       5.977   4.457  13.705  0.00  0.00    +0.000 OA
BRANCH  15  16
ATOM     16  C   UNL     1       6.343   3.459  12.737  0.00  0.00    +0.000 C 
ATOM     17  C   UNL     1       5.124   3.125  11.893  0.00  0.00    +0.000 C 
ENDBRANCH  15  16
ENDBRANCH  13  15
ENDBRANCH  11  13
ENDBRANCH   9  11
ENDBRANCH   6   9
ENDBRANCH   1   3
BRANCH   1  18
ATOM     18  C   UNL     1       2.314   2.278  20.524  0.00  0.00    +0.000 C 
BRANCH  18  19
ATOM     19  C   UNL     1       1.183   3.052  21.170  0.00  0.00    +0.000 C 
BRANCH  19  20
ATOM     20  C   UNL     1       0.937   4.344  20.403  0.00  0.00    +0.000 C 
BRANCH  20  21
ATOM     21  C   UNL     1       1.774   5.468  20.986  0.00  0.00    +0.000 C 
BRANCH  21  22
ATOM     22  C   UNL     1       2.037   6.525  19.928  0.00  0.00    +0.000 C 
BRANCH  22  23
ATOM     23  C   UNL     1       1.758   7.905  20.496  0.00  0.00    +0.000 C 
BRANCH  23  24
ATOM     24  C   UNL     1       0.485   7.876  21.321  0.00  0.00    +0.000 C 
BRANCH  24  25
ATOM     25  C   UNL     1      -0.240   9.204  21.198  0.00  0.00    +0.000 C 
BRANCH  25  26
ATOM     26  C   UNL     1       0.202   9.920  19.936  0.00  0.00    +0.000 C 
BRANCH  26  27
ATOM     27  C   UNL     1      -0.071  11.406  20.061  0.00  0.00    +0.000 C 
BRANCH  27  28
ATOM     28  C   UNL     1      -0.554  11.956  18.731  0.00  0.00    +0.000 C 
BRANCH  28  29
ATOM     29  C   UNL     1      -1.189  10.847  17.912  0.00  0.00    +0.000 C 
BRANCH  29  30
ATOM     30  C   UNL     1      -2.693  11.045  17.846  0.00  0.00    +0.000 C 
BRANCH  30  31
ATOM     31  C   UNL     1      -3.333   9.919  17.051  0.00  0.00    +0.000 C 
BRANCH  31  33
ATOM     32  C   UNL     1      -2.916  10.081  14.598  0.00  0.00    +0.000 C 
ATOM     33  C   UNL     1      -3.865  10.441  15.725  0.00  0.00    +0.000 C 
ENDBRANCH  31  33
ENDBRANCH  30  31
ENDBRANCH  29  30
ENDBRANCH  28  29
ENDBRANCH  27  28
ENDBRANCH  26  27
ENDBRANCH  25  26
ENDBRANCH  24  25
ENDBRANCH  23  24
ENDBRANCH  22  23
ENDBRANCH  21  22
ENDBRANCH  20  21
ENDBRANCH  19  20
ENDBRANCH  18  19
ENDBRANCH   1  18
TORSDOF 21
ENDMDL
MODEL 9
REMARK VINA RESULT:      -5.9      6.598     10.296
REMARK  Name = 
REMARK  24 active torsions:
REMARK  status: ('A' for Active; 'I' for Inactive)
REMARK    1  A    between atoms: C_1  and  C_2
REMARK    2  A    between atoms: C_2  and  C_3
REMARK    3  A    between atoms: C_3  and  C_4
REMARK    4  A    between atoms: C_4  and  C_5
REMARK    5  A    between atoms: C_5  and  C_6
REMARK    6  A    between atoms: C_6  and  C_7
REMARK    7  A    between atoms: C_7  and  C_8
REMARK    8  A    between atoms: C_8  and  C_9
REMARK    9  A    between atoms: C_9  and  C_10
REMARK   10  A    between atoms: C_10  and  C_11
REMARK   11  A    between atoms: C_11  and  C_12
REMARK   12  A    between atoms: C_12  and  C_13
REMARK   13  A    between atoms: C_13  and  C_14
REMARK   14  A    between atoms: C_14  and  C_15
REMARK   15  A    between atoms: C_15  and  C_16
REMARK   16  A    between atoms: C_16  and  N_17
REMARK   17  A    between atoms: N_17  and  C_18
REMARK   18  A    between atoms: C_21  and  C_22
REMARK   19  A    between atoms: C_22  and  C_24
REMARK   20  A    between atoms: C_24  and  C_25
REMARK   21  A    between atoms: C_24  and  C_26
REMARK   22  A    between atoms: C_26  and  O_28
REMARK   23  A    between atoms: O_28  and  C_29
REMARK   24  A    between atoms: C_29  and  C_30
REMARK                            x       y       z     vdW  Elec       q    Type
REMARK                         _______ _______ _______ _____ _____    ______ ____
ROOT
ATOM      1  N   UNL     1       7.706   6.987  17.115  0.00  0.00    +0.000 N 
ATOM      2  H   UNL     1       7.908   7.299  16.175  0.00  0.00    +0.000 HD
ENDROOT
BRANCH   1   3
ATOM      3  C   UNL     1       6.729   6.021  17.270  0.00  0.00    +0.000 A 
ATOM      4  C   UNL     1       5.941   5.600  16.199  0.00  0.00    +0.000 A 
ATOM      5  C   UNL     1       4.906   4.689  16.374  0.00  0.00    +0.000 A 
ATOM      6  C   UNL     1       4.675   4.106  17.630  0.00  0.00    +0.000 A 
ATOM      7  C   UNL     1       5.480   4.505  18.706  0.00  0.00    +0.000 A 
ATOM      8  C   UNL     1       6.468   5.481  18.532  0.00  0.00    +0.000 A 
BRANCH   6   9
ATOM      9  C   UNL     1       3.613   3.056  17.745  0.00  0.00    +0.000 C 
ATOM     10  O   UNL     1       3.988   1.865  17.698  0.00  0.00    +0.000 OA
BRANCH   9  11
ATOM     11  C   UNL     1       2.136   3.442  17.927  0.00  0.00    +0.000 C 
ATOM     12  C   UNL     1       1.390   2.302  18.661  0.00  0.00    +0.000 C 
BRANCH  11  13
ATOM     13  C   UNL     1       1.928   4.743  18.691  0.00  0.00    +0.000 C 
ATOM     14  O   UNL     1       1.677   4.819  19.900  0.00  0.00    +0.000 OA
BRANCH  13  15
ATOM     15  O   UNL     1       2.048   5.847  17.892  0.00  0.00    +0.000 OA
BRANCH  15  16
ATOM     16  C   UNL     1       2.696   6.941  18.564  0.00  0.00    +0.000 C 
ATOM     17  C   UNL     1       2.187   8.247  17.977  0.00  0.00    +0.000 C 
ENDBRANCH  15  16
ENDBRANCH  13  15
ENDBRANCH  11  13
ENDBRANCH   9  11
ENDBRANCH   6   9
ENDBRANCH   1   3
BRANCH   1  18
ATOM     18  C   UNL     1       8.181   7.743  18.257  0.00  0.00    +0.000 C 
BRANCH  18  19
ATOM     19  C   UNL     1       8.275   9.215  17.909  0.00  0.00    +0.000 C 
BRANCH  19  20
ATOM     20  C   UNL     1       9.266   9.903  18.838  0.00  0.00    +0.000 C 
BRANCH  20  21
ATOM     21  C   UNL     1       9.170  11.410  18.683  0.00  0.00    +0.000 C 
BRANCH  21  22
ATOM     22  C   UNL     1       9.625  12.095  19.960  0.00  0.00    +0.000 C 
BRANCH  22  23
ATOM     23  C   UNL     1      11.055  11.698  20.279  0.00  0.00    +0.000 C 
BRANCH  23  24
ATOM     24  C   UNL     1      12.016  12.480  19.403  0.00  0.00    +0.000 C 
BRANCH  24  25
ATOM     25  C   UNL     1      12.042  13.934  19.837  0.00  0.00    +0.000 C 
BRANCH  25  26
ATOM     26  C   UNL     1      12.298  14.828  18.638  0.00  0.00    +0.000 C 
BRANCH  26  27
ATOM     27  C   UNL     1      11.150  15.803  18.465  0.00  0.00    +0.000 C 
BRANCH  27  28
ATOM     28  C   UNL     1       9.983  15.110  17.784  0.00  0.00    +0.000 C 
BRANCH  28  29
ATOM     29  C   UNL     1       8.707  15.353  18.569  0.00  0.00    +0.000 C 
BRANCH  29  30
ATOM     30  C   UNL     1       8.391  16.838  18.602  0.00  0.00    +0.000 C 
BRANCH  30  31
ATOM     31  C   UNL     1       6.886  17.051  18.621  0.00  0.00    +0.000 C 
BRANCH  31  33
ATOM     32  C   UNL     1       4.925  17.324  20.137  0.00  0.00    +0.000 C 
ATOM     33  C   UNL     1       6.428  17.476  20.008  0.00  0.00    +0.000 C 
ENDBRANCH  31  33
ENDBRANCH  30  31
ENDBRANCH  29  30
ENDBRANCH  28  29
ENDBRANCH  27  28
ENDBRANCH  26  27
ENDBRANCH  25  26
ENDBRANCH  24  25
ENDBRANCH  23  24
ENDBRANCH  22  23
ENDBRANCH  21  22
ENDBRANCH  20  21
ENDBRANCH  19  20
ENDBRANCH  18  19
ENDBRANCH   1  18
TORSDOF 21
ENDMDL
