MODEL 1
REMARK VINA RESULT:      -7.5      0.000      0.000
REMARK  Name = 
REMARK  6 active torsions:
REMARK  status: ('A' for Active; 'I' for Inactive)
REMARK    1  A    between atoms: C_1  and  O_2
REMARK    2  A    between atoms: O_2  and  C_3
REMARK    3  A    between atoms: C_6  and  C_7
REMARK    4  A    between atoms: C_11  and  O_12
REMARK    5  A    between atoms: C_14  and  O_15
REMARK    6  A    between atoms: C_19  and  O_20
REMARK                            x       y       z     vdW  Elec       q    Type
REMARK                         _______ _______ _______ _____ _____    ______ ____
ROOT
ATOM      1  C   UNL     1       4.158   5.872  18.762  0.00  0.00    +0.000 C 
ATOM      2  O   UNL     1       4.151   5.063  19.973  0.00  0.00    +0.000 OA
ATOM      3  C   UNL     1       3.083   4.204  20.108  0.00  0.00    +0.000 A 
ATOM      4  C   UNL     1       2.567   3.853  21.356  0.00  0.00    +0.000 A 
ATOM      5  C   UNL     1       1.619   2.827  21.422  0.00  0.00    +0.000 A 
ATOM      6  C   UNL     1       1.337   2.053  20.304  0.00  0.00    +0.000 A 
ATOM      7  C   UNL     1       1.763   2.518  19.066  0.00  0.00    +0.000 A 
ATOM      8  C   UNL     1       2.449   3.719  18.983  0.00  0.00    +0.000 A 
ATOM      9  C   UNL     1       2.124   4.771  18.000  0.00  0.00    +0.000 C 
ATOM     10  O   UNL     1       1.370   4.596  17.052  0.00  0.00    +0.000 OA
ATOM     11  C   UNL     1       2.701   6.167  18.356  0.00  0.00    +0.000 C 
ENDROOT
BRANCH   1  15
ATOM     12  C   UNL     1       6.055   4.992  14.900  0.00  0.00    +0.000 A 
ATOM     13  C   UNL     1       6.220   4.089  15.966  0.00  0.00    +0.000 A 
ATOM     14  C   UNL     1       5.685   4.354  17.247  0.00  0.00    +0.000 A 
ATOM     15  C   UNL     1       4.974   5.538  17.491  0.00  0.00    +0.000 A 
ATOM     16  C   UNL     1       4.873   6.453  16.428  0.00  0.00    +0.000 A 
ATOM     17  C   UNL     1       5.393   6.184  15.146  0.00  0.00    +0.000 A 
BRANCH  12  19
ATOM     18  C   UNL     1       5.939   3.569  12.986  0.00  0.00    +0.000 C 
ATOM     19  O   UNL     1       6.597   4.621  13.698  0.00  0.00    +0.000 OA
ENDBRANCH  12  19
ENDBRANCH   1  15
BRANCH   5  20
ATOM     20  O   UNL     1       0.975   2.525  22.584  0.00  0.00    +0.000 OA
ATOM     21  H   UNL     1       0.265   3.183  22.705  0.00  0.00    +0.000 HD
ENDBRANCH   5  20
BRANCH   7  22
ATOM     22  O   UNL     1       1.656   1.710  17.972  0.00  0.00    +0.000 OA
ATOM     23  H   UNL     1       0.991   2.125  17.389  0.00  0.00    +0.000 HD
ENDBRANCH   7  22
BRANCH  11  24
ATOM     24  O   UNL     1       2.035   6.856  19.425  0.00  0.00    +0.000 OA
ATOM     25  H   UNL     1       1.073   6.788  19.285  0.00  0.00    +0.000 HD
ENDBRANCH  11  24
TORSDOF 5
ENDMDL
MODEL 2
REMARK VINA RESULT:      -7.5      0.401      1.082
REMARK  Name = 
REMARK  6 active torsions:
REMARK  status: ('A' for Active; 'I' for Inactive)
REMARK    1  A    between atoms: C_1  and  O_2
REMARK    2  A    between atoms: O_2  and  C_3
REMARK    3  A    between atoms: C_6  and  C_7
REMARK    4  A    between atoms: C_11  and  O_12
REMARK    5  A    between atoms: C_14  and  O_15
REMARK    6  A    between atoms: C_19  and  O_20
REMARK                            x       y       z     vdW  Elec       q    Type
REMARK                         _______ _______ _______ _____ _____    ______ ____
ROOT
ATOM      1  C   UNL     1       4.113   5.715  18.441  0.00  0.00    +0.000 C 
ATOM      2  O   UNL     1       4.190   4.875  19.627  0.00  0.00    +0.000 OA
ATOM      3  C   UNL     1       3.074   4.110  19.887  0.00  0.00    +0.000 A 
ATOM      4  C   UNL     1       2.695   3.768  21.186  0.00  0.00    +0.000 A 
ATOM      5  C   UNL     1       1.674   2.828  21.358  0.00  0.00    +0.000 A 
ATOM      6  C   UNL     1       1.179   2.117  20.274  0.00  0.00    +0.000 A 
ATOM      7  C   UNL     1       1.481   2.578  18.999  0.00  0.00    +0.000 A 
ATOM      8  C   UNL     1       2.257   3.716  18.848  0.00  0.00    +0.000 A 
ATOM      9  C   UNL     1       1.904   4.822  17.935  0.00  0.00    +0.000 C 
ATOM     10  O   UNL     1       1.020   4.742  17.093  0.00  0.00    +0.000 OA
ATOM     11  C   UNL     1       2.648   6.150  18.237  0.00  0.00    +0.000 C 
ENDROOT
BRANCH   1  15
ATOM     12  C   UNL     1       6.231   4.510  14.788  0.00  0.00    +0.000 A 
ATOM     13  C   UNL     1       5.713   5.813  14.881  0.00  0.00    +0.000 A 
ATOM     14  C   UNL     1       4.968   6.233  16.006  0.00  0.00    +0.000 A 
ATOM     15  C   UNL     1       4.721   5.349  17.067  0.00  0.00    +0.000 A 
ATOM     16  C   UNL     1       5.197   4.034  16.926  0.00  0.00    +0.000 A 
ATOM     17  C   UNL     1       5.952   3.618  15.811  0.00  0.00    +0.000 A 
BRANCH  12  19
ATOM     18  C   UNL     1       6.260   3.579  12.589  0.00  0.00    +0.000 C 
ATOM     19  O   UNL     1       6.956   4.220  13.662  0.00  0.00    +0.000 OA
ENDBRANCH  12  19
ENDBRANCH   1  15
BRANCH   5  20
ATOM     20  O   UNL     1       1.163   2.550  22.590  0.00  0.00    +0.000 OA
ATOM     21  H   UNL     1       1.259   3.353  23.136  0.00  0.00    +0.000 HD
ENDBRANCH   5  20
BRANCH   7  22
ATOM     22  O   UNL     1       1.159   1.817  17.915  0.00  0.00    +0.000 OA
ATOM     23  H   UNL     1       0.280   2.122  17.617  0.00  0.00    +0.000 HD
ENDBRANCH   7  22
BRANCH  11  24
ATOM     24  O   UNL     1       2.193   6.863  19.397  0.00  0.00    +0.000 OA
ATOM     25  H   UNL     1       2.698   7.695  19.466  0.00  0.00    +0.000 HD
ENDBRANCH  11  24
TORSDOF 5
ENDMDL
MODEL 3
REMARK VINA RESULT:      -7.1      1.375      1.840
REMARK  Name = 
REMARK  6 active torsions:
REMARK  status: ('A' for Active; 'I' for Inactive)
REMARK    1  A    between atoms: C_1  and  O_2
REMARK    2  A    between atoms: O_2  and  C_3
REMARK    3  A    between atoms: C_6  and  C_7
REMARK    4  A    between atoms: C_11  and  O_12
REMARK    5  A    between atoms: C_14  and  O_15
REMARK    6  A    between atoms: C_19  and  O_20
REMARK                            x       y       z     vdW  Elec       q    Type
REMARK                         _______ _______ _______ _____ _____    ______ ____
ROOT
ATOM      1  C   UNL     1       5.693   4.249  18.499  0.00  0.00    +0.000 C 
ATOM      2  O   UNL     1       5.017   3.206  19.256  0.00  0.00    +0.000 OA
ATOM      3  C   UNL     1       3.663   3.384  19.438  0.00  0.00    +0.000 A 
ATOM      4  C   UNL     1       2.998   2.915  20.571  0.00  0.00    +0.000 A 
ATOM      5  C   UNL     1       1.600   2.957  20.590  0.00  0.00    +0.000 A 
ATOM      6  C   UNL     1       0.888   3.282  19.444  0.00  0.00    +0.000 A 
ATOM      7  C   UNL     1       1.579   3.869  18.392  0.00  0.00    +0.000 A 
ATOM      8  C   UNL     1       2.939   4.107  18.512  0.00  0.00    +0.000 A 
ATOM      9  C   UNL     1       3.570   5.393  18.155  0.00  0.00    +0.000 C 
ATOM     10  O   UNL     1       2.993   6.277  17.537  0.00  0.00    +0.000 OA
ATOM     11  C   UNL     1       4.984   5.592  18.764  0.00  0.00    +0.000 C 
ENDROOT
BRANCH   1  15
ATOM     12  C   UNL     1       6.663   4.475  14.221  0.00  0.00    +0.000 A 
ATOM     13  C   UNL     1       5.602   3.653  14.641  0.00  0.00    +0.000 A 
ATOM     14  C   UNL     1       5.288   3.493  16.010  0.00  0.00    +0.000 A 
ATOM     15  C   UNL     1       6.038   4.155  16.994  0.00  0.00    +0.000 A 
ATOM     16  C   UNL     1       7.130   4.923  16.555  0.00  0.00    +0.000 A 
ATOM     17  C   UNL     1       7.436   5.095  15.191  0.00  0.00    +0.000 A 
BRANCH  12  19
ATOM     18  C   UNL     1       6.490   3.441  12.076  0.00  0.00    +0.000 C 
ATOM     19  O   UNL     1       6.862   4.571  12.870  0.00  0.00    +0.000 OA
ENDBRANCH  12  19
ENDBRANCH   1  15
BRANCH   5  20
ATOM     20  O   UNL     1       0.893   2.642  21.711  0.00  0.00    +0.000 OA
ATOM     21  H   UNL     1       1.526   2.303  22.372  0.00  0.00    +0.000 HD
ENDBRANCH   5  20
BRANCH   7  22
ATOM     22  O   UNL     1       0.955   4.046  17.192  0.00  0.00    +0.000 OA
ATOM     23  H   UNL     1       0.233   4.685  17.350  0.00  0.00    +0.000 HD
ENDBRANCH   7  22
BRANCH  11  24
ATOM     24  O   UNL     1       5.016   5.881  20.170  0.00  0.00    +0.000 OA
ATOM     25  H   UNL     1       5.943   5.843  20.472  0.00  0.00    +0.000 HD
ENDBRANCH  11  24
TORSDOF 5
ENDMDL
MODEL 4
REMARK VINA RESULT:      -6.8      1.360      2.003
REMARK  Name = 
REMARK  6 active torsions:
REMARK  status: ('A' for Active; 'I' for Inactive)
REMARK    1  A    between atoms: C_1  and  O_2
REMARK    2  A    between atoms: O_2  and  C_3
REMARK    3  A    between atoms: C_6  and  C_7
REMARK    4  A    between atoms: C_11  and  O_12
REMARK    5  A    between atoms: C_14  and  O_15
REMARK    6  A    between atoms: C_19  and  O_20
REMARK                            x       y       z     vdW  Elec       q    Type
REMARK                         _______ _______ _______ _____ _____    ______ ____
ROOT
ATOM      1  C   UNL     1       5.815   4.433  18.204  0.00  0.00    +0.000 C 
ATOM      2  O   UNL     1       5.278   3.304  18.948  0.00  0.00    +0.000 OA
ATOM      3  C   UNL     1       3.948   3.398  19.295  0.00  0.00    +0.000 A 
ATOM      4  C   UNL     1       3.441   2.813  20.456  0.00  0.00    +0.000 A 
ATOM      5  C   UNL     1       2.054   2.781  20.636  0.00  0.00    +0.000 A 
ATOM      6  C   UNL     1       1.199   3.152  19.608  0.00  0.00    +0.000 A 
ATOM      7  C   UNL     1       1.737   3.850  18.534  0.00  0.00    +0.000 A 
ATOM      8  C   UNL     1       3.090   4.149  18.518  0.00  0.00    +0.000 A 
ATOM      9  C   UNL     1       3.620   5.488  18.195  0.00  0.00    +0.000 C 
ATOM     10  O   UNL     1       2.937   6.385  17.717  0.00  0.00    +0.000 OA
ATOM     11  C   UNL     1       5.085   5.714  18.653  0.00  0.00    +0.000 C 
ENDROOT
BRANCH   1  15
ATOM     12  C   UNL     1       6.383   4.049  13.866  0.00  0.00    +0.000 A 
ATOM     13  C   UNL     1       7.103   5.033  14.566  0.00  0.00    +0.000 A 
ATOM     14  C   UNL     1       6.911   5.243  15.951  0.00  0.00    +0.000 A 
ATOM     15  C   UNL     1       5.985   4.469  16.666  0.00  0.00    +0.000 A 
ATOM     16  C   UNL     1       5.234   3.533  15.934  0.00  0.00    +0.000 A 
ATOM     17  C   UNL     1       5.434   3.312  14.557  0.00  0.00    +0.000 A 
BRANCH  12  19
ATOM     18  C   UNL     1       5.950   2.914  11.810  0.00  0.00    +0.000 C 
ATOM     19  O   UNL     1       6.666   3.920  12.532  0.00  0.00    +0.000 OA
ENDBRANCH  12  19
ENDBRANCH   1  15
BRANCH   5  20
ATOM     20  O   UNL     1       1.498   2.349  21.802  0.00  0.00    +0.000 OA
ATOM     21  H   UNL     1       1.466   1.374  21.769  0.00  0.00    +0.000 HD
ENDBRANCH   5  20
BRANCH   7  22
ATOM     22  O   UNL     1       0.970   4.083  17.431  0.00  0.00    +0.000 OA
ATOM     23  H   UNL     1       0.288   3.383  17.418  0.00  0.00    +0.000 HD
ENDBRANCH   7  22
BRANCH  11  24
ATOM     24  O   UNL     1       5.269   5.901  20.065  0.00  0.00    +0.000 OA
ATOM     25  H   UNL     1       5.244   6.857  20.256  0.00  0.00    +0.000 HD
ENDBRANCH  11  24
TORSDOF 5
ENDMDL
MODEL 5
REMARK VINA RESULT:      -6.6      2.086      3.026
REMARK  Name = 
REMARK  6 active torsions:
REMARK  status: ('A' for Active; 'I' for Inactive)
REMARK    1  A    between atoms: C_1  and  O_2
REMARK    2  A    between atoms: O_2  and  C_3
REMARK    3  A    between atoms: C_6  and  C_7
REMARK    4  A    between atoms: C_11  and  O_12
REMARK    5  A    between atoms: C_14  and  O_15
REMARK    6  A    between atoms: C_19  and  O_20
REMARK                            x       y       z     vdW  Elec       q    Type
REMARK                         _______ _______ _______ _____ _____    ______ ____
ROOT
ATOM      1  C   UNL     1       2.754   5.463  18.006  0.00  0.00    +0.000 C 
ATOM      2  O   UNL     1       2.241   5.450  19.368  0.00  0.00    +0.000 OA
ATOM      3  C   UNL     1       2.306   4.237  20.017  0.00  0.00    +0.000 A 
ATOM      4  C   UNL     1       1.371   3.860  20.981  0.00  0.00    +0.000 A 
ATOM      5  C   UNL     1       1.616   2.708  21.735  0.00  0.00    +0.000 A 
ATOM      6  C   UNL     1       2.842   2.061  21.658  0.00  0.00    +0.000 A 
ATOM      7  C   UNL     1       3.682   2.383  20.600  0.00  0.00    +0.000 A 
ATOM      8  C   UNL     1       3.281   3.326  19.667  0.00  0.00    +0.000 A 
ATOM      9  C   UNL     1       3.388   3.120  18.210  0.00  0.00    +0.000 C 
ATOM     10  O   UNL     1       4.020   2.202  17.704  0.00  0.00    +0.000 OA
ATOM     11  C   UNL     1       2.504   4.081  17.371  0.00  0.00    +0.000 C 
ENDROOT
BRANCH   1  15
ATOM     12  C   UNL     1       6.779   7.074  17.305  0.00  0.00    +0.000 A 
ATOM     13  C   UNL     1       5.788   7.254  16.324  0.00  0.00    +0.000 A 
ATOM     14  C   UNL     1       4.495   6.701  16.469  0.00  0.00    +0.000 A 
ATOM     15  C   UNL     1       4.167   5.949  17.606  0.00  0.00    +0.000 A 
ATOM     16  C   UNL     1       5.190   5.731  18.546  0.00  0.00    +0.000 A 
ATOM     17  C   UNL     1       6.475   6.293  18.409  0.00  0.00    +0.000 A 
BRANCH  12  19
ATOM     18  C   UNL     1       8.275   8.868  17.801  0.00  0.00    +0.000 C 
ATOM     19  O   UNL     1       7.988   7.673  17.068  0.00  0.00    +0.000 OA
ENDBRANCH  12  19
ENDBRANCH   1  15
BRANCH   5  20
ATOM     20  O   UNL     1       0.686   2.208  22.596  0.00  0.00    +0.000 OA
ATOM     21  H   UNL     1       0.338   2.955  23.118  0.00  0.00    +0.000 HD
ENDBRANCH   5  20
BRANCH   7  22
ATOM     22  O   UNL     1       4.957   1.898  20.582  0.00  0.00    +0.000 OA
ATOM     23  H   UNL     1       4.881   0.929  20.485  0.00  0.00    +0.000 HD
ENDBRANCH   7  22
BRANCH  11  24
ATOM     24  O   UNL     1       1.097   3.795  17.382  0.00  0.00    +0.000 OA
ATOM     25  H   UNL     1       0.690   4.212  16.601  0.00  0.00    +0.000 HD
ENDBRANCH  11  24
TORSDOF 5
ENDMDL
MODEL 6
REMARK VINA RESULT:      -6.5      1.729      2.250
REMARK  Name = 
REMARK  6 active torsions:
REMARK  status: ('A' for Active; 'I' for Inactive)
REMARK    1  A    between atoms: C_1  and  O_2
REMARK    2  A    between atoms: O_2  and  C_3
REMARK    3  A    between atoms: C_6  and  C_7
REMARK    4  A    between atoms: C_11  and  O_12
REMARK    5  A    between atoms: C_14  and  O_15
REMARK    6  A    between atoms: C_19  and  O_20
REMARK                            x       y       z     vdW  Elec       q    Type
REMARK                         _______ _______ _______ _____ _____    ______ ____
ROOT
ATOM      1  C   UNL     1       3.297   4.877  17.266  0.00  0.00    +0.000 C 
ATOM      2  O   UNL     1       3.114   5.210  18.671  0.00  0.00    +0.000 OA
ATOM      3  C   UNL     1       3.041   4.138  19.532  0.00  0.00    +0.000 A 
ATOM      4  C   UNL     1       2.284   4.176  20.704  0.00  0.00    +0.000 A 
ATOM      5  C   UNL     1       2.420   3.129  21.621  0.00  0.00    +0.000 A 
ATOM      6  C   UNL     1       3.413   2.174  21.461  0.00  0.00    +0.000 A 
ATOM      7  C   UNL     1       4.046   2.093  20.227  0.00  0.00    +0.000 A 
ATOM      8  C   UNL     1       3.675   2.956  19.208  0.00  0.00    +0.000 A 
ATOM      9  C   UNL     1       3.402   2.510  17.828  0.00  0.00    +0.000 C 
ATOM     10  O   UNL     1       3.675   1.390  17.416  0.00  0.00    +0.000 OA
ATOM     11  C   UNL     1       2.599   3.533  16.981  0.00  0.00    +0.000 C 
ENDROOT
BRANCH   1  15
ATOM     12  C   UNL     1       7.078   5.420  15.099  0.00  0.00    +0.000 A 
ATOM     13  C   UNL     1       6.212   4.381  14.716  0.00  0.00    +0.000 A 
ATOM     14  C   UNL     1       5.013   4.121  15.420  0.00  0.00    +0.000 A 
ATOM     15  C   UNL     1       4.657   4.900  16.531  0.00  0.00    +0.000 A 
ATOM     16  C   UNL     1       5.567   5.894  16.932  0.00  0.00    +0.000 A 
ATOM     17  C   UNL     1       6.755   6.164  16.224  0.00  0.00    +0.000 A 
BRANCH  12  19
ATOM     18  C   UNL     1       8.050   5.429  12.918  0.00  0.00    +0.000 C 
ATOM     19  O   UNL     1       8.199   5.594  14.331  0.00  0.00    +0.000 OA
ENDBRANCH  12  19
ENDBRANCH   1  15
BRANCH   5  20
ATOM     20  O   UNL     1       1.616   3.034  22.717  0.00  0.00    +0.000 OA
ATOM     21  H   UNL     1       1.116   2.199  22.642  0.00  0.00    +0.000 HD
ENDBRANCH   5  20
BRANCH   7  22
ATOM     22  O   UNL     1       5.137   1.288  20.082  0.00  0.00    +0.000 OA
ATOM     23  H   UNL     1       5.019   0.549  20.710  0.00  0.00    +0.000 HD
ENDBRANCH   7  22
BRANCH  11  24
ATOM     24  O   UNL     1       1.204   3.639  17.302  0.00  0.00    +0.000 OA
ATOM     25  H   UNL     1       0.738   4.017  16.533  0.00  0.00    +0.000 HD
ENDBRANCH  11  24
TORSDOF 5
ENDMDL
MODEL 7
REMARK VINA RESULT:      -6.3      1.649      2.187
REMARK  Name = 
REMARK  6 active torsions:
REMARK  status: ('A' for Active; 'I' for Inactive)
REMARK    1  A    between atoms: C_1  and  O_2
REMARK    2  A    between atoms: O_2  and  C_3
REMARK    3  A    between atoms: C_6  and  C_7
REMARK    4  A    between atoms: C_11  and  O_12
REMARK    5  A    between atoms: C_14  and  O_15
REMARK    6  A    between atoms: C_19  and  O_20
REMARK                            x       y       z     vdW  Elec       q    Type
REMARK                         _______ _______ _______ _____ _____    ______ ____
ROOT
ATOM      1  C   UNL     1       3.037   5.202  17.485  0.00  0.00    +0.000 C 
ATOM      2  O   UNL     1       2.820   5.390  18.911  0.00  0.00    +0.000 OA
ATOM      3  C   UNL     1       2.838   4.242  19.672  0.00  0.00    +0.000 A 
ATOM      4  C   UNL     1       2.077   4.108  20.834  0.00  0.00    +0.000 A 
ATOM      5  C   UNL     1       2.300   2.999  21.655  0.00  0.00    +0.000 A 
ATOM      6  C   UNL     1       3.375   2.152  21.422  0.00  0.00    +0.000 A 
ATOM      7  C   UNL     1       4.017   2.239  20.193  0.00  0.00    +0.000 A 
ATOM      8  C   UNL     1       3.576   3.154  19.251  0.00  0.00    +0.000 A 
ATOM      9  C   UNL     1       3.349   2.812  17.833  0.00  0.00    +0.000 C 
ATOM     10  O   UNL     1       3.721   1.762  17.326  0.00  0.00    +0.000 OA
ATOM     11  C   UNL     1       2.461   3.833  17.072  0.00  0.00    +0.000 C 
ENDROOT
BRANCH   1  15
ATOM     12  C   UNL     1       6.881   5.308  15.363  0.00  0.00    +0.000 A 
ATOM     13  C   UNL     1       6.788   5.886  16.641  0.00  0.00    +0.000 A 
ATOM     14  C   UNL     1       5.560   5.937  17.341  0.00  0.00    +0.000 A 
ATOM     15  C   UNL     1       4.393   5.410  16.770  0.00  0.00    +0.000 A 
ATOM     16  C   UNL     1       4.497   4.891  15.467  0.00  0.00    +0.000 A 
ATOM     17  C   UNL     1       5.722   4.826  14.774  0.00  0.00    +0.000 A 
BRANCH  12  19
ATOM     18  C   UNL     1       8.183   5.409  13.364  0.00  0.00    +0.000 C 
ATOM     19  O   UNL     1       8.124   5.295  14.789  0.00  0.00    +0.000 OA
ENDBRANCH  12  19
ENDBRANCH   1  15
BRANCH   5  20
ATOM     20  O   UNL     1       1.504   2.735  22.729  0.00  0.00    +0.000 OA
ATOM     21  H   UNL     1       0.582   2.712  22.411  0.00  0.00    +0.000 HD
ENDBRANCH   5  20
BRANCH   7  22
ATOM     22  O   UNL     1       5.176   1.548  19.989  0.00  0.00    +0.000 OA
ATOM     23  H   UNL     1       5.879   2.053  20.442  0.00  0.00    +0.000 HD
ENDBRANCH   7  22
BRANCH  11  24
ATOM     24  O   UNL     1       1.061   3.788  17.385  0.00  0.00    +0.000 OA
ATOM     25  H   UNL     1       0.692   4.685  17.283  0.00  0.00    +0.000 HD
ENDBRANCH  11  24
TORSDOF 5
ENDMDL
MODEL 8
REMARK VINA RESULT:      -6.1      1.125      1.248
REMARK  Name = 
REMARK  6 active torsions:
REMARK  status: ('A' for Active; 'I' for Inactive)
REMARK    1  A    between atoms: C_1  and  O_2
REMARK    2  A    between atoms: O_2  and  C_3
REMARK    3  A    between atoms: C_6  and  C_7
REMARK    4  A    between atoms: C_11  and  O_12
REMARK    5  A    between atoms: C_14  and  O_15
REMARK    6  A    between atoms: C_19  and  O_20
REMARK                            x       y       z     vdW  Elec       q    Type
REMARK                         _______ _______ _______ _____ _____    ______ ____
ROOT
ATOM      1  C   UNL     1       5.187   4.851  18.760  0.00  0.00    +0.000 C 
ATOM      2  O   UNL     1       4.971   3.852  19.795  0.00  0.00    +0.000 OA
ATOM      3  C   UNL     1       3.667   3.437  19.959  0.00  0.00    +0.000 A 
ATOM      4  C   UNL     1       3.168   3.030  21.197  0.00  0.00    +0.000 A 
ATOM      5  C   UNL     1       1.903   2.437  21.244  0.00  0.00    +0.000 A 
ATOM      6  C   UNL     1       1.239   2.093  20.074  0.00  0.00    +0.000 A 
ATOM      7  C   UNL     1       1.702   2.634  18.881  0.00  0.00    +0.000 A 
ATOM      8  C   UNL     1       2.795   3.485  18.891  0.00  0.00    +0.000 A 
ATOM      9  C   UNL     1       2.825   4.775  18.174  0.00  0.00    +0.000 C 
ATOM     10  O   UNL     1       1.981   5.107  17.351  0.00  0.00    +0.000 OA
ATOM     11  C   UNL     1       3.935   5.743  18.663  0.00  0.00    +0.000 C 
ENDROOT
BRANCH   1  15
ATOM     12  C   UNL     1       6.532   4.433  14.599  0.00  0.00    +0.000 A 
ATOM     13  C   UNL     1       5.560   3.548  15.097  0.00  0.00    +0.000 A 
ATOM     14  C   UNL     1       5.138   3.596  16.446  0.00  0.00    +0.000 A 
ATOM     15  C   UNL     1       5.688   4.536  17.330  0.00  0.00    +0.000 A 
ATOM     16  C   UNL     1       6.701   5.370  16.827  0.00  0.00    +0.000 A 
ATOM     17  C   UNL     1       7.113   5.333  15.480  0.00  0.00    +0.000 A 
BRANCH  12  19
ATOM     18  C   UNL     1       7.841   5.199  12.755  0.00  0.00    +0.000 C 
ATOM     19  O   UNL     1       6.848   4.309  13.272  0.00  0.00    +0.000 OA
ENDBRANCH  12  19
ENDBRANCH   1  15
BRANCH   5  20
ATOM     20  O   UNL     1       1.299   2.139  22.429  0.00  0.00    +0.000 OA
ATOM     21  H   UNL     1       1.704   1.319  22.767  0.00  0.00    +0.000 HD
ENDBRANCH   5  20
BRANCH   7  22
ATOM     22  O   UNL     1       1.188   2.190  17.698  0.00  0.00    +0.000 OA
ATOM     23  H   UNL     1       0.707   1.365  17.900  0.00  0.00    +0.000 HD
ENDBRANCH   7  22
BRANCH  11  24
ATOM     24  O   UNL     1       3.693   6.370  19.932  0.00  0.00    +0.000 OA
ATOM     25  H   UNL     1       2.903   5.963  20.332  0.00  0.00    +0.000 HD
ENDBRANCH  11  24
TORSDOF 5
ENDMDL
MODEL 9
REMARK VINA RESULT:      -6.0      2.665      5.291
REMARK  Name = 
REMARK  6 active torsions:
REMARK  status: ('A' for Active; 'I' for Inactive)
REMARK    1  A    between atoms: C_1  and  O_2
REMARK    2  A    between atoms: O_2  and  C_3
REMARK    3  A    between atoms: C_6  and  C_7
REMARK    4  A    between atoms: C_11  and  O_12
REMARK    5  A    between atoms: C_14  and  O_15
REMARK    6  A    between atoms: C_19  and  O_20
REMARK                            x       y       z     vdW  Elec       q    Type
REMARK                         _______ _______ _______ _____ _____    ______ ____
ROOT
ATOM      1  C   UNL     1       3.592   6.549  18.497  0.00  0.00    +0.000 C 
ATOM      2  O   UNL     1       3.554   5.452  17.542  0.00  0.00    +0.000 OA
ATOM      3  C   UNL     1       3.244   4.217  18.066  0.00  0.00    +0.000 A 
ATOM      4  C   UNL     1       3.746   3.033  17.525  0.00  0.00    +0.000 A 
ATOM      5  C   UNL     1       3.229   1.817  17.983  0.00  0.00    +0.000 A 
ATOM      6  C   UNL     1       2.120   1.790  18.817  0.00  0.00    +0.000 A 
ATOM      7  C   UNL     1       1.741   2.975  19.435  0.00  0.00    +0.000 A 
ATOM      8  C   UNL     1       2.468   4.132  19.204  0.00  0.00    +0.000 A 
ATOM      9  C   UNL     1       2.917   5.035  20.282  0.00  0.00    +0.000 C 
ATOM     10  O   UNL     1       2.517   4.956  21.436  0.00  0.00    +0.000 OA
ATOM     11  C   UNL     1       4.056   6.002  19.862  0.00  0.00    +0.000 C 
ENDROOT
BRANCH   1  15
ATOM     12  C   UNL     1       0.602   9.734  18.954  0.00  0.00    +0.000 A 
ATOM     13  C   UNL     1       0.930   8.937  20.065  0.00  0.00    +0.000 A 
ATOM     14  C   UNL     1       1.837   7.858  19.959  0.00  0.00    +0.000 A 
ATOM     15  C   UNL     1       2.436   7.550  18.728  0.00  0.00    +0.000 A 
ATOM     16  C   UNL     1       2.048   8.321  17.619  0.00  0.00    +0.000 A 
ATOM     17  C   UNL     1       1.155   9.406  17.726  0.00  0.00    +0.000 A 
BRANCH  12  19
ATOM     18  C   UNL     1      -1.352  10.913  18.254  0.00  0.00    +0.000 C 
ATOM     19  O   UNL     1      -0.271  10.765  19.179  0.00  0.00    +0.000 OA
ENDBRANCH  12  19
ENDBRANCH   1  15
BRANCH   5  20
ATOM     20  O   UNL     1       3.765   0.625  17.598  0.00  0.00    +0.000 OA
ATOM     21  H   UNL     1       3.143   0.212  16.971  0.00  0.00    +0.000 HD
ENDBRANCH   5  20
BRANCH   7  22
ATOM     22  O   UNL     1       0.564   3.029  20.122  0.00  0.00    +0.000 OA
ATOM     23  H   UNL     1       0.802   3.124  21.065  0.00  0.00    +0.000 HD
ENDBRANCH   7  22
BRANCH  11  24
ATOM     24  O   UNL     1       5.354   5.403  19.722  0.00  0.00    +0.000 OA
ATOM     25  H   UNL     1       5.430   5.038  18.821  0.00  0.00    +0.000 HD
ENDBRANCH  11  24
TORSDOF 5
ENDMDL
