MODEL 1
REMARK VINA RESULT:      -8.3      0.000      0.000
REMARK  Name = 
REMARK  6 active torsions:
REMARK  status: ('A' for Active; 'I' for Inactive)
REMARK    1  A    between atoms: C_1  and  C_2
REMARK    2  A    between atoms: C_2  and  C_3
REMARK    3  A    between atoms: C_2  and  C_4
REMARK    4  A    between atoms: C_7  and  C_8
REMARK    5  A    between atoms: N_9  and  C_10
REMARK    6  A    between atoms: C_13  and  N_14
REMARK                            x       y       z     vdW  Elec       q    Type
REMARK                         _______ _______ _______ _____ _____    ______ ____
ROOT
ATOM      1  C   UNL     1       2.562   4.928  19.123  0.00  0.00    +0.000 C 
ATOM      2  N   UNL     1       3.916   4.457  18.940  0.00  0.00    +0.000 N 
ATOM      3  C   UNL     1       4.259   3.507  19.897  0.00  0.00    +0.000 C 
ATOM      4  O   UNL     1       5.224   2.756  19.906  0.00  0.00    +0.000 OA
ATOM      5  C   UNL     1       3.167   3.521  20.940  0.00  0.00    +0.000 C 
ATOM      6  C   UNL     1       2.444   2.197  21.119  0.00  0.00    +0.000 C 
ATOM      7  C   UNL     1       1.018   2.631  21.397  0.00  0.00    +0.000 C 
ATOM      8  C   UNL     1       0.847   3.822  20.471  0.00  0.00    +0.000 C 
ATOM      9  N   UNL     1       2.155   4.493  20.468  0.00  0.00    +0.000 NA
ENDROOT
BRANCH   1  13
ATOM     10  C   UNL     1       1.826   9.179  18.585  0.00  0.00    +0.000 A 
ATOM     11  C   UNL     1       1.784   8.593  19.856  0.00  0.00    +0.000 A 
ATOM     12  C   UNL     1       2.094   7.243  20.032  0.00  0.00    +0.000 A 
ATOM     13  C   UNL     1       2.436   6.433  18.939  0.00  0.00    +0.000 A 
ATOM     14  C   UNL     1       2.554   7.038  17.678  0.00  0.00    +0.000 A 
ATOM     15  C   UNL     1       2.254   8.395  17.504  0.00  0.00    +0.000 A 
BRANCH  10  17
ATOM     16  C   UNL     1       0.676  11.166  19.653  0.00  0.00    +0.000 C 
ATOM     17  C   UNL     1       1.357  10.611  18.402  0.00  0.00    +0.000 C 
ATOM     18  C   UNL     1       2.515  11.513  17.962  0.00  0.00    +0.000 C 
ENDBRANCH  10  17
ENDBRANCH   1  13
BRANCH   2  19
ATOM     19  C   UNL     1       4.662   4.633  17.748  0.00  0.00    +0.000 A 
ATOM     20  C   UNL     1       4.303   3.977  16.563  0.00  0.00    +0.000 A 
ATOM     21  C   UNL     1       5.087   4.102  15.410  0.00  0.00    +0.000 A 
ATOM     22  C   UNL     1       6.220   4.918  15.429  0.00  0.00    +0.000 A 
ATOM     23  C   UNL     1       6.562   5.628  16.586  0.00  0.00    +0.000 A 
ATOM     24  C   UNL     1       5.789   5.469  17.742  0.00  0.00    +0.000 A 
BRANCH  22  25
ATOM     25  N   UNL     1       7.069   5.008  14.232  0.00  0.00    +0.000 N 
ATOM     26  O   UNL     1       6.700   4.396  13.219  0.00  0.00    +0.000 OA
ATOM     27  O   UNL     1       8.101   5.689  14.305  0.00  0.00    +0.000 OA
ENDBRANCH  22  25
ENDBRANCH   2  19
TORSDOF 4
ENDMDL
MODEL 2
REMARK VINA RESULT:      -7.9      0.249      1.133
REMARK  Name = 
REMARK  6 active torsions:
REMARK  status: ('A' for Active; 'I' for Inactive)
REMARK    1  A    between atoms: C_1  and  C_2
REMARK    2  A    between atoms: C_2  and  C_3
REMARK    3  A    between atoms: C_2  and  C_4
REMARK    4  A    between atoms: C_7  and  C_8
REMARK    5  A    between atoms: N_9  and  C_10
REMARK    6  A    between atoms: C_13  and  N_14
REMARK                            x       y       z     vdW  Elec       q    Type
REMARK                         _______ _______ _______ _____ _____    ______ ____
ROOT
ATOM      1  C   UNL     1       2.605   4.750  19.218  0.00  0.00    +0.000 C 
ATOM      2  N   UNL     1       3.963   4.267  19.108  0.00  0.00    +0.000 N 
ATOM      3  C   UNL     1       4.263   3.355  20.114  0.00  0.00    +0.000 C 
ATOM      4  O   UNL     1       5.223   2.601  20.192  0.00  0.00    +0.000 OA
ATOM      5  C   UNL     1       3.130   3.413  21.112  0.00  0.00    +0.000 C 
ATOM      6  C   UNL     1       2.394   2.100  21.313  0.00  0.00    +0.000 C 
ATOM      7  C   UNL     1       0.960   2.550  21.517  0.00  0.00    +0.000 C 
ATOM      8  C   UNL     1       0.832   3.704  20.538  0.00  0.00    +0.000 C 
ATOM      9  N   UNL     1       2.143   4.370  20.562  0.00  0.00    +0.000 NA
ENDROOT
BRANCH   1  13
ATOM     10  C   UNL     1       1.913   8.979  18.486  0.00  0.00    +0.000 A 
ATOM     11  C   UNL     1       1.820   8.444  19.776  0.00  0.00    +0.000 A 
ATOM     12  C   UNL     1       2.117   7.101  20.017  0.00  0.00    +0.000 A 
ATOM     13  C   UNL     1       2.494   6.247  18.970  0.00  0.00    +0.000 A 
ATOM     14  C   UNL     1       2.662   6.801  17.691  0.00  0.00    +0.000 A 
ATOM     15  C   UNL     1       2.375   8.150  17.453  0.00  0.00    +0.000 A 
BRANCH  10  17
ATOM     16  C   UNL     1       0.705  11.000  19.418  0.00  0.00    +0.000 C 
ATOM     17  C   UNL     1       1.458  10.404  18.229  0.00  0.00    +0.000 C 
ATOM     18  C   UNL     1       2.643  11.291  17.830  0.00  0.00    +0.000 C 
ENDBRANCH  10  17
ENDBRANCH   1  13
BRANCH   2  19
ATOM     19  C   UNL     1       4.757   4.394  17.941  0.00  0.00    +0.000 A 
ATOM     20  C   UNL     1       5.941   5.144  17.947  0.00  0.00    +0.000 A 
ATOM     21  C   UNL     1       6.680   5.322  16.772  0.00  0.00    +0.000 A 
ATOM     22  C   UNL     1       6.254   4.717  15.588  0.00  0.00    +0.000 A 
ATOM     23  C   UNL     1       5.106   3.916  15.575  0.00  0.00    +0.000 A 
ATOM     24  C   UNL     1       4.356   3.772  16.748  0.00  0.00    +0.000 A 
BRANCH  22  25
ATOM     25  N   UNL     1       7.005   4.947  14.344  0.00  0.00    +0.000 N 
ATOM     26  O   UNL     1       8.019   5.657  14.409  0.00  0.00    +0.000 OA
ATOM     27  O   UNL     1       6.581   4.419  13.307  0.00  0.00    +0.000 OA
ENDBRANCH  22  25
ENDBRANCH   2  19
TORSDOF 4
ENDMDL
MODEL 3
REMARK VINA RESULT:      -7.4      3.482      7.287
REMARK  Name = 
REMARK  6 active torsions:
REMARK  status: ('A' for Active; 'I' for Inactive)
REMARK    1  A    between atoms: C_1  and  C_2
REMARK    2  A    between atoms: C_2  and  C_3
REMARK    3  A    between atoms: C_2  and  C_4
REMARK    4  A    between atoms: C_7  and  C_8
REMARK    5  A    between atoms: N_9  and  C_10
REMARK    6  A    between atoms: C_13  and  N_14
REMARK                            x       y       z     vdW  Elec       q    Type
REMARK                         _______ _______ _______ _____ _____    ______ ____
ROOT
ATOM      1  C   UNL     1       6.204   5.929  16.866  0.00  0.00    +0.000 C 
ATOM      2  N   UNL     1       5.931   5.194  18.081  0.00  0.00    +0.000 N 
ATOM      3  C   UNL     1       6.843   5.507  19.083  0.00  0.00    +0.000 C 
ATOM      4  O   UNL     1       6.779   5.245  20.275  0.00  0.00    +0.000 OA
ATOM      5  C   UNL     1       7.949   6.308  18.435  0.00  0.00    +0.000 C 
ATOM      6  C   UNL     1       8.139   7.703  19.002  0.00  0.00    +0.000 C 
ATOM      7  C   UNL     1       8.510   8.514  17.776  0.00  0.00    +0.000 C 
ATOM      8  C   UNL     1       7.623   7.913  16.701  0.00  0.00    +0.000 C 
ATOM      9  N   UNL     1       7.560   6.479  17.016  0.00  0.00    +0.000 NA
ENDROOT
BRANCH   1  13
ATOM     10  C   UNL     1       5.763   3.798  13.103  0.00  0.00    +0.000 A 
ATOM     11  C   UNL     1       7.009   4.284  13.517  0.00  0.00    +0.000 A 
ATOM     12  C   UNL     1       7.159   4.902  14.760  0.00  0.00    +0.000 A 
ATOM     13  C   UNL     1       6.062   5.070  15.618  0.00  0.00    +0.000 A 
ATOM     14  C   UNL     1       4.831   4.513  15.237  0.00  0.00    +0.000 A 
ATOM     15  C   UNL     1       4.685   3.885  13.995  0.00  0.00    +0.000 A 
BRANCH  10  17
ATOM     16  C   UNL     1       6.222   1.866  11.532  0.00  0.00    +0.000 C 
ATOM     17  C   UNL     1       5.600   3.252  11.696  0.00  0.00    +0.000 C 
ATOM     18  C   UNL     1       4.124   3.242  11.283  0.00  0.00    +0.000 C 
ENDBRANCH  10  17
ENDBRANCH   1  13
BRANCH   2  19
ATOM     19  C   UNL     1       4.701   4.544  18.354  0.00  0.00    +0.000 A 
ATOM     20  C   UNL     1       3.514   5.272  18.508  0.00  0.00    +0.000 A 
ATOM     21  C   UNL     1       2.318   4.628  18.847  0.00  0.00    +0.000 A 
ATOM     22  C   UNL     1       2.300   3.239  19.000  0.00  0.00    +0.000 A 
ATOM     23  C   UNL     1       3.464   2.489  18.793  0.00  0.00    +0.000 A 
ATOM     24  C   UNL     1       4.660   3.148  18.487  0.00  0.00    +0.000 A 
BRANCH  22  25
ATOM     25  N   UNL     1       1.055   2.570  19.406  0.00  0.00    +0.000 N 
ATOM     26  O   UNL     1       0.796   2.526  20.618  0.00  0.00    +0.000 OA
ATOM     27  O   UNL     1       0.339   2.092  18.516  0.00  0.00    +0.000 OA
ENDBRANCH  22  25
ENDBRANCH   2  19
TORSDOF 4
ENDMDL
MODEL 4
REMARK VINA RESULT:      -7.3      3.596      7.113
REMARK  Name = 
REMARK  6 active torsions:
REMARK  status: ('A' for Active; 'I' for Inactive)
REMARK    1  A    between atoms: C_1  and  C_2
REMARK    2  A    between atoms: C_2  and  C_3
REMARK    3  A    between atoms: C_2  and  C_4
REMARK    4  A    between atoms: C_7  and  C_8
REMARK    5  A    between atoms: N_9  and  C_10
REMARK    6  A    between atoms: C_13  and  N_14
REMARK                            x       y       z     vdW  Elec       q    Type
REMARK                         _______ _______ _______ _____ _____    ______ ____
ROOT
ATOM      1  C   UNL     1       6.296   6.226  17.441  0.00  0.00    +0.000 C 
ATOM      2  N   UNL     1       6.282   5.432  18.649  0.00  0.00    +0.000 N 
ATOM      3  C   UNL     1       7.352   5.747  19.479  0.00  0.00    +0.000 C 
ATOM      4  O   UNL     1       7.520   5.435  20.649  0.00  0.00    +0.000 OA
ATOM      5  C   UNL     1       8.287   6.622  18.677  0.00  0.00    +0.000 C 
ATOM      6  C   UNL     1       8.526   8.001  19.265  0.00  0.00    +0.000 C 
ATOM      7  C   UNL     1       8.631   8.876  18.032  0.00  0.00    +0.000 C 
ATOM      8  C   UNL     1       7.584   8.278  17.110  0.00  0.00    +0.000 C 
ATOM      9  N   UNL     1       7.635   6.831  17.364  0.00  0.00    +0.000 NA
ENDROOT
BRANCH   1  13
ATOM     10  C   UNL     1       5.676   3.984  13.768  0.00  0.00    +0.000 A 
ATOM     11  C   UNL     1       6.319   3.405  14.868  0.00  0.00    +0.000 A 
ATOM     12  C   UNL     1       6.449   4.103  16.071  0.00  0.00    +0.000 A 
ATOM     13  C   UNL     1       5.958   5.411  16.201  0.00  0.00    +0.000 A 
ATOM     14  C   UNL     1       5.246   5.962  15.123  0.00  0.00    +0.000 A 
ATOM     15  C   UNL     1       5.107   5.256  13.922  0.00  0.00    +0.000 A 
BRANCH  10  17
ATOM     16  C   UNL     1       4.395   3.528  11.631  0.00  0.00    +0.000 C 
ATOM     17  C   UNL     1       5.666   3.257  12.435  0.00  0.00    +0.000 C 
ATOM     18  C   UNL     1       6.916   3.600  11.617  0.00  0.00    +0.000 C 
ENDBRANCH  10  17
ENDBRANCH   1  13
BRANCH   2  19
ATOM     19  C   UNL     1       5.150   4.715  19.112  0.00  0.00    +0.000 A 
ATOM     20  C   UNL     1       5.148   3.314  19.160  0.00  0.00    +0.000 A 
ATOM     21  C   UNL     1       4.002   2.613  19.552  0.00  0.00    +0.000 A 
ATOM     22  C   UNL     1       2.858   3.318  19.934  0.00  0.00    +0.000 A 
ATOM     23  C   UNL     1       2.859   4.717  19.949  0.00  0.00    +0.000 A 
ATOM     24  C   UNL     1       4.001   5.407  19.523  0.00  0.00    +0.000 A 
BRANCH  22  25
ATOM     25  N   UNL     1       1.639   2.579  20.297  0.00  0.00    +0.000 N 
ATOM     26  O   UNL     1       0.981   2.070  19.377  0.00  0.00    +0.000 OA
ATOM     27  O   UNL     1       1.342   2.508  21.497  0.00  0.00    +0.000 OA
ENDBRANCH  22  25
ENDBRANCH   2  19
TORSDOF 4
ENDMDL
MODEL 5
REMARK VINA RESULT:      -7.3      3.603      7.199
REMARK  Name = 
REMARK  6 active torsions:
REMARK  status: ('A' for Active; 'I' for Inactive)
REMARK    1  A    between atoms: C_1  and  C_2
REMARK    2  A    between atoms: C_2  and  C_3
REMARK    3  A    between atoms: C_2  and  C_4
REMARK    4  A    between atoms: C_7  and  C_8
REMARK    5  A    between atoms: N_9  and  C_10
REMARK    6  A    between atoms: C_13  and  N_14
REMARK                            x       y       z     vdW  Elec       q    Type
REMARK                         _______ _______ _______ _____ _____    ______ ____
ROOT
ATOM      1  C   UNL     1       6.301   6.263  17.426  0.00  0.00    +0.000 C 
ATOM      2  N   UNL     1       6.312   5.477  18.639  0.00  0.00    +0.000 N 
ATOM      3  C   UNL     1       7.389   5.811  19.454  0.00  0.00    +0.000 C 
ATOM      4  O   UNL     1       7.575   5.509  20.624  0.00  0.00    +0.000 OA
ATOM      5  C   UNL     1       8.302   6.692  18.635  0.00  0.00    +0.000 C 
ATOM      6  C   UNL     1       8.531   8.078  19.212  0.00  0.00    +0.000 C 
ATOM      7  C   UNL     1       8.610   8.946  17.971  0.00  0.00    +0.000 C 
ATOM      8  C   UNL     1       7.559   8.329  17.067  0.00  0.00    +0.000 C 
ATOM      9  N   UNL     1       7.631   6.884  17.329  0.00  0.00    +0.000 NA
ENDROOT
BRANCH   1  13
ATOM     10  C   UNL     1       5.665   3.990  13.775  0.00  0.00    +0.000 A 
ATOM     11  C   UNL     1       6.328   3.426  14.871  0.00  0.00    +0.000 A 
ATOM     12  C   UNL     1       6.464   4.134  16.067  0.00  0.00    +0.000 A 
ATOM     13  C   UNL     1       5.958   5.436  16.195  0.00  0.00    +0.000 A 
ATOM     14  C   UNL     1       5.226   5.971  15.124  0.00  0.00    +0.000 A 
ATOM     15  C   UNL     1       5.081   5.256  13.929  0.00  0.00    +0.000 A 
BRANCH  10  17
ATOM     16  C   UNL     1       4.385   3.543  11.636  0.00  0.00    +0.000 C 
ATOM     17  C   UNL     1       5.647   3.254  12.448  0.00  0.00    +0.000 C 
ATOM     18  C   UNL     1       6.907   3.569  11.633  0.00  0.00    +0.000 C 
ENDBRANCH  10  17
ENDBRANCH   1  13
BRANCH   2  19
ATOM     19  C   UNL     1       5.196   4.749  19.121  0.00  0.00    +0.000 A 
ATOM     20  C   UNL     1       4.025   5.403  19.530  0.00  0.00    +0.000 A 
ATOM     21  C   UNL     1       2.955   4.681  20.071  0.00  0.00    +0.000 A 
ATOM     22  C   UNL     1       3.039   3.291  20.172  0.00  0.00    +0.000 A 
ATOM     23  C   UNL     1       4.176   2.615  19.714  0.00  0.00    +0.000 A 
ATOM     24  C   UNL     1       5.253   3.350  19.206  0.00  0.00    +0.000 A 
BRANCH  22  25
ATOM     25  N   UNL     1       1.933   2.540  20.787  0.00  0.00    +0.000 N 
ATOM     26  O   UNL     1       1.863   2.533  22.024  0.00  0.00    +0.000 OA
ATOM     27  O   UNL     1       1.139   1.960  20.034  0.00  0.00    +0.000 OA
ENDBRANCH  22  25
ENDBRANCH   2  19
TORSDOF 4
ENDMDL
MODEL 6
REMARK VINA RESULT:      -7.3      3.520      7.155
REMARK  Name = 
REMARK  6 active torsions:
REMARK  status: ('A' for Active; 'I' for Inactive)
REMARK    1  A    between atoms: C_1  and  C_2
REMARK    2  A    between atoms: C_2  and  C_3
REMARK    3  A    between atoms: C_2  and  C_4
REMARK    4  A    between atoms: C_7  and  C_8
REMARK    5  A    between atoms: N_9  and  C_10
REMARK    6  A    between atoms: C_13  and  N_14
REMARK                            x       y       z     vdW  Elec       q    Type
REMARK                         _______ _______ _______ _____ _____    ______ ____
ROOT
ATOM      1  C   UNL     1       6.362   6.296  17.045  0.00  0.00    +0.000 C 
ATOM      2  N   UNL     1       6.157   5.425  18.180  0.00  0.00    +0.000 N 
ATOM      3  C   UNL     1       7.104   5.651  19.174  0.00  0.00    +0.000 C 
ATOM      4  O   UNL     1       7.095   5.257  20.332  0.00  0.00    +0.000 OA
ATOM      5  C   UNL     1       8.162   6.548  18.576  0.00  0.00    +0.000 C 
ATOM      6  C   UNL     1       8.344   7.877  19.287  0.00  0.00    +0.000 C 
ATOM      7  C   UNL     1       8.644   8.828  18.145  0.00  0.00    +0.000 C 
ATOM      8  C   UNL     1       7.727   8.325  17.045  0.00  0.00    +0.000 C 
ATOM      9  N   UNL     1       7.710   6.863  17.202  0.00  0.00    +0.000 NA
ENDROOT
BRANCH   1  13
ATOM     10  C   UNL     1       5.863   3.915  13.443  0.00  0.00    +0.000 A 
ATOM     11  C   UNL     1       4.759   4.296  14.216  0.00  0.00    +0.000 A 
ATOM     12  C   UNL     1       4.918   5.123  15.330  0.00  0.00    +0.000 A 
ATOM     13  C   UNL     1       6.188   5.577  15.716  0.00  0.00    +0.000 A 
ATOM     14  C   UNL     1       7.282   5.258  14.897  0.00  0.00    +0.000 A 
ATOM     15  C   UNL     1       7.120   4.438  13.774  0.00  0.00    +0.000 A 
BRANCH  10  17
ATOM     16  C   UNL     1       4.460   3.218  11.453  0.00  0.00    +0.000 C 
ATOM     17  C   UNL     1       5.681   2.910  12.319  0.00  0.00    +0.000 C 
ATOM     18  C   UNL     1       6.950   2.813  11.465  0.00  0.00    +0.000 C 
ENDBRANCH  10  17
ENDBRANCH   1  13
BRANCH   2  19
ATOM     19  C   UNL     1       4.956   4.715  18.428  0.00  0.00    +0.000 A 
ATOM     20  C   UNL     1       3.742   5.389  18.626  0.00  0.00    +0.000 A 
ATOM     21  C   UNL     1       2.575   4.683  18.940  0.00  0.00    +0.000 A 
ATOM     22  C   UNL     1       2.611   3.289  19.021  0.00  0.00    +0.000 A 
ATOM     23  C   UNL     1       3.800   2.595  18.768  0.00  0.00    +0.000 A 
ATOM     24  C   UNL     1       4.968   3.314  18.488  0.00  0.00    +0.000 A 
BRANCH  22  25
ATOM     25  N   UNL     1       1.395   2.553  19.400  0.00  0.00    +0.000 N 
ATOM     26  O   UNL     1       0.617   2.224  18.493  0.00  0.00    +0.000 OA
ATOM     27  O   UNL     1       1.221   2.304  20.601  0.00  0.00    +0.000 OA
ENDBRANCH  22  25
ENDBRANCH   2  19
TORSDOF 4
ENDMDL
MODEL 7
REMARK VINA RESULT:      -6.9      3.609      5.999
REMARK  Name = 
REMARK  6 active torsions:
REMARK  status: ('A' for Active; 'I' for Inactive)
REMARK    1  A    between atoms: C_1  and  C_2
REMARK    2  A    between atoms: C_2  and  C_3
REMARK    3  A    between atoms: C_2  and  C_4
REMARK    4  A    between atoms: C_7  and  C_8
REMARK    5  A    between atoms: N_9  and  C_10
REMARK    6  A    between atoms: C_13  and  N_14
REMARK                            x       y       z     vdW  Elec       q    Type
REMARK                         _______ _______ _______ _____ _____    ______ ____
ROOT
ATOM      1  C   UNL     1       4.202   4.757  18.644  0.00  0.00    +0.000 C 
ATOM      2  N   UNL     1       2.936   5.348  18.273  0.00  0.00    +0.000 N 
ATOM      3  C   UNL     1       2.092   4.415  17.679  0.00  0.00    +0.000 C 
ATOM      4  O   UNL     1       0.895   4.514  17.450  0.00  0.00    +0.000 OA
ATOM      5  C   UNL     1       2.925   3.186  17.400  0.00  0.00    +0.000 C 
ATOM      6  C   UNL     1       2.440   1.921  18.087  0.00  0.00    +0.000 C 
ATOM      7  C   UNL     1       3.735   1.212  18.432  0.00  0.00    +0.000 C 
ATOM      8  C   UNL     1       4.645   2.360  18.831  0.00  0.00    +0.000 C 
ATOM      9  N   UNL     1       4.275   3.468  17.939  0.00  0.00    +0.000 NA
ENDROOT
BRANCH   1  13
ATOM     10  C   UNL     1       7.461   7.562  18.005  0.00  0.00    +0.000 A 
ATOM     11  C   UNL     1       7.552   6.558  18.977  0.00  0.00    +0.000 A 
ATOM     12  C   UNL     1       6.534   5.614  19.127  0.00  0.00    +0.000 A 
ATOM     13  C   UNL     1       5.385   5.659  18.323  0.00  0.00    +0.000 A 
ATOM     14  C   UNL     1       5.330   6.617  17.298  0.00  0.00    +0.000 A 
ATOM     15  C   UNL     1       6.356   7.556  17.142  0.00  0.00    +0.000 A 
BRANCH  10  17
ATOM     16  C   UNL     1       8.004   9.928  17.282  0.00  0.00    +0.000 C 
ATOM     17  C   UNL     1       8.516   8.653  17.952  0.00  0.00    +0.000 C 
ATOM     18  C   UNL     1       9.063   8.951  19.353  0.00  0.00    +0.000 C 
ENDBRANCH  10  17
ENDBRANCH   1  13
BRANCH   2  19
ATOM     19  C   UNL     1       2.461   6.584  18.777  0.00  0.00    +0.000 A 
ATOM     20  C   UNL     1       2.152   6.744  20.135  0.00  0.00    +0.000 A 
ATOM     21  C   UNL     1       1.617   7.947  20.610  0.00  0.00    +0.000 A 
ATOM     22  C   UNL     1       1.421   9.012  19.729  0.00  0.00    +0.000 A 
ATOM     23  C   UNL     1       1.777   8.892  18.381  0.00  0.00    +0.000 A 
ATOM     24  C   UNL     1       2.281   7.673  17.911  0.00  0.00    +0.000 A 
BRANCH  22  25
ATOM     25  N   UNL     1       0.811  10.258  20.220  0.00  0.00    +0.000 N 
ATOM     26  O   UNL     1       1.012  10.567  21.404  0.00  0.00    +0.000 OA
ATOM     27  O   UNL     1       0.135  10.923  19.425  0.00  0.00    +0.000 OA
ENDBRANCH  22  25
ENDBRANCH   2  19
TORSDOF 4
ENDMDL
MODEL 8
REMARK VINA RESULT:      -6.8      5.568      8.769
REMARK  Name = 
REMARK  6 active torsions:
REMARK  status: ('A' for Active; 'I' for Inactive)
REMARK    1  A    between atoms: C_1  and  C_2
REMARK    2  A    between atoms: C_2  and  C_3
REMARK    3  A    between atoms: C_2  and  C_4
REMARK    4  A    between atoms: C_7  and  C_8
REMARK    5  A    between atoms: N_9  and  C_10
REMARK    6  A    between atoms: C_13  and  N_14
REMARK                            x       y       z     vdW  Elec       q    Type
REMARK                         _______ _______ _______ _____ _____    ______ ____
ROOT
ATOM      1  C   UNL     1      -0.133  11.426  19.640  0.00  0.00    +0.000 C 
ATOM      2  N   UNL     1      -1.538  11.392  19.302  0.00  0.00    +0.000 N 
ATOM      3  C   UNL     1      -2.299  12.115  20.213  0.00  0.00    +0.000 C 
ATOM      4  O   UNL     1      -3.464  12.473  20.112  0.00  0.00    +0.000 OA
ATOM      5  C   UNL     1      -1.394  12.448  21.376  0.00  0.00    +0.000 C 
ATOM      6  C   UNL     1      -1.217  13.933  21.639  0.00  0.00    +0.000 C 
ATOM      7  C   UNL     1       0.231  14.024  22.079  0.00  0.00    +0.000 C 
ATOM      8  C   UNL     1       0.916  13.013  21.178  0.00  0.00    +0.000 C 
ATOM      9  N   UNL     1      -0.056  11.920  21.023  0.00  0.00    +0.000 NA
ENDROOT
BRANCH   1  13
ATOM     10  C   UNL     1       2.106   7.714  19.320  0.00  0.00    +0.000 A 
ATOM     11  C   UNL     1       1.412   8.041  20.491  0.00  0.00    +0.000 A 
ATOM     12  C   UNL     1       0.634   9.198  20.562  0.00  0.00    +0.000 A 
ATOM     13  C   UNL     1       0.544  10.074  19.470  0.00  0.00    +0.000 A 
ATOM     14  C   UNL     1       1.176   9.706  18.272  0.00  0.00    +0.000 A 
ATOM     15  C   UNL     1       1.947   8.540  18.199  0.00  0.00    +0.000 A 
BRANCH  10  17
ATOM     16  C   UNL     1       2.501   5.341  20.111  0.00  0.00    +0.000 C 
ATOM     17  C   UNL     1       3.049   6.524  19.313  0.00  0.00    +0.000 C 
ATOM     18  C   UNL     1       3.389   6.106  17.878  0.00  0.00    +0.000 C 
ENDBRANCH  10  17
ENDBRANCH   1  13
BRANCH   2  19
ATOM     19  C   UNL     1      -2.038  11.012  18.031  0.00  0.00    +0.000 A 
ATOM     20  C   UNL     1      -2.442   9.694  17.775  0.00  0.00    +0.000 A 
ATOM     21  C   UNL     1      -2.867   9.312  16.498  0.00  0.00    +0.000 A 
ATOM     22  C   UNL     1      -2.924  10.262  15.475  0.00  0.00    +0.000 A 
ATOM     23  C   UNL     1      -2.581  11.595  15.726  0.00  0.00    +0.000 A 
ATOM     24  C   UNL     1      -2.125  11.958  16.999  0.00  0.00    +0.000 A 
BRANCH  22  25
ATOM     25  N   UNL     1      -3.324   9.847  14.122  0.00  0.00    +0.000 N 
ATOM     26  O   UNL     1      -4.537   9.749  13.886  0.00  0.00    +0.000 OA
ATOM     27  O   UNL     1      -2.426   9.620  13.298  0.00  0.00    +0.000 OA
ENDBRANCH  22  25
ENDBRANCH   2  19
TORSDOF 4
ENDMDL
MODEL 9
REMARK VINA RESULT:      -6.7      3.121      6.015
REMARK  Name = 
REMARK  6 active torsions:
REMARK  status: ('A' for Active; 'I' for Inactive)
REMARK    1  A    between atoms: C_1  and  C_2
REMARK    2  A    between atoms: C_2  and  C_3
REMARK    3  A    between atoms: C_2  and  C_4
REMARK    4  A    between atoms: C_7  and  C_8
REMARK    5  A    between atoms: N_9  and  C_10
REMARK    6  A    between atoms: C_13  and  N_14
REMARK                            x       y       z     vdW  Elec       q    Type
REMARK                         _______ _______ _______ _____ _____    ______ ____
ROOT
ATOM      1  C   UNL     1       3.816   4.354  19.345  0.00  0.00    +0.000 C 
ATOM      2  N   UNL     1       2.533   5.018  19.368  0.00  0.00    +0.000 N 
ATOM      3  C   UNL     1       1.567   4.241  19.999  0.00  0.00    +0.000 C 
ATOM      4  O   UNL     1       0.456   4.577  20.383  0.00  0.00    +0.000 OA
ATOM      5  C   UNL     1       2.166   2.867  20.189  0.00  0.00    +0.000 C 
ATOM      6  C   UNL     1       2.257   2.409  21.634  0.00  0.00    +0.000 C 
ATOM      7  C   UNL     1       3.557   1.629  21.655  0.00  0.00    +0.000 C 
ATOM      8  C   UNL     1       4.449   2.446  20.738  0.00  0.00    +0.000 C 
ATOM      9  N   UNL     1       3.555   2.946  19.683  0.00  0.00    +0.000 NA
ENDROOT
BRANCH   1  13
ATOM     10  C   UNL     1       5.974   4.427  15.572  0.00  0.00    +0.000 A 
ATOM     11  C   UNL     1       4.674   3.914  15.651  0.00  0.00    +0.000 A 
ATOM     12  C   UNL     1       3.958   3.961  16.849  0.00  0.00    +0.000 A 
ATOM     13  C   UNL     1       4.529   4.504  18.009  0.00  0.00    +0.000 A 
ATOM     14  C   UNL     1       5.802   5.088  17.910  0.00  0.00    +0.000 A 
ATOM     15  C   UNL     1       6.515   5.049  16.706  0.00  0.00    +0.000 A 
BRANCH  10  17
ATOM     16  C   UNL     1       5.928   3.710  13.143  0.00  0.00    +0.000 C 
ATOM     17  C   UNL     1       6.778   4.243  14.297  0.00  0.00    +0.000 C 
ATOM     18  C   UNL     1       7.482   5.546  13.903  0.00  0.00    +0.000 C 
ENDBRANCH  10  17
ENDBRANCH   1  13
BRANCH   2  19
ATOM     19  C   UNL     1       2.355   6.405  19.137  0.00  0.00    +0.000 A 
ATOM     20  C   UNL     1       1.966   7.269  20.169  0.00  0.00    +0.000 A 
ATOM     21  C   UNL     1       1.723   8.624  19.915  0.00  0.00    +0.000 A 
ATOM     22  C   UNL     1       1.905   9.129  18.626  0.00  0.00    +0.000 A 
ATOM     23  C   UNL     1       2.349   8.294  17.594  0.00  0.00    +0.000 A 
ATOM     24  C   UNL     1       2.556   6.934  17.853  0.00  0.00    +0.000 A 
BRANCH  22  25
ATOM     25  N   UNL     1       1.601  10.542  18.350  0.00  0.00    +0.000 N 
ATOM     26  O   UNL     1       2.506  11.240  17.869  0.00  0.00    +0.000 OA
ATOM     27  O   UNL     1       0.462  10.950  18.614  0.00  0.00    +0.000 OA
ENDBRANCH  22  25
ENDBRANCH   2  19
TORSDOF 4
ENDMDL
