MODEL 1
REMARK VINA RESULT:      -7.3      0.000      0.000
REMARK  Name = 
REMARK  5 active torsions:
REMARK  status: ('A' for Active; 'I' for Inactive)
REMARK    1  A    between atoms: C_2  and  C_3
REMARK    2  A    between atoms: C_9  and  C_11
REMARK    3  A    between atoms: C_16  and  O_18
REMARK    4  A    between atoms: O_18  and  C_19
REMARK    5  A    between atoms: C_19  and  C_20
REMARK                            x       y       z     vdW  Elec       q    Type
REMARK                         _______ _______ _______ _____ _____    ______ ____
ROOT
ATOM      1  C   UNL     1       4.034   3.392  18.797  0.00  0.00    +0.000 C 
ATOM      2  C   UNL     1       4.220   2.061  18.053  0.00  0.00    +0.000 C 
ATOM      3  C   UNL     1       3.262   1.106  18.750  0.00  0.00    +0.000 C 
ATOM      4  C   UNL     1       2.122   1.991  19.234  0.00  0.00    +0.000 C 
ATOM      5  N   UNL     1       2.621   3.347  19.164  0.00  0.00    +0.000 N 
ATOM      6  C   UNL     1       1.898   4.366  19.740  0.00  0.00    +0.000 C 
ATOM      7  O   UNL     1       0.736   4.248  20.096  0.00  0.00    +0.000 OA
ENDROOT
BRANCH   1  14
ATOM      8  C   UNL     1       5.615   6.697  17.375  0.00  0.00    +0.000 C 
ATOM      9  C   UNL     1       7.118   6.702  17.061  0.00  0.00    +0.000 C 
ATOM     10  C   UNL     1       7.950   6.687  18.343  0.00  0.00    +0.000 C 
ATOM     11  C   UNL     1       7.534   5.536  19.251  0.00  0.00    +0.000 C 
ATOM     12  C   UNL     1       6.029   5.547  19.519  0.00  0.00    +0.000 C 
ATOM     13  N   UNL     1       5.263   5.563  18.267  0.00  0.00    +0.000 N 
ATOM     14  C   UNL     1       4.411   4.548  17.833  0.00  0.00    +0.000 C 
ATOM     15  O   UNL     1       3.908   4.577  16.704  0.00  0.00    +0.000 OA
BRANCH   8  17
ATOM     16  O   UNL     1       5.230   6.964  14.976  0.00  0.00    +0.000 OA
ATOM     17  C   UNL     1       4.775   6.966  16.120  0.00  0.00    +0.000 C 
ENDBRANCH   8  17
ENDBRANCH   1  14
BRANCH   6  18
ATOM     18  O   UNL     1       2.623   5.515  19.844  0.00  0.00    +0.000 OA
BRANCH  18  19
ATOM     19  C   UNL     1       2.015   6.540  20.638  0.00  0.00    +0.000 C 
BRANCH  19  20
ATOM     20  C   UNL     1       1.787   7.808  19.854  0.00  0.00    +0.000 A 
ATOM     21  C   UNL     1       2.264   7.938  18.543  0.00  0.00    +0.000 A 
ATOM     22  C   UNL     1       2.033   9.110  17.820  0.00  0.00    +0.000 A 
ATOM     23  C   UNL     1       1.322  10.160  18.399  0.00  0.00    +0.000 A 
ATOM     24  C   UNL     1       0.846  10.042  19.703  0.00  0.00    +0.000 A 
ATOM     25  C   UNL     1       1.078   8.873  20.427  0.00  0.00    +0.000 A 
ENDBRANCH  19  20
ENDBRANCH  18  19
ENDBRANCH   6  18
TORSDOF 5
ENDMDL
MODEL 2
REMARK VINA RESULT:      -7.0      1.711      2.444
REMARK  Name = 
REMARK  5 active torsions:
REMARK  status: ('A' for Active; 'I' for Inactive)
REMARK    1  A    between atoms: C_2  and  C_3
REMARK    2  A    between atoms: C_9  and  C_11
REMARK    3  A    between atoms: C_16  and  O_18
REMARK    4  A    between atoms: O_18  and  C_19
REMARK    5  A    between atoms: C_19  and  C_20
REMARK                            x       y       z     vdW  Elec       q    Type
REMARK                         _______ _______ _______ _____ _____    ______ ____
ROOT
ATOM      1  C   UNL     1       4.010   3.553  19.388  0.00  0.00    +0.000 C 
ATOM      2  C   UNL     1       4.403   2.086  19.160  0.00  0.00    +0.000 C 
ATOM      3  C   UNL     1       3.087   1.391  18.841  0.00  0.00    +0.000 C 
ATOM      4  C   UNL     1       2.241   2.463  18.165  0.00  0.00    +0.000 C 
ATOM      5  N   UNL     1       2.890   3.721  18.466  0.00  0.00    +0.000 N 
ATOM      6  C   UNL     1       2.246   4.902  18.176  0.00  0.00    +0.000 C 
ATOM      7  O   UNL     1       1.263   4.972  17.453  0.00  0.00    +0.000 OA
ENDROOT
BRANCH   1  14
ATOM      8  C   UNL     1       7.087   5.141  17.530  0.00  0.00    +0.000 C 
ATOM      9  C   UNL     1       6.812   6.090  16.355  0.00  0.00    +0.000 C 
ATOM     10  C   UNL     1       6.291   5.325  15.138  0.00  0.00    +0.000 C 
ATOM     11  C   UNL     1       5.088   4.465  15.507  0.00  0.00    +0.000 C 
ATOM     12  C   UNL     1       5.390   3.555  16.697  0.00  0.00    +0.000 C 
ATOM     13  N   UNL     1       5.889   4.322  17.844  0.00  0.00    +0.000 N 
ATOM     14  C   UNL     1       5.241   4.444  19.073  0.00  0.00    +0.000 C 
ATOM     15  O   UNL     1       5.660   5.218  19.941  0.00  0.00    +0.000 OA
BRANCH   8  17
ATOM     16  O   UNL     1       8.172   7.034  18.630  0.00  0.00    +0.000 OA
ATOM     17  C   UNL     1       7.843   5.849  18.662  0.00  0.00    +0.000 C 
ENDBRANCH   8  17
ENDBRANCH   1  14
BRANCH   6  18
ATOM     18  O   UNL     1       2.843   5.972  18.770  0.00  0.00    +0.000 OA
BRANCH  18  19
ATOM     19  C   UNL     1       2.814   7.180  18.002  0.00  0.00    +0.000 C 
BRANCH  19  20
ATOM     20  C   UNL     1       1.995   8.258  18.668  0.00  0.00    +0.000 A 
ATOM     21  C   UNL     1       1.519   9.354  17.937  0.00  0.00    +0.000 A 
ATOM     22  C   UNL     1       0.749  10.338  18.559  0.00  0.00    +0.000 A 
ATOM     23  C   UNL     1       0.446  10.235  19.916  0.00  0.00    +0.000 A 
ATOM     24  C   UNL     1       0.917   9.150  20.654  0.00  0.00    +0.000 A 
ATOM     25  C   UNL     1       1.688   8.167  20.033  0.00  0.00    +0.000 A 
ENDBRANCH  19  20
ENDBRANCH  18  19
ENDBRANCH   6  18
TORSDOF 5
ENDMDL
MODEL 3
REMARK VINA RESULT:      -6.8      1.922      5.390
REMARK  Name = 
REMARK  5 active torsions:
REMARK  status: ('A' for Active; 'I' for Inactive)
REMARK    1  A    between atoms: C_2  and  C_3
REMARK    2  A    between atoms: C_9  and  C_11
REMARK    3  A    between atoms: C_16  and  O_18
REMARK    4  A    between atoms: O_18  and  C_19
REMARK    5  A    between atoms: C_19  and  C_20
REMARK                            x       y       z     vdW  Elec       q    Type
REMARK                         _______ _______ _______ _____ _____    ______ ____
ROOT
ATOM      1  C   UNL     1       2.369   4.818  18.579  0.00  0.00    +0.000 C 
ATOM      2  C   UNL     1       1.100   3.995  18.313  0.00  0.00    +0.000 C 
ATOM      3  C   UNL     1       1.621   2.626  17.901  0.00  0.00    +0.000 C 
ATOM      4  C   UNL     1       2.941   2.478  18.646  0.00  0.00    +0.000 C 
ATOM      5  N   UNL     1       3.292   3.809  19.091  0.00  0.00    +0.000 N 
ATOM      6  C   UNL     1       4.544   4.042  19.610  0.00  0.00    +0.000 C 
ATOM      7  O   UNL     1       5.306   3.151  19.954  0.00  0.00    +0.000 OA
ENDROOT
BRANCH   1  14
ATOM      8  C   UNL     1       1.979   8.366  20.223  0.00  0.00    +0.000 C 
ATOM      9  C   UNL     1       0.891   9.301  19.675  0.00  0.00    +0.000 C 
ATOM     10  C   UNL     1       1.263   9.828  18.289  0.00  0.00    +0.000 C 
ATOM     11  C   UNL     1       1.599   8.682  17.341  0.00  0.00    +0.000 C 
ATOM     12  C   UNL     1       2.663   7.757  17.932  0.00  0.00    +0.000 C 
ATOM     13  N   UNL     1       2.274   7.274  19.261  0.00  0.00    +0.000 N 
ATOM     14  C   UNL     1       2.020   5.943  19.590  0.00  0.00    +0.000 C 
ATOM     15  O   UNL     1       1.566   5.634  20.697  0.00  0.00    +0.000 OA
BRANCH   8  17
ATOM     16  O   UNL     1       1.332   8.845  22.531  0.00  0.00    +0.000 OA
ATOM     17  C   UNL     1       1.745   8.034  21.702  0.00  0.00    +0.000 C 
ENDBRANCH   8  17
ENDBRANCH   1  14
BRANCH   6  18
ATOM     18  O   UNL     1       4.820   5.372  19.710  0.00  0.00    +0.000 OA
BRANCH  18  19
ATOM     19  C   UNL     1       6.071   5.772  19.140  0.00  0.00    +0.000 C 
BRANCH  19  20
ATOM     20  C   UNL     1       6.126   5.524  17.654  0.00  0.00    +0.000 A 
ATOM     21  C   UNL     1       5.260   6.195  16.781  0.00  0.00    +0.000 A 
ATOM     22  C   UNL     1       5.329   5.969  15.405  0.00  0.00    +0.000 A 
ATOM     23  C   UNL     1       6.266   5.074  14.889  0.00  0.00    +0.000 A 
ATOM     24  C   UNL     1       7.131   4.400  15.749  0.00  0.00    +0.000 A 
ATOM     25  C   UNL     1       7.061   4.622  17.124  0.00  0.00    +0.000 A 
ENDBRANCH  19  20
ENDBRANCH  18  19
ENDBRANCH   6  18
TORSDOF 5
ENDMDL
MODEL 4
REMARK VINA RESULT:      -6.6      0.635      1.253
REMARK  Name = 
REMARK  5 active torsions:
REMARK  status: ('A' for Active; 'I' for Inactive)
REMARK    1  A    between atoms: C_2  and  C_3
REMARK    2  A    between atoms: C_9  and  C_11
REMARK    3  A    between atoms: C_16  and  O_18
REMARK    4  A    between atoms: O_18  and  C_19
REMARK    5  A    between atoms: C_19  and  C_20
REMARK                            x       y       z     vdW  Elec       q    Type
REMARK                         _______ _______ _______ _____ _____    ______ ____
ROOT
ATOM      1  C   UNL     1       3.982   3.500  18.887  0.00  0.00    +0.000 C 
ATOM      2  C   UNL     1       4.096   2.139  18.185  0.00  0.00    +0.000 C 
ATOM      3  C   UNL     1       3.102   1.254  18.924  0.00  0.00    +0.000 C 
ATOM      4  C   UNL     1       2.011   2.208  19.392  0.00  0.00    +0.000 C 
ATOM      5  N   UNL     1       2.574   3.536  19.271  0.00  0.00    +0.000 N 
ATOM      6  C   UNL     1       1.908   4.606  19.822  0.00  0.00    +0.000 C 
ATOM      7  O   UNL     1       0.746   4.556  20.195  0.00  0.00    +0.000 OA
ENDROOT
BRANCH   1  14
ATOM      8  C   UNL     1       5.695   6.682  17.343  0.00  0.00    +0.000 C 
ATOM      9  C   UNL     1       7.194   6.612  17.020  0.00  0.00    +0.000 C 
ATOM     10  C   UNL     1       8.034   6.605  18.297  0.00  0.00    +0.000 C 
ATOM     11  C   UNL     1       7.575   5.505  19.247  0.00  0.00    +0.000 C 
ATOM     12  C   UNL     1       6.074   5.590  19.523  0.00  0.00    +0.000 C 
ATOM     13  N   UNL     1       5.301   5.596  18.276  0.00  0.00    +0.000 N 
ATOM     14  C   UNL     1       4.403   4.605  17.882  0.00  0.00    +0.000 C 
ATOM     15  O   UNL     1       3.893   4.617  16.756  0.00  0.00    +0.000 OA
BRANCH   8  17
ATOM     16  O   UNL     1       5.299   6.863  14.938  0.00  0.00    +0.000 OA
ATOM     17  C   UNL     1       4.858   6.945  16.084  0.00  0.00    +0.000 C 
ENDBRANCH   8  17
ENDBRANCH   1  14
BRANCH   6  18
ATOM     18  O   UNL     1       2.688   5.721  19.880  0.00  0.00    +0.000 OA
BRANCH  18  19
ATOM     19  C   UNL     1       2.267   6.796  19.032  0.00  0.00    +0.000 C 
BRANCH  19  20
ATOM     20  C   UNL     1       1.703   7.954  19.817  0.00  0.00    +0.000 A 
ATOM     21  C   UNL     1       1.527   7.864  21.204  0.00  0.00    +0.000 A 
ATOM     22  C   UNL     1       1.020   8.947  21.924  0.00  0.00    +0.000 A 
ATOM     23  C   UNL     1       0.687  10.130  21.265  0.00  0.00    +0.000 A 
ATOM     24  C   UNL     1       0.856  10.229  19.885  0.00  0.00    +0.000 A 
ATOM     25  C   UNL     1       1.361   9.147  19.165  0.00  0.00    +0.000 A 
ENDBRANCH  19  20
ENDBRANCH  18  19
ENDBRANCH   6  18
TORSDOF 5
ENDMDL
MODEL 5
REMARK VINA RESULT:      -6.5      1.916      4.833
REMARK  Name = 
REMARK  5 active torsions:
REMARK  status: ('A' for Active; 'I' for Inactive)
REMARK    1  A    between atoms: C_2  and  C_3
REMARK    2  A    between atoms: C_9  and  C_11
REMARK    3  A    between atoms: C_16  and  O_18
REMARK    4  A    between atoms: O_18  and  C_19
REMARK    5  A    between atoms: C_19  and  C_20
REMARK                            x       y       z     vdW  Elec       q    Type
REMARK                         _______ _______ _______ _____ _____    ______ ____
ROOT
ATOM      1  C   UNL     1       4.808   4.417  16.527  0.00  0.00    +0.000 C 
ATOM      2  C   UNL     1       5.560   3.327  15.750  0.00  0.00    +0.000 C 
ATOM      3  C   UNL     1       6.380   4.097  14.724  0.00  0.00    +0.000 C 
ATOM      4  C   UNL     1       6.680   5.430  15.396  0.00  0.00    +0.000 C 
ATOM      5  N   UNL     1       5.760   5.525  16.509  0.00  0.00    +0.000 N 
ATOM      6  C   UNL     1       5.634   6.716  17.185  0.00  0.00    +0.000 C 
ATOM      7  O   UNL     1       6.426   7.639  17.074  0.00  0.00    +0.000 OA
ENDROOT
BRANCH   1  14
ATOM      8  C   UNL     1       2.843   3.442  19.787  0.00  0.00    +0.000 C 
ATOM      9  C   UNL     1       1.890   2.239  19.725  0.00  0.00    +0.000 C 
ATOM     10  C   UNL     1       0.644   2.564  18.900  0.00  0.00    +0.000 C 
ATOM     11  C   UNL     1       1.023   3.098  17.524  0.00  0.00    +0.000 C 
ATOM     12  C   UNL     1       1.994   4.275  17.625  0.00  0.00    +0.000 C 
ATOM     13  N   UNL     1       3.174   3.928  18.424  0.00  0.00    +0.000 N 
ATOM     14  C   UNL     1       4.482   3.872  17.943  0.00  0.00    +0.000 C 
ATOM     15  O   UNL     1       5.403   3.440  18.646  0.00  0.00    +0.000 OA
BRANCH   8  17
ATOM     16  O   UNL     1       4.269   2.119  21.267  0.00  0.00    +0.000 OA
ATOM     17  C   UNL     1       3.964   3.220  20.810  0.00  0.00    +0.000 C 
ENDBRANCH   8  17
ENDBRANCH   1  14
BRANCH   6  18
ATOM     18  O   UNL     1       4.543   6.731  18.000  0.00  0.00    +0.000 OA
BRANCH  18  19
ATOM     19  C   UNL     1       3.411   7.435  17.478  0.00  0.00    +0.000 C 
BRANCH  19  20
ATOM     20  C   UNL     1       2.496   7.931  18.569  0.00  0.00    +0.000 A 
ATOM     21  C   UNL     1       2.368   7.230  19.775  0.00  0.00    +0.000 A 
ATOM     22  C   UNL     1       1.530   7.706  20.785  0.00  0.00    +0.000 A 
ATOM     23  C   UNL     1       0.815   8.889  20.600  0.00  0.00    +0.000 A 
ATOM     24  C   UNL     1       0.933   9.594  19.404  0.00  0.00    +0.000 A 
ATOM     25  C   UNL     1       1.768   9.117  18.393  0.00  0.00    +0.000 A 
ENDBRANCH  19  20
ENDBRANCH  18  19
ENDBRANCH   6  18
TORSDOF 5
ENDMDL
MODEL 6
REMARK VINA RESULT:      -6.3      4.953      8.288
REMARK  Name = 
REMARK  5 active torsions:
REMARK  status: ('A' for Active; 'I' for Inactive)
REMARK    1  A    between atoms: C_2  and  C_3
REMARK    2  A    between atoms: C_9  and  C_11
REMARK    3  A    between atoms: C_16  and  O_18
REMARK    4  A    between atoms: O_18  and  C_19
REMARK    5  A    between atoms: C_19  and  C_20
REMARK                            x       y       z     vdW  Elec       q    Type
REMARK                         _______ _______ _______ _____ _____    ______ ____
ROOT
ATOM      1  C   UNL     1       0.946  12.426  19.145  0.00  0.00    +0.000 C 
ATOM      2  C   UNL     1       2.363  13.016  19.099  0.00  0.00    +0.000 C 
ATOM      3  C   UNL     1       2.147  14.483  18.755  0.00  0.00    +0.000 C 
ATOM      4  C   UNL     1       0.790  14.822  19.358  0.00  0.00    +0.000 C 
ATOM      5  N   UNL     1       0.156  13.552  19.639  0.00  0.00    +0.000 N 
ATOM      6  C   UNL     1      -1.173  13.520  19.990  0.00  0.00    +0.000 C 
ATOM      7  O   UNL     1      -1.804  14.512  20.326  0.00  0.00    +0.000 OA
ENDROOT
BRANCH   1  14
ATOM      8  C   UNL     1       0.876   8.710  20.420  0.00  0.00    +0.000 C 
ATOM      9  C   UNL     1       2.125   7.845  20.197  0.00  0.00    +0.000 C 
ATOM     10  C   UNL     1       2.292   7.486  18.721  0.00  0.00    +0.000 C 
ATOM     11  C   UNL     1       2.266   8.735  17.848  0.00  0.00    +0.000 C 
ATOM     12  C   UNL     1       1.023   9.584  18.117  0.00  0.00    +0.000 C 
ATOM     13  N   UNL     1       0.895   9.907  19.542  0.00  0.00    +0.000 N 
ATOM     14  C   UNL     1       0.960  11.191  20.084  0.00  0.00    +0.000 C 
ATOM     15  O   UNL     1       0.979  11.367  21.307  0.00  0.00    +0.000 OA
BRANCH   8  17
ATOM     16  O   UNL     1      -0.563   8.696  22.396  0.00  0.00    +0.000 OA
ATOM     17  C   UNL     1       0.556   8.866  21.912  0.00  0.00    +0.000 C 
ENDBRANCH   8  17
ENDBRANCH   1  14
BRANCH   6  18
ATOM     18  O   UNL     1      -1.688  12.261  19.939  0.00  0.00    +0.000 OA
BRANCH  18  19
ATOM     19  C   UNL     1      -3.041  12.182  19.475  0.00  0.00    +0.000 C 
BRANCH  19  20
ATOM     20  C   UNL     1      -3.148  11.470  18.150  0.00  0.00    +0.000 A 
ATOM     21  C   UNL     1      -2.167  10.555  17.744  0.00  0.00    +0.000 A 
ATOM     22  C   UNL     1      -2.284   9.890  16.522  0.00  0.00    +0.000 A 
ATOM     23  C   UNL     1      -3.381  10.131  15.696  0.00  0.00    +0.000 A 
ATOM     24  C   UNL     1      -4.361  11.041  16.090  0.00  0.00    +0.000 A 
ATOM     25  C   UNL     1      -4.245  11.708  17.309  0.00  0.00    +0.000 A 
ENDBRANCH  19  20
ENDBRANCH  18  19
ENDBRANCH   6  18
TORSDOF 5
ENDMDL
MODEL 7
REMARK VINA RESULT:      -6.3      1.314      1.672
REMARK  Name = 
REMARK  5 active torsions:
REMARK  status: ('A' for Active; 'I' for Inactive)
REMARK    1  A    between atoms: C_2  and  C_3
REMARK    2  A    between atoms: C_9  and  C_11
REMARK    3  A    between atoms: C_16  and  O_18
REMARK    4  A    between atoms: O_18  and  C_19
REMARK    5  A    between atoms: C_19  and  C_20
REMARK                            x       y       z     vdW  Elec       q    Type
REMARK                         _______ _______ _______ _____ _____    ______ ____
ROOT
ATOM      1  C   UNL     1       4.043   3.466  19.981  0.00  0.00    +0.000 C 
ATOM      2  C   UNL     1       4.487   2.042  20.346  0.00  0.00    +0.000 C 
ATOM      3  C   UNL     1       3.539   1.630  21.463  0.00  0.00    +0.000 C 
ATOM      4  C   UNL     1       2.247   2.380  21.167  0.00  0.00    +0.000 C 
ATOM      5  N   UNL     1       2.603   3.412  20.218  0.00  0.00    +0.000 N 
ATOM      6  C   UNL     1       1.692   4.399  19.917  0.00  0.00    +0.000 C 
ATOM      7  O   UNL     1       0.507   4.331  20.207  0.00  0.00    +0.000 OA
ENDROOT
BRANCH   1  14
ATOM      8  C   UNL     1       5.554   5.177  16.783  0.00  0.00    +0.000 C 
ATOM      9  C   UNL     1       7.077   5.139  16.593  0.00  0.00    +0.000 C 
ATOM     10  C   UNL     1       7.781   6.058  17.592  0.00  0.00    +0.000 C 
ATOM     11  C   UNL     1       7.349   5.747  19.020  0.00  0.00    +0.000 C 
ATOM     12  C   UNL     1       5.827   5.767  19.163  0.00  0.00    +0.000 C 
ATOM     13  N   UNL     1       5.186   4.876  18.189  0.00  0.00    +0.000 N 
ATOM     14  C   UNL     1       4.442   3.740  18.507  0.00  0.00    +0.000 C 
ATOM     15  O   UNL     1       4.050   2.968  17.625  0.00  0.00    +0.000 OA
BRANCH   8  17
ATOM     16  O   UNL     1       5.307   4.296  14.517  0.00  0.00    +0.000 OA
ATOM     17  C   UNL     1       4.825   4.465  15.636  0.00  0.00    +0.000 C 
ENDBRANCH   8  17
ENDBRANCH   1  14
BRANCH   6  18
ATOM     18  O   UNL     1       2.263   5.438  19.247  0.00  0.00    +0.000 OA
BRANCH  18  19
ATOM     19  C   UNL     1       2.590   6.571  20.059  0.00  0.00    +0.000 C 
BRANCH  19  20
ATOM     20  C   UNL     1       1.964   7.842  19.541  0.00  0.00    +0.000 A 
ATOM     21  C   UNL     1       1.157   8.635  20.367  0.00  0.00    +0.000 A 
ATOM     22  C   UNL     1       0.595   9.817  19.882  0.00  0.00    +0.000 A 
ATOM     23  C   UNL     1       0.837  10.220  18.569  0.00  0.00    +0.000 A 
ATOM     24  C   UNL     1       1.637   9.438  17.738  0.00  0.00    +0.000 A 
ATOM     25  C   UNL     1       2.197   8.254  18.221  0.00  0.00    +0.000 A 
ENDBRANCH  19  20
ENDBRANCH  18  19
ENDBRANCH   6  18
TORSDOF 5
ENDMDL
MODEL 8
REMARK VINA RESULT:      -6.1      6.842      9.737
REMARK  Name = 
REMARK  5 active torsions:
REMARK  status: ('A' for Active; 'I' for Inactive)
REMARK    1  A    between atoms: C_2  and  C_3
REMARK    2  A    between atoms: C_9  and  C_11
REMARK    3  A    between atoms: C_16  and  O_18
REMARK    4  A    between atoms: O_18  and  C_19
REMARK    5  A    between atoms: C_19  and  C_20
REMARK                            x       y       z     vdW  Elec       q    Type
REMARK                         _______ _______ _______ _____ _____    ______ ____
ROOT
ATOM      1  C   UNL     1      -1.801  13.827  22.044  0.00  0.00    +0.000 C 
ATOM      2  C   UNL     1      -1.257  14.234  23.421  0.00  0.00    +0.000 C 
ATOM      3  C   UNL     1      -2.493  14.662  24.200  0.00  0.00    +0.000 C 
ATOM      4  C   UNL     1      -3.621  13.817  23.624  0.00  0.00    +0.000 C 
ATOM      5  N   UNL     1      -3.116  13.285  22.377  0.00  0.00    +0.000 N 
ATOM      6  C   UNL     1      -3.978  12.654  21.510  0.00  0.00    +0.000 C 
ATOM      7  O   UNL     1      -5.100  12.288  21.826  0.00  0.00    +0.000 OA
ENDROOT
BRANCH   1  14
ATOM      8  C   UNL     1       0.599  12.036  19.500  0.00  0.00    +0.000 C 
ATOM      9  C   UNL     1       1.985  12.650  19.258  0.00  0.00    +0.000 C 
ATOM     10  C   UNL     1       1.882  13.951  18.463  0.00  0.00    +0.000 C 
ATOM     11  C   UNL     1       0.906  14.919  19.123  0.00  0.00    +0.000 C 
ATOM     12  C   UNL     1      -0.453  14.265  19.373  0.00  0.00    +0.000 C 
ATOM     13  N   UNL     1      -0.314  13.019  20.136  0.00  0.00    +0.000 N 
ATOM     14  C   UNL     1      -0.823  12.799  21.415  0.00  0.00    +0.000 C 
ATOM     15  O   UNL     1      -0.548  11.771  22.044  0.00  0.00    +0.000 OA
BRANCH   8  17
ATOM     16  O   UNL     1       0.743   9.599  19.375  0.00  0.00    +0.000 OA
ATOM     17  C   UNL     1       0.702  10.615  20.069  0.00  0.00    +0.000 C 
ENDBRANCH   8  17
ENDBRANCH   1  14
BRANCH   6  18
ATOM     18  O   UNL     1      -3.427  12.472  20.279  0.00  0.00    +0.000 OA
BRANCH  18  19
ATOM     19  C   UNL     1      -4.368  12.229  19.227  0.00  0.00    +0.000 C 
BRANCH  19  20
ATOM     20  C   UNL     1      -3.751  11.480  18.072  0.00  0.00    +0.000 A 
ATOM     21  C   UNL     1      -2.547  10.782  18.230  0.00  0.00    +0.000 A 
ATOM     22  C   UNL     1      -1.993  10.079  17.158  0.00  0.00    +0.000 A 
ATOM     23  C   UNL     1      -2.637  10.065  15.922  0.00  0.00    +0.000 A 
ATOM     24  C   UNL     1      -3.835  10.759  15.754  0.00  0.00    +0.000 A 
ATOM     25  C   UNL     1      -4.388  11.464  16.823  0.00  0.00    +0.000 A 
ENDBRANCH  19  20
ENDBRANCH  18  19
ENDBRANCH   6  18
TORSDOF 5
ENDMDL
MODEL 9
REMARK VINA RESULT:      -6.0      5.956      9.421
REMARK  Name = 
REMARK  5 active torsions:
REMARK  status: ('A' for Active; 'I' for Inactive)
REMARK    1  A    between atoms: C_2  and  C_3
REMARK    2  A    between atoms: C_9  and  C_11
REMARK    3  A    between atoms: C_16  and  O_18
REMARK    4  A    between atoms: O_18  and  C_19
REMARK    5  A    between atoms: C_19  and  C_20
REMARK                            x       y       z     vdW  Elec       q    Type
REMARK                         _______ _______ _______ _____ _____    ______ ____
ROOT
ATOM      1  C   UNL     1       0.550  12.879  19.648  0.00  0.00    +0.000 C 
ATOM      2  C   UNL     1       2.015  13.335  19.574  0.00  0.00    +0.000 C 
ATOM      3  C   UNL     1       1.941  14.736  18.986  0.00  0.00    +0.000 C 
ATOM      4  C   UNL     1       0.600  15.281  19.459  0.00  0.00    +0.000 C 
ATOM      5  N   UNL     1      -0.152  14.131  19.914  0.00  0.00    +0.000 N 
ATOM      6  C   UNL     1      -1.490  14.268  20.202  0.00  0.00    +0.000 C 
ATOM      7  O   UNL     1      -2.042  15.349  20.341  0.00  0.00    +0.000 OA
ENDROOT
BRANCH   1  14
ATOM      8  C   UNL     1       0.139   9.441  21.508  0.00  0.00    +0.000 C 
ATOM      9  C   UNL     1       1.331   8.473  21.510  0.00  0.00    +0.000 C 
ATOM     10  C   UNL     1       1.547   7.861  20.126  0.00  0.00    +0.000 C 
ATOM     11  C   UNL     1       1.659   8.944  19.060  0.00  0.00    +0.000 C 
ATOM     12  C   UNL     1       0.471   9.905  19.107  0.00  0.00    +0.000 C 
ATOM     13  N   UNL     1       0.293  10.470  20.449  0.00  0.00    +0.000 N 
ATOM     14  C   UNL     1       0.424  11.820  20.776  0.00  0.00    +0.000 C 
ATOM     15  O   UNL     1       0.392  12.197  21.953  0.00  0.00    +0.000 OA
BRANCH   8  17
ATOM     16  O   UNL     1       0.435   9.621  23.927  0.00  0.00    +0.000 OA
ATOM     17  C   UNL     1      -0.245   9.865  22.931  0.00  0.00    +0.000 C 
ENDBRANCH   8  17
ENDBRANCH   1  14
BRANCH   6  18
ATOM     18  O   UNL     1      -2.113  13.063  20.333  0.00  0.00    +0.000 OA
BRANCH  18  19
ATOM     19  C   UNL     1      -3.538  13.132  20.449  0.00  0.00    +0.000 C 
BRANCH  19  20
ATOM     20  C   UNL     1      -4.006  12.906  21.866  0.00  0.00    +0.000 A 
ATOM     21  C   UNL     1      -3.129  12.415  22.842  0.00  0.00    +0.000 A 
ATOM     22  C   UNL     1      -3.567  12.224  24.154  0.00  0.00    +0.000 A 
ATOM     23  C   UNL     1      -4.884  12.525  24.502  0.00  0.00    +0.000 A 
ATOM     24  C   UNL     1      -5.764  13.012  23.538  0.00  0.00    +0.000 A 
ATOM     25  C   UNL     1      -5.328  13.200  22.226  0.00  0.00    +0.000 A 
ENDBRANCH  19  20
ENDBRANCH  18  19
ENDBRANCH   6  18
TORSDOF 5
ENDMDL
