MODEL 1
REMARK VINA RESULT:      -7.7      0.000      0.000
REMARK  Name = 
REMARK  5 active torsions:
REMARK  status: ('A' for Active; 'I' for Inactive)
REMARK    1  A    between atoms: C_1  and  C_2
REMARK    2  A    between atoms: C_2  and  O_4
REMARK    3  A    between atoms: O_4  and  C_5
REMARK    4  A    between atoms: C_17  and  C_18
REMARK    5  A    between atoms: C_18  and  O_19
REMARK                            x       y       z     vdW  Elec       q    Type
REMARK                         _______ _______ _______ _____ _____    ______ ____
ROOT
ATOM      1  C   UNL     1       6.659   5.300  16.781  0.00  0.00    +0.000 C 
ATOM      2  C   UNL     1       5.180   5.307  17.036  0.00  0.00    +0.000 C 
ATOM      3  O   UNL     1       4.682   6.425  17.684  0.00  0.00    +0.000 OA
ATOM      4  C   UNL     1       3.877   6.003  18.658  0.00  0.00    +0.000 A 
ATOM      5  N   UNL     1       2.992   6.780  19.335  0.00  0.00    +0.000 NA
ATOM      6  C   UNL     1       2.195   6.218  20.288  0.00  0.00    +0.000 A 
ATOM      7  N   UNL     1       1.345   6.939  20.924  0.00  0.00    +0.000 NA
ATOM      8  C   UNL     1       2.298   4.842  20.575  0.00  0.00    +0.000 A 
ATOM      9  C   UNL     1       3.229   4.076  19.862  0.00  0.00    +0.000 A 
ATOM     10  N   UNL     1       3.978   4.692  18.910  0.00  0.00    +0.000 N 
ATOM     11  C   UNL     1       5.010   4.164  18.045  0.00  0.00    +0.000 C 
ATOM     12  O   UNL     1       6.222   4.036  18.774  0.00  0.00    +0.000 OA
ATOM     13  C   UNL     1       7.225   4.787  18.102  0.00  0.00    +0.000 C 
ATOM     14  H   UNL     1       1.250   7.949  20.731  0.00  0.00    +0.000 HD
ENDROOT
BRANCH   1  15
ATOM     15  O   UNL     1       6.942   4.371  15.795  0.00  0.00    +0.000 OA
BRANCH  15  17
ATOM     16  C   UNL     1       6.076   3.901  13.546  0.00  0.00    +0.000 C 
ATOM     17  C   UNL     1       6.959   4.665  14.469  0.00  0.00    +0.000 C 
ATOM     18  O   UNL     1       7.711   5.521  14.021  0.00  0.00    +0.000 OA
ENDBRANCH  15  17
ENDBRANCH   1  15
BRANCH  13  19
ATOM     19  C   UNL     1       7.753   5.940  18.968  0.00  0.00    +0.000 C 
BRANCH  19  20
ATOM     20  O   UNL     1       7.876   5.540  20.307  0.00  0.00    +0.000 OA
ATOM     21  H   UNL     1       7.822   4.552  20.313  0.00  0.00    +0.000 HD
ENDBRANCH  19  20
ENDBRANCH  13  19
TORSDOF 4
ENDMDL
MODEL 2
REMARK VINA RESULT:      -7.0      0.965      1.015
REMARK  Name = 
REMARK  5 active torsions:
REMARK  status: ('A' for Active; 'I' for Inactive)
REMARK    1  A    between atoms: C_1  and  C_2
REMARK    2  A    between atoms: C_2  and  O_4
REMARK    3  A    between atoms: O_4  and  C_5
REMARK    4  A    between atoms: C_17  and  C_18
REMARK    5  A    between atoms: C_18  and  O_19
REMARK                            x       y       z     vdW  Elec       q    Type
REMARK                         _______ _______ _______ _____ _____    ______ ____
ROOT
ATOM      1  C   UNL     1       6.779   5.612  16.296  0.00  0.00    +0.000 C 
ATOM      2  C   UNL     1       5.341   5.357  16.642  0.00  0.00    +0.000 C 
ATOM      3  O   UNL     1       4.647   6.429  17.177  0.00  0.00    +0.000 OA
ATOM      4  C   UNL     1       3.983   5.989  18.245  0.00  0.00    +0.000 A 
ATOM      5  N   UNL     1       2.982   6.657  18.876  0.00  0.00    +0.000 NA
ATOM      6  C   UNL     1       2.355   6.080  19.941  0.00  0.00    +0.000 A 
ATOM      7  N   UNL     1       1.398   6.695  20.535  0.00  0.00    +0.000 NA
ATOM      8  C   UNL     1       2.751   4.804  20.388  0.00  0.00    +0.000 A 
ATOM      9  C   UNL     1       3.793   4.151  19.719  0.00  0.00    +0.000 A 
ATOM     10  N   UNL     1       4.363   4.771  18.652  0.00  0.00    +0.000 N 
ATOM     11  C   UNL     1       5.449   4.350  17.794  0.00  0.00    +0.000 C 
ATOM     12  O   UNL     1       6.688   4.566  18.455  0.00  0.00    +0.000 OA
ATOM     13  C   UNL     1       7.487   5.406  17.632  0.00  0.00    +0.000 C 
ATOM     14  H   UNL     1       1.089   7.630  20.225  0.00  0.00    +0.000 HD
ENDROOT
BRANCH   1  15
ATOM     15  O   UNL     1       7.211   4.634  15.418  0.00  0.00    +0.000 OA
BRANCH  15  17
ATOM     16  C   UNL     1       6.123   3.794  13.383  0.00  0.00    +0.000 C 
ATOM     17  C   UNL     1       7.066   4.719  14.070  0.00  0.00    +0.000 C 
ATOM     18  O   UNL     1       7.720   5.518  13.412  0.00  0.00    +0.000 OA
ENDBRANCH  15  17
ENDBRANCH   1  15
BRANCH  13  19
ATOM     19  C   UNL     1       7.797   6.747  18.313  0.00  0.00    +0.000 C 
BRANCH  19  20
ATOM     20  O   UNL     1       7.818   7.788  17.373  0.00  0.00    +0.000 OA
ATOM     21  H   UNL     1       7.090   8.411  17.625  0.00  0.00    +0.000 HD
ENDBRANCH  19  20
ENDBRANCH  13  19
TORSDOF 4
ENDMDL
MODEL 3
REMARK VINA RESULT:      -6.9      2.863      6.032
REMARK  Name = 
REMARK  5 active torsions:
REMARK  status: ('A' for Active; 'I' for Inactive)
REMARK    1  A    between atoms: C_1  and  C_2
REMARK    2  A    between atoms: C_2  and  O_4
REMARK    3  A    between atoms: O_4  and  C_5
REMARK    4  A    between atoms: C_17  and  C_18
REMARK    5  A    between atoms: C_18  and  O_19
REMARK                            x       y       z     vdW  Elec       q    Type
REMARK                         _______ _______ _______ _____ _____    ______ ____
ROOT
ATOM      1  C   UNL     1       2.877   3.754  19.194  0.00  0.00    +0.000 C 
ATOM      2  C   UNL     1       3.695   4.751  18.427  0.00  0.00    +0.000 C 
ATOM      3  O   UNL     1       3.730   4.580  17.054  0.00  0.00    +0.000 OA
ATOM      4  C   UNL     1       5.000   4.680  16.666  0.00  0.00    +0.000 A 
ATOM      5  N   UNL     1       5.417   4.843  15.383  0.00  0.00    +0.000 NA
ATOM      6  C   UNL     1       6.749   4.969  15.119  0.00  0.00    +0.000 A 
ATOM      7  N   UNL     1       7.154   5.139  13.914  0.00  0.00    +0.000 NA
ATOM      8  C   UNL     1       7.686   4.919  16.171  0.00  0.00    +0.000 A 
ATOM      9  C   UNL     1       7.218   4.739  17.479  0.00  0.00    +0.000 A 
ATOM     10  N   UNL     1       5.877   4.642  17.677  0.00  0.00    +0.000 N 
ATOM     11  C   UNL     1       5.122   4.440  18.894  0.00  0.00    +0.000 C 
ATOM     12  O   UNL     1       5.177   3.070  19.266  0.00  0.00    +0.000 OA
ATOM     13  C   UNL     1       3.844   2.585  19.362  0.00  0.00    +0.000 C 
ATOM     14  H   UNL     1       6.487   5.181  13.127  0.00  0.00    +0.000 HD
ENDROOT
BRANCH   1  15
ATOM     15  O   UNL     1       2.593   4.269  20.446  0.00  0.00    +0.000 OA
BRANCH  15  17
ATOM     16  C   UNL     1       0.857   2.692  21.173  0.00  0.00    +0.000 C 
ATOM     17  C   UNL     1       2.049   3.538  21.453  0.00  0.00    +0.000 C 
ATOM     18  O   UNL     1       2.504   3.590  22.589  0.00  0.00    +0.000 OA
ENDBRANCH  15  17
ENDBRANCH   1  15
BRANCH  13  19
ATOM     19  C   UNL     1       3.563   1.476  18.338  0.00  0.00    +0.000 C 
BRANCH  19  20
ATOM     20  O   UNL     1       2.369   1.728  17.647  0.00  0.00    +0.000 OA
ATOM     21  H   UNL     1       2.379   2.689  17.406  0.00  0.00    +0.000 HD
ENDBRANCH  19  20
ENDBRANCH  13  19
TORSDOF 4
ENDMDL
MODEL 4
REMARK VINA RESULT:      -6.9      1.859      3.288
REMARK  Name = 
REMARK  5 active torsions:
REMARK  status: ('A' for Active; 'I' for Inactive)
REMARK    1  A    between atoms: C_1  and  C_2
REMARK    2  A    between atoms: C_2  and  O_4
REMARK    3  A    between atoms: O_4  and  C_5
REMARK    4  A    between atoms: C_17  and  C_18
REMARK    5  A    between atoms: C_18  and  O_19
REMARK                            x       y       z     vdW  Elec       q    Type
REMARK                         _______ _______ _______ _____ _____    ______ ____
ROOT
ATOM      1  C   UNL     1       6.451   5.002  18.091  0.00  0.00    +0.000 C 
ATOM      2  C   UNL     1       5.653   4.824  19.349  0.00  0.00    +0.000 C 
ATOM      3  O   UNL     1       4.997   3.612  19.485  0.00  0.00    +0.000 OA
ATOM      4  C   UNL     1       3.748   3.868  19.870  0.00  0.00    +0.000 A 
ATOM      5  N   UNL     1       2.878   2.952  20.370  0.00  0.00    +0.000 NA
ATOM      6  C   UNL     1       1.635   3.350  20.764  0.00  0.00    +0.000 A 
ATOM      7  N   UNL     1       0.810   2.496  21.252  0.00  0.00    +0.000 NA
ATOM      8  C   UNL     1       1.253   4.701  20.642  0.00  0.00    +0.000 A 
ATOM      9  C   UNL     1       2.173   5.613  20.113  0.00  0.00    +0.000 A 
ATOM     10  N   UNL     1       3.404   5.157  19.759  0.00  0.00    +0.000 N 
ATOM     11  C   UNL     1       4.531   5.856  19.181  0.00  0.00    +0.000 C 
ATOM     12  O   UNL     1       4.311   6.046  17.791  0.00  0.00    +0.000 OA
ATOM     13  C   UNL     1       5.397   5.459  17.086  0.00  0.00    +0.000 C 
ATOM     14  H   UNL     1       1.067   1.502  21.352  0.00  0.00    +0.000 HD
ENDROOT
BRANCH   1  15
ATOM     15  O   UNL     1       7.356   6.033  18.273  0.00  0.00    +0.000 OA
BRANCH  15  17
ATOM     16  C   UNL     1       7.754   8.378  17.663  0.00  0.00    +0.000 C 
ATOM     17  C   UNL     1       7.669   6.935  17.308  0.00  0.00    +0.000 C 
ATOM     18  O   UNL     1       7.849   6.584  16.148  0.00  0.00    +0.000 OA
ENDBRANCH  15  17
ENDBRANCH   1  15
BRANCH  13  19
ATOM     19  C   UNL     1       4.938   4.297  16.193  0.00  0.00    +0.000 C 
BRANCH  19  20
ATOM     20  O   UNL     1       5.721   3.156  16.420  0.00  0.00    +0.000 OA
ATOM     21  H   UNL     1       5.759   2.663  15.562  0.00  0.00    +0.000 HD
ENDBRANCH  19  20
ENDBRANCH  13  19
TORSDOF 4
ENDMDL
MODEL 5
REMARK VINA RESULT:      -6.9      2.050      3.659
REMARK  Name = 
REMARK  5 active torsions:
REMARK  status: ('A' for Active; 'I' for Inactive)
REMARK    1  A    between atoms: C_1  and  C_2
REMARK    2  A    between atoms: C_2  and  O_4
REMARK    3  A    between atoms: O_4  and  C_5
REMARK    4  A    between atoms: C_17  and  C_18
REMARK    5  A    between atoms: C_18  and  O_19
REMARK                            x       y       z     vdW  Elec       q    Type
REMARK                         _______ _______ _______ _____ _____    ______ ____
ROOT
ATOM      1  C   UNL     1       6.950   5.996  17.195  0.00  0.00    +0.000 C 
ATOM      2  C   UNL     1       5.853   5.866  18.210  0.00  0.00    +0.000 C 
ATOM      3  O   UNL     1       5.686   4.608  18.765  0.00  0.00    +0.000 OA
ATOM      4  C   UNL     1       4.386   4.322  18.737  0.00  0.00    +0.000 A 
ATOM      5  N   UNL     1       3.789   3.316  19.428  0.00  0.00    +0.000 NA
ATOM      6  C   UNL     1       2.439   3.149  19.343  0.00  0.00    +0.000 A 
ATOM      7  N   UNL     1       1.863   2.212  20.003  0.00  0.00    +0.000 NA
ATOM      8  C   UNL     1       1.670   4.010  18.534  0.00  0.00    +0.000 A 
ATOM      9  C   UNL     1       2.322   5.028  17.829  0.00  0.00    +0.000 A 
ATOM     10  N   UNL     1       3.667   5.155  17.973  0.00  0.00    +0.000 N 
ATOM     11  C   UNL     1       4.591   6.088  17.366  0.00  0.00    +0.000 C 
ATOM     12  O   UNL     1       4.872   5.681  16.035  0.00  0.00    +0.000 OA
ATOM     13  C   UNL     1       6.279   5.515  15.911  0.00  0.00    +0.000 C 
ATOM     14  H   UNL     1       2.404   1.570  20.604  0.00  0.00    +0.000 HD
ENDROOT
BRANCH   1  15
ATOM     15  O   UNL     1       7.271   7.333  17.045  0.00  0.00    +0.000 OA
BRANCH  15  17
ATOM     16  C   UNL     1       8.131   9.510  17.789  0.00  0.00    +0.000 C 
ATOM     17  C   UNL     1       8.002   8.035  17.949  0.00  0.00    +0.000 C 
ATOM     18  O   UNL     1       8.582   7.471  18.868  0.00  0.00    +0.000 OA
ENDBRANCH  15  17
ENDBRANCH   1  15
BRANCH  13  19
ATOM     19  C   UNL     1       6.659   4.062  15.592  0.00  0.00    +0.000 C 
BRANCH  19  20
ATOM     20  O   UNL     1       5.660   3.180  16.030  0.00  0.00    +0.000 OA
ATOM     21  H   UNL     1       4.889   3.739  16.303  0.00  0.00    +0.000 HD
ENDBRANCH  19  20
ENDBRANCH  13  19
TORSDOF 4
ENDMDL
MODEL 6
REMARK VINA RESULT:      -6.8      2.162      2.694
REMARK  Name = 
REMARK  5 active torsions:
REMARK  status: ('A' for Active; 'I' for Inactive)
REMARK    1  A    between atoms: C_1  and  C_2
REMARK    2  A    between atoms: C_2  and  O_4
REMARK    3  A    between atoms: O_4  and  C_5
REMARK    4  A    between atoms: C_17  and  C_18
REMARK    5  A    between atoms: C_18  and  O_19
REMARK                            x       y       z     vdW  Elec       q    Type
REMARK                         _______ _______ _______ _____ _____    ______ ____
ROOT
ATOM      1  C   UNL     1       5.242   5.202  16.169  0.00  0.00    +0.000 C 
ATOM      2  C   UNL     1       4.535   3.981  16.682  0.00  0.00    +0.000 C 
ATOM      3  O   UNL     1       3.152   4.036  16.679  0.00  0.00    +0.000 OA
ATOM      4  C   UNL     1       2.728   3.603  17.866  0.00  0.00    +0.000 A 
ATOM      5  N   UNL     1       1.450   3.248  18.160  0.00  0.00    +0.000 NA
ATOM      6  C   UNL     1       1.150   2.784  19.406  0.00  0.00    +0.000 A 
ATOM      7  N   UNL     1      -0.051   2.432  19.691  0.00  0.00    +0.000 NA
ATOM      8  C   UNL     1       2.159   2.684  20.385  0.00  0.00    +0.000 A 
ATOM      9  C   UNL     1       3.462   3.069  20.047  0.00  0.00    +0.000 A 
ATOM     10  N   UNL     1       3.699   3.503  18.781  0.00  0.00    +0.000 N 
ATOM     11  C   UNL     1       4.922   3.971  18.166  0.00  0.00    +0.000 C 
ATOM     12  O   UNL     1       5.172   5.311  18.566  0.00  0.00    +0.000 OA
ATOM     13  C   UNL     1       5.275   6.111  17.395  0.00  0.00    +0.000 C 
ATOM     14  H   UNL     1      -0.807   2.494  18.990  0.00  0.00    +0.000 HD
ENDROOT
BRANCH   1  15
ATOM     15  O   UNL     1       6.543   4.866  15.841  0.00  0.00    +0.000 OA
BRANCH  15  17
ATOM     16  C   UNL     1       6.361   3.931  13.577  0.00  0.00    +0.000 C 
ATOM     17  C   UNL     1       7.012   4.834  14.566  0.00  0.00    +0.000 C 
ATOM     18  O   UNL     1       7.977   5.508  14.230  0.00  0.00    +0.000 OA
ENDBRANCH  15  17
ENDBRANCH   1  15
BRANCH  13  19
ATOM     19  C   UNL     1       4.169   7.175  17.330  0.00  0.00    +0.000 C 
BRANCH  19  20
ATOM     20  O   UNL     1       3.112   6.847  18.192  0.00  0.00    +0.000 OA
ATOM     21  H   UNL     1       3.409   7.086  19.106  0.00  0.00    +0.000 HD
ENDBRANCH  19  20
ENDBRANCH  13  19
TORSDOF 4
ENDMDL
MODEL 7
REMARK VINA RESULT:      -6.8      2.724      5.903
REMARK  Name = 
REMARK  5 active torsions:
REMARK  status: ('A' for Active; 'I' for Inactive)
REMARK    1  A    between atoms: C_1  and  C_2
REMARK    2  A    between atoms: C_2  and  O_4
REMARK    3  A    between atoms: O_4  and  C_5
REMARK    4  A    between atoms: C_17  and  C_18
REMARK    5  A    between atoms: C_18  and  O_19
REMARK                            x       y       z     vdW  Elec       q    Type
REMARK                         _______ _______ _______ _____ _____    ______ ____
ROOT
ATOM      1  C   UNL     1       3.965   4.105  19.615  0.00  0.00    +0.000 C 
ATOM      2  C   UNL     1       4.974   3.642  18.604  0.00  0.00    +0.000 C 
ATOM      3  O   UNL     1       5.953   4.558  18.262  0.00  0.00    +0.000 OA
ATOM      4  C   UNL     1       6.051   4.568  16.933  0.00  0.00    +0.000 A 
ATOM      5  N   UNL     1       7.071   5.120  16.226  0.00  0.00    +0.000 NA
ATOM      6  C   UNL     1       7.073   5.031  14.866  0.00  0.00    +0.000 A 
ATOM      7  N   UNL     1       8.039   5.536  14.189  0.00  0.00    +0.000 NA
ATOM      8  C   UNL     1       6.016   4.380  14.199  0.00  0.00    +0.000 A 
ATOM      9  C   UNL     1       4.978   3.832  14.961  0.00  0.00    +0.000 A 
ATOM     10  N   UNL     1       5.046   3.936  16.314  0.00  0.00    +0.000 N 
ATOM     11  C   UNL     1       4.126   3.485  17.335  0.00  0.00    +0.000 C 
ATOM     12  O   UNL     1       3.032   4.388  17.421  0.00  0.00    +0.000 OA
ATOM     13  C   UNL     1       2.956   4.865  18.758  0.00  0.00    +0.000 C 
ATOM     14  H   UNL     1       8.825   6.017  14.655  0.00  0.00    +0.000 HD
ENDROOT
BRANCH   1  15
ATOM     15  O   UNL     1       3.332   3.002  20.158  0.00  0.00    +0.000 OA
BRANCH  15  17
ATOM     16  C   UNL     1       0.900   2.900  20.486  0.00  0.00    +0.000 C 
ATOM     17  C   UNL     1       2.280   3.086  21.014  0.00  0.00    +0.000 C 
ATOM     18  O   UNL     1       2.447   3.345  22.199  0.00  0.00    +0.000 OA
ENDBRANCH  15  17
ENDBRANCH   1  15
BRANCH  13  19
ATOM     19  C   UNL     1       3.187   6.381  18.838  0.00  0.00    +0.000 C 
BRANCH  19  20
ATOM     20  O   UNL     1       2.693   6.896  20.046  0.00  0.00    +0.000 OA
ATOM     21  H   UNL     1       3.267   6.529  20.765  0.00  0.00    +0.000 HD
ENDBRANCH  19  20
ENDBRANCH  13  19
TORSDOF 4
ENDMDL
MODEL 8
REMARK VINA RESULT:      -6.8      1.733      2.032
REMARK  Name = 
REMARK  5 active torsions:
REMARK  status: ('A' for Active; 'I' for Inactive)
REMARK    1  A    between atoms: C_1  and  C_2
REMARK    2  A    between atoms: C_2  and  O_4
REMARK    3  A    between atoms: O_4  and  C_5
REMARK    4  A    between atoms: C_17  and  C_18
REMARK    5  A    between atoms: C_18  and  O_19
REMARK                            x       y       z     vdW  Elec       q    Type
REMARK                         _______ _______ _______ _____ _____    ______ ____
ROOT
ATOM      1  C   UNL     1       5.532   5.778  16.479  0.00  0.00    +0.000 C 
ATOM      2  C   UNL     1       4.108   5.381  16.739  0.00  0.00    +0.000 C 
ATOM      3  O   UNL     1       3.629   5.643  18.012  0.00  0.00    +0.000 OA
ATOM      4  C   UNL     1       3.004   4.549  18.442  0.00  0.00    +0.000 A 
ATOM      5  N   UNL     1       2.172   4.491  19.514  0.00  0.00    +0.000 NA
ATOM      6  C   UNL     1       1.562   3.314  19.831  0.00  0.00    +0.000 A 
ATOM      7  N   UNL     1       0.762   3.251  20.832  0.00  0.00    +0.000 NA
ATOM      8  C   UNL     1       1.804   2.161  19.056  0.00  0.00    +0.000 A 
ATOM      9  C   UNL     1       2.676   2.257  17.965  0.00  0.00    +0.000 A 
ATOM     10  N   UNL     1       3.235   3.465  17.689  0.00  0.00    +0.000 N 
ATOM     11  C   UNL     1       4.168   3.851  16.653  0.00  0.00    +0.000 C 
ATOM     12  O   UNL     1       5.478   3.439  17.016  0.00  0.00    +0.000 OA
ATOM     13  C   UNL     1       6.317   4.587  17.021  0.00  0.00    +0.000 C 
ATOM     14  H   UNL     1       0.567   4.082  21.413  0.00  0.00    +0.000 HD
ENDROOT
BRANCH   1  15
ATOM     15  O   UNL     1       5.738   5.850  15.113  0.00  0.00    +0.000 OA
BRANCH  15  17
ATOM     16  C   UNL     1       6.338   3.982  13.635  0.00  0.00    +0.000 C 
ATOM     17  C   UNL     1       6.712   5.161  14.463  0.00  0.00    +0.000 C 
ATOM     18  O   UNL     1       7.891   5.475  14.576  0.00  0.00    +0.000 OA
ENDBRANCH  15  17
ENDBRANCH   1  15
BRANCH  13  19
ATOM     19  C   UNL     1       6.879   4.879  18.421  0.00  0.00    +0.000 C 
BRANCH  19  20
ATOM     20  O   UNL     1       6.108   4.247  19.407  0.00  0.00    +0.000 OA
ATOM     21  H   UNL     1       6.719   4.054  20.163  0.00  0.00    +0.000 HD
ENDBRANCH  19  20
ENDBRANCH  13  19
TORSDOF 4
ENDMDL
MODEL 9
REMARK VINA RESULT:      -6.8      1.296      1.370
REMARK  Name = 
REMARK  5 active torsions:
REMARK  status: ('A' for Active; 'I' for Inactive)
REMARK    1  A    between atoms: C_1  and  C_2
REMARK    2  A    between atoms: C_2  and  O_4
REMARK    3  A    between atoms: O_4  and  C_5
REMARK    4  A    between atoms: C_17  and  C_18
REMARK    5  A    between atoms: C_18  and  O_19
REMARK                            x       y       z     vdW  Elec       q    Type
REMARK                         _______ _______ _______ _____ _____    ______ ____
ROOT
ATOM      1  C   UNL     1       7.059   5.396  16.217  0.00  0.00    +0.000 C 
ATOM      2  C   UNL     1       5.629   5.841  16.126  0.00  0.00    +0.000 C 
ATOM      3  O   UNL     1       5.331   7.050  16.731  0.00  0.00    +0.000 OA
ATOM      4  C   UNL     1       4.227   6.879  17.456  0.00  0.00    +0.000 A 
ATOM      5  N   UNL     1       3.466   7.878  17.973  0.00  0.00    +0.000 NA
ATOM      6  C   UNL     1       2.335   7.571  18.670  0.00  0.00    +0.000 A 
ATOM      7  N   UNL     1       1.600   8.507  19.150  0.00  0.00    +0.000 NA
ATOM      8  C   UNL     1       1.966   6.224  18.861  0.00  0.00    +0.000 A 
ATOM      9  C   UNL     1       2.782   5.222  18.322  0.00  0.00    +0.000 A 
ATOM     10  N   UNL     1       3.884   5.595  17.620  0.00  0.00    +0.000 N 
ATOM     11  C   UNL     1       4.899   4.792  16.975  0.00  0.00    +0.000 C 
ATOM     12  O   UNL     1       5.809   4.302  17.950  0.00  0.00    +0.000 OA
ATOM     13  C   UNL     1       7.117   4.726  17.588  0.00  0.00    +0.000 C 
ATOM     14  H   UNL     1       1.849   9.501  19.022  0.00  0.00    +0.000 HD
ENDROOT
BRANCH   1  15
ATOM     15  O   UNL     1       7.295   4.433  15.252  0.00  0.00    +0.000 OA
BRANCH  15  17
ATOM     16  C   UNL     1       6.221   3.777  13.143  0.00  0.00    +0.000 C 
ATOM     17  C   UNL     1       7.141   4.652  13.920  0.00  0.00    +0.000 C 
ATOM     18  O   UNL     1       7.770   5.532  13.347  0.00  0.00    +0.000 OA
ENDBRANCH  15  17
ENDBRANCH   1  15
BRANCH  13  19
ATOM     19  C   UNL     1       7.726   5.663  18.641  0.00  0.00    +0.000 C 
BRANCH  19  20
ATOM     20  O   UNL     1       7.162   5.426  19.903  0.00  0.00    +0.000 OA
ATOM     21  H   UNL     1       6.861   6.305  20.247  0.00  0.00    +0.000 HD
ENDBRANCH  19  20
ENDBRANCH  13  19
TORSDOF 4
ENDMDL
