MODEL 1
REMARK VINA RESULT:      -7.4      0.000      0.000
REMARK  Name = 
REMARK  17 active torsions:
REMARK  status: ('A' for Active; 'I' for Inactive)
REMARK    1  A    between atoms: C_1  and  C_2
REMARK    2  A    between atoms: C_2  and  N_3
REMARK    3  A    between atoms: C_2  and  C_26
REMARK    4  A    between atoms: C_4  and  C_6
REMARK    5  A    between atoms: C_6  and  C_7
REMARK    6  A    between atoms: C_7  and  C_8
REMARK    7  A    between atoms: C_8  and  C_9
REMARK    8  A    between atoms: C_9  and  N_10
REMARK    9  A    between atoms: C_9  and  C_23
REMARK   10  A    between atoms: N_13  and  C_14
REMARK   11  A    between atoms: C_14  and  C_15
REMARK   12  A    between atoms: C_14  and  C_20
REMARK   13  A    between atoms: C_15  and  C_16
REMARK   14  A    between atoms: C_16  and  C_17
REMARK   15  A    between atoms: C_17  and  O_19
REMARK   16  A    between atoms: C_20  and  O_22
REMARK   17  A    between atoms: C_23  and  O_25
REMARK                            x       y       z     vdW  Elec       q    Type
REMARK                         _______ _______ _______ _____ _____    ______ ____
ROOT
ATOM      1  C   UNK A   1       2.372   4.235  19.712  0.00  0.00    +0.000 C 
ENDROOT
BRANCH   1   2
ATOM      2  N   UNK A   1       3.386   5.012  19.010  0.00  0.00    +0.000 N 
ATOM      3  C   UNK A   0       4.694   4.642  19.087  0.00  0.00    +0.000 C 
ATOM      4  O   UNK A   0       5.102   3.756  19.830  0.00  0.00    +0.000 OA
ATOM      5  N   UNK A   1       5.493   5.306  18.210  0.00  0.00    +0.000 N 
ATOM      6  H   UNK A   1       3.075   5.629  18.269  0.00  0.00    +0.000 HD
ATOM      7  H   UNK A   1       5.210   6.232  17.906  0.00  0.00    +0.000 HD
BRANCH   5   8
ATOM      8  C   UNK A   1       6.914   4.976  18.111  0.00  0.00    +0.000 C 
BRANCH   8   9
ATOM      9  C   UNK A   1       7.718   5.900  19.030  0.00  0.00    +0.000 C 
ATOM     10  O   UNK A   1       8.224   6.948  18.652  0.00  0.00    +0.000 OA
BRANCH   9  11
ATOM     11  O   UNK A   1       7.844   5.452  20.298  0.00  0.00    +0.000 OA
ATOM     12  H   UNK A   1       7.736   6.129  20.994  0.00  0.00    +0.000 HD
ENDBRANCH   9  11
ENDBRANCH   8   9
BRANCH   8  13
ATOM     13  C   UNK A   1       7.393   5.069  16.656  0.00  0.00    +0.000 C 
BRANCH  13  14
ATOM     14  C   UNK A   1       6.687   4.070  15.733  0.00  0.00    +0.000 C 
BRANCH  14  15
ATOM     15  C   UNK A   1       5.764   4.760  14.760  0.00  0.00    +0.000 C 
ATOM     16  O   UNK A   1       5.284   4.245  13.768  0.00  0.00    +0.000 OA
BRANCH  15  17
ATOM     17  O   UNK A   1       5.541   6.051  15.096  0.00  0.00    +0.000 OA
ATOM     18  H   UNK A   1       5.438   6.652  14.332  0.00  0.00    +0.000 HD
ENDBRANCH  15  17
ENDBRANCH  14  15
ENDBRANCH  13  14
ENDBRANCH   8  13
ENDBRANCH   5   8
ENDBRANCH   1   2
BRANCH   1  19
ATOM     19  C   UNK A   1       1.431   3.595  18.687  0.00  0.00    +0.000 C 
ATOM     20  O   UNK A   1       0.701   2.645  18.941  0.00  0.00    +0.000 OA
BRANCH  19  21
ATOM     21  O   UNK A   1       1.395   4.227  17.492  0.00  0.00    +0.000 OA
ATOM     22  H   UNK A   1       1.493   3.650  16.709  0.00  0.00    +0.000 HD
ENDBRANCH  19  21
ENDBRANCH   1  19
BRANCH   1  23
ATOM     23  C   UNK A   1       1.712   5.041  20.835  0.00  0.00    +0.000 C 
BRANCH  23  24
ATOM     24  C   UNK A   1       0.943   6.319  20.458  0.00  0.00    +0.000 C 
BRANCH  24  25
ATOM     25  C   UNK A   1       1.563   7.646  20.902  0.00  0.00    +0.000 C 
BRANCH  25  27
ATOM     26  N   UNK A   1       0.593   9.755  20.170  0.00  0.00    +0.000 N 
ATOM     27  C   UNK A   1       0.577   8.777  21.136  0.00  0.00    +0.000 C 
ATOM     28  O   UNK A   1      -0.172   8.799  22.107  0.00  0.00    +0.000 OA
ATOM     29  H   UNK A   1       1.058   9.561  19.297  0.00  0.00    +0.000 HD
BRANCH  26  31
ATOM     30  C   UNK A   1       0.472  12.194  20.190  0.00  0.00    +0.000 C 
ATOM     31  C   UNK A   1      -0.319  10.884  20.200  0.00  0.00    +0.000 C 
BRANCH  31  32
ATOM     32  C   UNK A   1      -1.283  10.803  19.030  0.00  0.00    +0.000 A 
ATOM     33  C   UNK A   1      -2.439  11.594  19.026  0.00  0.00    +0.000 A 
ATOM     34  C   UNK A   1      -3.325  11.550  17.947  0.00  0.00    +0.000 A 
ATOM     35  C   UNK A   1      -3.059  10.709  16.878  0.00  0.00    +0.000 A 
ATOM     36  F   UNK A   1      -3.905  10.671  15.837  0.00  0.00    +0.000 F 
ATOM     37  C   UNK A   1      -1.929   9.898  16.867  0.00  0.00    +0.000 A 
ATOM     38  C   UNK A   1      -1.043   9.943  17.941  0.00  0.00    +0.000 A 
ENDBRANCH  31  32
ENDBRANCH  26  31
ENDBRANCH  25  27
ENDBRANCH  24  25
ENDBRANCH  23  24
ENDBRANCH   1  23
TORSDOF 16
ENDMDL
MODEL 2
REMARK VINA RESULT:      -7.3      5.789      8.790
REMARK  Name = 
REMARK  17 active torsions:
REMARK  status: ('A' for Active; 'I' for Inactive)
REMARK    1  A    between atoms: C_1  and  C_2
REMARK    2  A    between atoms: C_2  and  N_3
REMARK    3  A    between atoms: C_2  and  C_26
REMARK    4  A    between atoms: C_4  and  C_6
REMARK    5  A    between atoms: C_6  and  C_7
REMARK    6  A    between atoms: C_7  and  C_8
REMARK    7  A    between atoms: C_8  and  C_9
REMARK    8  A    between atoms: C_9  and  N_10
REMARK    9  A    between atoms: C_9  and  C_23
REMARK   10  A    between atoms: N_13  and  C_14
REMARK   11  A    between atoms: C_14  and  C_15
REMARK   12  A    between atoms: C_14  and  C_20
REMARK   13  A    between atoms: C_15  and  C_16
REMARK   14  A    between atoms: C_16  and  C_17
REMARK   15  A    between atoms: C_17  and  O_19
REMARK   16  A    between atoms: C_20  and  O_22
REMARK   17  A    between atoms: C_23  and  O_25
REMARK                            x       y       z     vdW  Elec       q    Type
REMARK                         _______ _______ _______ _____ _____    ______ ____
ROOT
ATOM      1  C   UNK A   1       6.760   6.486  17.750  0.00  0.00    +0.000 C 
ENDROOT
BRANCH   1   2
ATOM      2  N   UNK A   1       6.572   5.233  18.470  0.00  0.00    +0.000 N 
ATOM      3  C   UNK A   0       5.316   4.813  18.781  0.00  0.00    +0.000 C 
ATOM      4  O   UNK A   0       4.313   5.498  18.608  0.00  0.00    +0.000 OA
ATOM      5  N   UNK A   1       5.274   3.534  19.241  0.00  0.00    +0.000 N 
ATOM      6  H   UNK A   1       7.344   4.576  18.478  0.00  0.00    +0.000 HD
ATOM      7  H   UNK A   1       6.098   3.160  19.700  0.00  0.00    +0.000 HD
BRANCH   5   8
ATOM      8  C   UNK A   1       3.992   2.902  19.551  0.00  0.00    +0.000 C 
BRANCH   8   9
ATOM      9  C   UNK A   1       4.063   2.262  20.940  0.00  0.00    +0.000 C 
ATOM     10  O   UNK A   1       3.157   2.334  21.759  0.00  0.00    +0.000 OA
BRANCH   9  11
ATOM     11  O   UNK A   1       5.224   1.622  21.201  0.00  0.00    +0.000 OA
ATOM     12  H   UNK A   1       5.283   0.707  20.865  0.00  0.00    +0.000 HD
ENDBRANCH   9  11
ENDBRANCH   8   9
BRANCH   8  13
ATOM     13  C   UNK A   1       3.617   1.877  18.473  0.00  0.00    +0.000 C 
BRANCH  13  14
ATOM     14  C   UNK A   1       2.493   2.367  17.554  0.00  0.00    +0.000 C 
BRANCH  14  15
ATOM     15  C   UNK A   1       1.468   3.179  18.306  0.00  0.00    +0.000 C 
ATOM     16  O   UNK A   1       0.665   2.725  19.101  0.00  0.00    +0.000 OA
BRANCH  15  17
ATOM     17  O   UNK A   1       1.513   4.490  17.978  0.00  0.00    +0.000 OA
ATOM     18  H   UNK A   1       1.858   5.068  18.684  0.00  0.00    +0.000 HD
ENDBRANCH  15  17
ENDBRANCH  14  15
ENDBRANCH  13  14
ENDBRANCH   8  13
ENDBRANCH   5   8
ENDBRANCH   1   2
BRANCH   1  19
ATOM     19  C   UNK A   1       6.596   6.232  16.249  0.00  0.00    +0.000 C 
ATOM     20  O   UNK A   1       7.433   5.658  15.565  0.00  0.00    +0.000 OA
BRANCH  19  21
ATOM     21  O   UNK A   1       5.397   6.609  15.746  0.00  0.00    +0.000 OA
ATOM     22  H   UNK A   1       4.770   5.882  15.567  0.00  0.00    +0.000 HD
ENDBRANCH  19  21
ENDBRANCH   1  19
BRANCH   1  23
ATOM     23  C   UNK A   1       8.039   7.208  18.184  0.00  0.00    +0.000 C 
BRANCH  23  24
ATOM     24  C   UNK A   1       8.137   8.724  17.943  0.00  0.00    +0.000 C 
BRANCH  24  25
ATOM     25  C   UNK A   1       8.908   9.535  18.988  0.00  0.00    +0.000 C 
BRANCH  25  27
ATOM     26  N   UNK A   1      10.601  11.284  18.995  0.00  0.00    +0.000 N 
ATOM     27  C   UNK A   1       9.361  10.912  18.535  0.00  0.00    +0.000 C 
ATOM     28  O   UNK A   1       8.668  11.621  17.812  0.00  0.00    +0.000 OA
ATOM     29  H   UNK A   1      11.203  10.574  19.383  0.00  0.00    +0.000 HD
BRANCH  26  31
ATOM     30  C   UNK A   1      11.115  12.744  17.107  0.00  0.00    +0.000 C 
ATOM     31  C   UNK A   1      11.218  12.543  18.620  0.00  0.00    +0.000 C 
BRANCH  31  32
ATOM     32  C   UNK A   1      10.571  13.685  19.382  0.00  0.00    +0.000 A 
ATOM     33  C   UNK A   1      10.504  13.639  20.781  0.00  0.00    +0.000 A 
ATOM     34  C   UNK A   1       9.933  14.691  21.499  0.00  0.00    +0.000 A 
ATOM     35  C   UNK A   1       9.422  15.785  20.820  0.00  0.00    +0.000 A 
ATOM     36  F   UNK A   1       8.881  16.802  21.508  0.00  0.00    +0.000 F 
ATOM     37  C   UNK A   1       9.457  15.847  19.431  0.00  0.00    +0.000 A 
ATOM     38  C   UNK A   1      10.029  14.799  18.712  0.00  0.00    +0.000 A 
ENDBRANCH  31  32
ENDBRANCH  26  31
ENDBRANCH  25  27
ENDBRANCH  24  25
ENDBRANCH  23  24
ENDBRANCH   1  23
TORSDOF 16
ENDMDL
MODEL 3
REMARK VINA RESULT:      -7.2      5.484      8.668
REMARK  Name = 
REMARK  17 active torsions:
REMARK  status: ('A' for Active; 'I' for Inactive)
REMARK    1  A    between atoms: C_1  and  C_2
REMARK    2  A    between atoms: C_2  and  N_3
REMARK    3  A    between atoms: C_2  and  C_26
REMARK    4  A    between atoms: C_4  and  C_6
REMARK    5  A    between atoms: C_6  and  C_7
REMARK    6  A    between atoms: C_7  and  C_8
REMARK    7  A    between atoms: C_8  and  C_9
REMARK    8  A    between atoms: C_9  and  N_10
REMARK    9  A    between atoms: C_9  and  C_23
REMARK   10  A    between atoms: N_13  and  C_14
REMARK   11  A    between atoms: C_14  and  C_15
REMARK   12  A    between atoms: C_14  and  C_20
REMARK   13  A    between atoms: C_15  and  C_16
REMARK   14  A    between atoms: C_16  and  C_17
REMARK   15  A    between atoms: C_17  and  O_19
REMARK   16  A    between atoms: C_20  and  O_22
REMARK   17  A    between atoms: C_23  and  O_25
REMARK                            x       y       z     vdW  Elec       q    Type
REMARK                         _______ _______ _______ _____ _____    ______ ____
ROOT
ATOM      1  C   UNK A   1       6.466   6.360  16.464  0.00  0.00    +0.000 C 
ENDROOT
BRANCH   1   2
ATOM      2  N   UNK A   1       5.088   5.894  16.560  0.00  0.00    +0.000 N 
ATOM      3  C   UNK A   0       4.766   4.916  17.450  0.00  0.00    +0.000 C 
ATOM      4  O   UNK A   0       5.600   4.293  18.099  0.00  0.00    +0.000 OA
ATOM      5  N   UNK A   1       3.426   4.742  17.598  0.00  0.00    +0.000 N 
ATOM      6  H   UNK A   1       4.363   6.487  16.173  0.00  0.00    +0.000 HD
ATOM      7  H   UNK A   1       2.820   4.987  16.821  0.00  0.00    +0.000 HD
BRANCH   5   8
ATOM      8  C   UNK A   1       2.908   3.781  18.570  0.00  0.00    +0.000 C 
BRANCH   8   9
ATOM      9  C   UNK A   1       2.941   2.375  17.965  0.00  0.00    +0.000 C 
ATOM     10  O   UNK A   1       2.118   1.974  17.154  0.00  0.00    +0.000 OA
BRANCH   9  11
ATOM     11  O   UNK A   1       3.947   1.596  18.418  0.00  0.00    +0.000 OA
ATOM     12  H   UNK A   1       4.539   2.015  19.073  0.00  0.00    +0.000 HD
ENDBRANCH   9  11
ENDBRANCH   8   9
BRANCH   8  13
ATOM     13  C   UNK A   1       1.494   4.171  19.019  0.00  0.00    +0.000 C 
BRANCH  13  14
ATOM     14  C   UNK A   1       1.064   3.465  20.310  0.00  0.00    +0.000 C 
BRANCH  14  15
ATOM     15  C   UNK A   1       2.003   3.764  21.452  0.00  0.00    +0.000 C 
ATOM     16  O   UNK A   1       2.322   2.973  22.320  0.00  0.00    +0.000 OA
BRANCH  15  17
ATOM     17  O   UNK A   1       2.444   5.043  21.429  0.00  0.00    +0.000 OA
ATOM     18  H   UNK A   1       2.271   5.511  20.590  0.00  0.00    +0.000 HD
ENDBRANCH  15  17
ENDBRANCH  14  15
ENDBRANCH  13  14
ENDBRANCH   8  13
ENDBRANCH   5   8
ENDBRANCH   1   2
BRANCH   1  19
ATOM     19  C   UNK A   1       7.322   5.267  15.818  0.00  0.00    +0.000 C 
ATOM     20  O   UNK A   1       7.466   5.149  14.608  0.00  0.00    +0.000 OA
BRANCH  19  21
ATOM     21  O   UNK A   1       7.994   4.490  16.698  0.00  0.00    +0.000 OA
ATOM     22  H   UNK A   1       8.765   4.911  17.126  0.00  0.00    +0.000 HD
ENDBRANCH  19  21
ENDBRANCH   1  19
BRANCH   1  23
ATOM     23  C   UNK A   1       6.971   6.925  17.794  0.00  0.00    +0.000 C 
BRANCH  23  24
ATOM     24  C   UNK A   1       8.188   7.865  17.771  0.00  0.00    +0.000 C 
BRANCH  24  25
ATOM     25  C   UNK A   1       7.894   9.367  17.789  0.00  0.00    +0.000 C 
BRANCH  25  27
ATOM     26  N   UNK A   1       9.281  11.366  17.867  0.00  0.00    +0.000 N 
ATOM     27  C   UNK A   1       8.911  10.219  18.528  0.00  0.00    +0.000 C 
ATOM     28  O   UNK A   1       9.352   9.900  19.627  0.00  0.00    +0.000 OA
ATOM     29  H   UNK A   1       8.716  11.678  17.092  0.00  0.00    +0.000 HD
BRANCH  26  31
ATOM     30  C   UNK A   1      11.557  12.240  17.742  0.00  0.00    +0.000 C 
ATOM     31  C   UNK A   1      10.202  12.327  18.446  0.00  0.00    +0.000 C 
BRANCH  31  32
ATOM     32  C   UNK A   1       9.615  13.724  18.360  0.00  0.00    +0.000 A 
ATOM     33  C   UNK A   1      10.339  14.746  17.731  0.00  0.00    +0.000 A 
ATOM     34  C   UNK A   1       9.804  16.031  17.622  0.00  0.00    +0.000 A 
ATOM     35  C   UNK A   1       8.550  16.297  18.149  0.00  0.00    +0.000 A 
ATOM     36  F   UNK A   1       8.031  17.530  18.038  0.00  0.00    +0.000 F 
ATOM     37  C   UNK A   1       7.820  15.307  18.797  0.00  0.00    +0.000 A 
ATOM     38  C   UNK A   1       8.350  14.023  18.904  0.00  0.00    +0.000 A 
ENDBRANCH  31  32
ENDBRANCH  26  31
ENDBRANCH  25  27
ENDBRANCH  24  25
ENDBRANCH  23  24
ENDBRANCH   1  23
TORSDOF 16
ENDMDL
MODEL 4
REMARK VINA RESULT:      -7.1      5.573      8.768
REMARK  Name = 
REMARK  17 active torsions:
REMARK  status: ('A' for Active; 'I' for Inactive)
REMARK    1  A    between atoms: C_1  and  C_2
REMARK    2  A    between atoms: C_2  and  N_3
REMARK    3  A    between atoms: C_2  and  C_26
REMARK    4  A    between atoms: C_4  and  C_6
REMARK    5  A    between atoms: C_6  and  C_7
REMARK    6  A    between atoms: C_7  and  C_8
REMARK    7  A    between atoms: C_8  and  C_9
REMARK    8  A    between atoms: C_9  and  N_10
REMARK    9  A    between atoms: C_9  and  C_23
REMARK   10  A    between atoms: N_13  and  C_14
REMARK   11  A    between atoms: C_14  and  C_15
REMARK   12  A    between atoms: C_14  and  C_20
REMARK   13  A    between atoms: C_15  and  C_16
REMARK   14  A    between atoms: C_16  and  C_17
REMARK   15  A    between atoms: C_17  and  O_19
REMARK   16  A    between atoms: C_20  and  O_22
REMARK   17  A    between atoms: C_23  and  O_25
REMARK                            x       y       z     vdW  Elec       q    Type
REMARK                         _______ _______ _______ _____ _____    ______ ____
ROOT
ATOM      1  C   UNK A   1       6.575   6.320  17.387  0.00  0.00    +0.000 C 
ENDROOT
BRANCH   1   2
ATOM      2  N   UNK A   1       5.701   5.565  18.277  0.00  0.00    +0.000 N 
ATOM      3  C   UNK A   0       4.366   5.825  18.294  0.00  0.00    +0.000 C 
ATOM      4  O   UNK A   0       3.853   6.763  17.693  0.00  0.00    +0.000 OA
ATOM      5  N   UNK A   1       3.647   4.904  18.988  0.00  0.00    +0.000 N 
ATOM      6  H   UNK A   1       6.054   4.691  18.650  0.00  0.00    +0.000 HD
ATOM      7  H   UNK A   1       4.108   4.397  19.737  0.00  0.00    +0.000 HD
BRANCH   5   8
ATOM      8  C   UNK A   1       2.188   4.994  19.044  0.00  0.00    +0.000 C 
BRANCH   8   9
ATOM      9  C   UNK A   1       1.696   4.478  20.399  0.00  0.00    +0.000 C 
ATOM     10  O   UNK A   1       2.313   4.640  21.443  0.00  0.00    +0.000 OA
BRANCH   9  11
ATOM     11  O   UNK A   1       0.527   3.804  20.348  0.00  0.00    +0.000 OA
ATOM     12  H   UNK A   1      -0.210   4.275  19.912  0.00  0.00    +0.000 HD
ENDBRANCH   9  11
ENDBRANCH   8   9
BRANCH   8  13
ATOM     13  C   UNK A   1       1.552   4.223  17.880  0.00  0.00    +0.000 C 
BRANCH  13  14
ATOM     14  C   UNK A   1       2.489   3.165  17.286  0.00  0.00    +0.000 C 
BRANCH  14  15
ATOM     15  C   UNK A   1       2.650   1.980  18.206  0.00  0.00    +0.000 C 
ATOM     16  O   UNK A   1       3.717   1.523  18.575  0.00  0.00    +0.000 OA
BRANCH  15  17
ATOM     17  O   UNK A   1       1.461   1.446  18.565  0.00  0.00    +0.000 OA
ATOM     18  H   UNK A   1       1.522   0.765  19.262  0.00  0.00    +0.000 HD
ENDBRANCH  15  17
ENDBRANCH  14  15
ENDBRANCH  13  14
ENDBRANCH   8  13
ENDBRANCH   5   8
ENDBRANCH   1   2
BRANCH   1  19
ATOM     19  C   UNK A   1       7.146   5.377  16.324  0.00  0.00    +0.000 C 
ATOM     20  O   UNK A   1       7.879   4.432  16.583  0.00  0.00    +0.000 OA
BRANCH  19  21
ATOM     21  O   UNK A   1       6.695   5.611  15.070  0.00  0.00    +0.000 OA
ATOM     22  H   UNK A   1       7.328   6.052  14.472  0.00  0.00    +0.000 HD
ENDBRANCH  19  21
ENDBRANCH   1  19
BRANCH   1  23
ATOM     23  C   UNK A   1       7.588   7.165  18.165  0.00  0.00    +0.000 C 
BRANCH  23  24
ATOM     24  C   UNK A   1       8.250   8.352  17.445  0.00  0.00    +0.000 C 
BRANCH  24  25
ATOM     25  C   UNK A   1       7.966   9.744  18.017  0.00  0.00    +0.000 C 
BRANCH  25  27
ATOM     26  N   UNK A   1       9.664  11.487  17.932  0.00  0.00    +0.000 N 
ATOM     27  C   UNK A   1       9.155  10.437  18.659  0.00  0.00    +0.000 C 
ATOM     28  O   UNK A   1       9.610  10.082  19.741  0.00  0.00    +0.000 OA
ATOM     29  H   UNK A   1       9.108  11.865  17.180  0.00  0.00    +0.000 HD
BRANCH  26  31
ATOM     30  C   UNK A   1      11.566  12.848  17.233  0.00  0.00    +0.000 C 
ATOM     31  C   UNK A   1      10.765  12.298  18.415  0.00  0.00    +0.000 C 
BRANCH  31  32
ATOM     32  C   UNK A   1      10.239  13.413  19.301  0.00  0.00    +0.000 A 
ATOM     33  C   UNK A   1      10.515  13.399  20.675  0.00  0.00    +0.000 A 
ATOM     34  C   UNK A   1      10.059  14.428  21.500  0.00  0.00    +0.000 A 
ATOM     35  C   UNK A   1       9.319  15.466  20.955  0.00  0.00    +0.000 A 
ATOM     36  F   UNK A   1       8.887  16.460  21.745  0.00  0.00    +0.000 F 
ATOM     37  C   UNK A   1       9.013  15.493  19.599  0.00  0.00    +0.000 A 
ATOM     38  C   UNK A   1       9.470  14.468  18.773  0.00  0.00    +0.000 A 
ENDBRANCH  31  32
ENDBRANCH  26  31
ENDBRANCH  25  27
ENDBRANCH  24  25
ENDBRANCH  23  24
ENDBRANCH   1  23
TORSDOF 16
ENDMDL
MODEL 5
REMARK VINA RESULT:      -6.9      2.637      3.312
REMARK  Name = 
REMARK  17 active torsions:
REMARK  status: ('A' for Active; 'I' for Inactive)
REMARK    1  A    between atoms: C_1  and  C_2
REMARK    2  A    between atoms: C_2  and  N_3
REMARK    3  A    between atoms: C_2  and  C_26
REMARK    4  A    between atoms: C_4  and  C_6
REMARK    5  A    between atoms: C_6  and  C_7
REMARK    6  A    between atoms: C_7  and  C_8
REMARK    7  A    between atoms: C_8  and  C_9
REMARK    8  A    between atoms: C_9  and  N_10
REMARK    9  A    between atoms: C_9  and  C_23
REMARK   10  A    between atoms: N_13  and  C_14
REMARK   11  A    between atoms: C_14  and  C_15
REMARK   12  A    between atoms: C_14  and  C_20
REMARK   13  A    between atoms: C_15  and  C_16
REMARK   14  A    between atoms: C_16  and  C_17
REMARK   15  A    between atoms: C_17  and  O_19
REMARK   16  A    between atoms: C_20  and  O_22
REMARK   17  A    between atoms: C_23  and  O_25
REMARK                            x       y       z     vdW  Elec       q    Type
REMARK                         _______ _______ _______ _____ _____    ______ ____
ROOT
ATOM      1  C   UNK A   1       3.867   2.957  19.736  0.00  0.00    +0.000 C 
ENDROOT
BRANCH   1   2
ATOM      2  N   UNK A   1       4.426   4.279  19.480  0.00  0.00    +0.000 N 
ATOM      3  C   UNK A   0       5.536   4.405  18.704  0.00  0.00    +0.000 C 
ATOM      4  O   UNK A   0       6.191   3.449  18.303  0.00  0.00    +0.000 OA
ATOM      5  N   UNK A   1       5.810   5.692  18.360  0.00  0.00    +0.000 N 
ATOM      6  H   UNK A   1       3.829   5.082  19.647  0.00  0.00    +0.000 HD
ATOM      7  H   UNK A   1       5.496   6.433  18.979  0.00  0.00    +0.000 HD
BRANCH   5   8
ATOM      8  C   UNK A   1       6.928   5.996  17.468  0.00  0.00    +0.000 C 
BRANCH   8   9
ATOM      9  C   UNK A   1       7.650   7.252  17.965  0.00  0.00    +0.000 C 
ATOM     10  O   UNK A   1       7.578   8.335  17.402  0.00  0.00    +0.000 OA
BRANCH   9  11
ATOM     11  O   UNK A   1       8.400   7.062  19.073  0.00  0.00    +0.000 OA
ATOM     12  H   UNK A   1       7.969   6.556  19.789  0.00  0.00    +0.000 HD
ENDBRANCH   9  11
ENDBRANCH   8   9
BRANCH   8  13
ATOM     13  C   UNK A   1       6.440   6.159  16.023  0.00  0.00    +0.000 C 
BRANCH  13  14
ATOM     14  C   UNK A   1       6.996   5.082  15.084  0.00  0.00    +0.000 C 
BRANCH  14  15
ATOM     15  C   UNK A   1       5.953   4.049  14.737  0.00  0.00    +0.000 C 
ATOM     16  O   UNK A   1       4.864   3.950  15.272  0.00  0.00    +0.000 OA
BRANCH  15  17
ATOM     17  O   UNK A   1       6.372   3.206  13.766  0.00  0.00    +0.000 OA
ATOM     18  H   UNK A   1       6.020   3.411  12.878  0.00  0.00    +0.000 HD
ENDBRANCH  15  17
ENDBRANCH  14  15
ENDBRANCH  13  14
ENDBRANCH   8  13
ENDBRANCH   5   8
ENDBRANCH   1   2
BRANCH   1  19
ATOM     19  C   UNK A   1       3.352   2.366  18.421  0.00  0.00    +0.000 C 
ATOM     20  O   UNK A   1       2.454   2.870  17.760  0.00  0.00    +0.000 OA
BRANCH  19  21
ATOM     21  O   UNK A   1       4.038   1.283  17.989  0.00  0.00    +0.000 OA
ATOM     22  H   UNK A   1       4.866   1.090  18.471  0.00  0.00    +0.000 HD
ENDBRANCH  19  21
ENDBRANCH   1  19
BRANCH   1  23
ATOM     23  C   UNK A   1       2.884   2.972  20.910  0.00  0.00    +0.000 C 
BRANCH  23  24
ATOM     24  C   UNK A   1       2.425   4.333  21.459  0.00  0.00    +0.000 C 
BRANCH  24  25
ATOM     25  C   UNK A   1       1.448   5.128  20.588  0.00  0.00    +0.000 C 
BRANCH  25  27
ATOM     26  N   UNK A   1       1.085   7.535  20.592  0.00  0.00    +0.000 N 
ATOM     27  C   UNK A   1       1.916   6.517  20.191  0.00  0.00    +0.000 C 
ATOM     28  O   UNK A   1       2.957   6.700  19.568  0.00  0.00    +0.000 OA
ATOM     29  H   UNK A   1       0.382   7.336  21.288  0.00  0.00    +0.000 HD
BRANCH  26  31
ATOM     30  C   UNK A   1       1.250   9.246  18.859  0.00  0.00    +0.000 C 
ATOM     31  C   UNK A   1       1.400   8.931  20.348  0.00  0.00    +0.000 C 
BRANCH  31  32
ATOM     32  C   UNK A   1       0.513   9.819  21.201  0.00  0.00    +0.000 A 
ATOM     33  C   UNK A   1       0.026   9.346  22.427  0.00  0.00    +0.000 A 
ATOM     34  C   UNK A   1      -0.772  10.158  23.235  0.00  0.00    +0.000 A 
ATOM     35  C   UNK A   1      -1.090  11.439  22.815  0.00  0.00    +0.000 A 
ATOM     36  F   UNK A   1      -1.849  12.225  23.594  0.00  0.00    +0.000 F 
ATOM     37  C   UNK A   1      -0.637  11.926  21.593  0.00  0.00    +0.000 A 
ATOM     38  C   UNK A   1       0.161  11.119  20.787  0.00  0.00    +0.000 A 
ENDBRANCH  31  32
ENDBRANCH  26  31
ENDBRANCH  25  27
ENDBRANCH  24  25
ENDBRANCH  23  24
ENDBRANCH   1  23
TORSDOF 16
ENDMDL
MODEL 6
REMARK VINA RESULT:      -6.9      5.150      8.287
REMARK  Name = 
REMARK  17 active torsions:
REMARK  status: ('A' for Active; 'I' for Inactive)
REMARK    1  A    between atoms: C_1  and  C_2
REMARK    2  A    between atoms: C_2  and  N_3
REMARK    3  A    between atoms: C_2  and  C_26
REMARK    4  A    between atoms: C_4  and  C_6
REMARK    5  A    between atoms: C_6  and  C_7
REMARK    6  A    between atoms: C_7  and  C_8
REMARK    7  A    between atoms: C_8  and  C_9
REMARK    8  A    between atoms: C_9  and  N_10
REMARK    9  A    between atoms: C_9  and  C_23
REMARK   10  A    between atoms: N_13  and  C_14
REMARK   11  A    between atoms: C_14  and  C_15
REMARK   12  A    between atoms: C_14  and  C_20
REMARK   13  A    between atoms: C_15  and  C_16
REMARK   14  A    between atoms: C_16  and  C_17
REMARK   15  A    between atoms: C_17  and  O_19
REMARK   16  A    between atoms: C_20  and  O_22
REMARK   17  A    between atoms: C_23  and  O_25
REMARK                            x       y       z     vdW  Elec       q    Type
REMARK                         _______ _______ _______ _____ _____    ______ ____
ROOT
ATOM      1  C   UNK A   1       6.228   5.931  16.561  0.00  0.00    +0.000 C 
ENDROOT
BRANCH   1   2
ATOM      2  N   UNK A   1       4.907   5.325  16.676  0.00  0.00    +0.000 N 
ATOM      3  C   UNK A   0       4.595   4.588  17.777  0.00  0.00    +0.000 C 
ATOM      4  O   UNK A   0       5.413   4.282  18.638  0.00  0.00    +0.000 OA
ATOM      5  N   UNK A   1       3.274   4.280  17.862  0.00  0.00    +0.000 N 
ATOM      6  H   UNK A   1       4.170   5.689  16.083  0.00  0.00    +0.000 HD
ATOM      7  H   UNK A   1       2.736   4.223  17.003  0.00  0.00    +0.000 HD
BRANCH   5   8
ATOM      8  C   UNK A   1       2.757   3.555  19.022  0.00  0.00    +0.000 C 
BRANCH   8   9
ATOM      9  C   UNK A   1       2.468   2.104  18.628  0.00  0.00    +0.000 C 
ATOM     10  O   UNK A   1       3.345   1.284  18.396  0.00  0.00    +0.000 OA
BRANCH   9  11
ATOM     11  O   UNK A   1       1.154   1.802  18.535  0.00  0.00    +0.000 OA
ATOM     12  H   UNK A   1       0.877   0.988  18.999  0.00  0.00    +0.000 HD
ENDBRANCH   9  11
ENDBRANCH   8   9
BRANCH   8  13
ATOM     13  C   UNK A   1       1.510   4.248  19.584  0.00  0.00    +0.000 C 
BRANCH  13  14
ATOM     14  C   UNK A   1       1.828   5.185  20.755  0.00  0.00    +0.000 C 
BRANCH  14  15
ATOM     15  C   UNK A   1       2.030   6.607  20.295  0.00  0.00    +0.000 C 
ATOM     16  O   UNK A   1       2.394   6.936  19.181  0.00  0.00    +0.000 OA
BRANCH  15  17
ATOM     17  O   UNK A   1       1.786   7.502  21.280  0.00  0.00    +0.000 OA
ATOM     18  H   UNK A   1       1.355   8.324  20.976  0.00  0.00    +0.000 HD
ENDBRANCH  15  17
ENDBRANCH  14  15
ENDBRANCH  13  14
ENDBRANCH   8  13
ENDBRANCH   5   8
ENDBRANCH   1   2
BRANCH   1  19
ATOM     19  C   UNK A   1       7.215   4.887  16.032  0.00  0.00    +0.000 C 
ATOM     20  O   UNK A   1       8.041   4.320  16.735  0.00  0.00    +0.000 OA
BRANCH  19  21
ATOM     21  O   UNK A   1       7.040   4.562  14.730  0.00  0.00    +0.000 OA
ATOM     22  H   UNK A   1       6.412   5.125  14.237  0.00  0.00    +0.000 HD
ENDBRANCH  19  21
ENDBRANCH   1  19
BRANCH   1  23
ATOM     23  C   UNK A   1       6.633   6.665  17.842  0.00  0.00    +0.000 C 
BRANCH  23  24
ATOM     24  C   UNK A   1       7.879   7.565  17.803  0.00  0.00    +0.000 C 
BRANCH  24  25
ATOM     25  C   UNK A   1       7.631   9.072  17.693  0.00  0.00    +0.000 C 
BRANCH  25  27
ATOM     26  N   UNK A   1       8.818  11.195  17.811  0.00  0.00    +0.000 N 
ATOM     27  C   UNK A   1       8.665   9.951  18.376  0.00  0.00    +0.000 C 
ATOM     28  O   UNK A   1       9.299   9.571  19.354  0.00  0.00    +0.000 OA
ATOM     29  H   UNK A   1       8.113  11.520  17.167  0.00  0.00    +0.000 HD
BRANCH  26  31
ATOM     30  C   UNK A   1      11.027  12.204  17.566  0.00  0.00    +0.000 C 
ATOM     31  C   UNK A   1       9.721  12.187  18.363  0.00  0.00    +0.000 C 
BRANCH  31  32
ATOM     32  C   UNK A   1       9.052  13.550  18.371  0.00  0.00    +0.000 A 
ATOM     33  C   UNK A   1       9.654  14.616  19.053  0.00  0.00    +0.000 A 
ATOM     34  C   UNK A   1       9.065  15.882  19.051  0.00  0.00    +0.000 A 
ATOM     35  C   UNK A   1       7.871  16.080  18.375  0.00  0.00    +0.000 A 
ATOM     36  F   UNK A   1       7.307  17.298  18.365  0.00  0.00    +0.000 F 
ATOM     37  C   UNK A   1       7.243  15.034  17.708  0.00  0.00    +0.000 A 
ATOM     38  C   UNK A   1       7.831  13.771  17.706  0.00  0.00    +0.000 A 
ENDBRANCH  31  32
ENDBRANCH  26  31
ENDBRANCH  25  27
ENDBRANCH  24  25
ENDBRANCH  23  24
ENDBRANCH   1  23
TORSDOF 16
ENDMDL
MODEL 7
REMARK VINA RESULT:      -6.9      1.069      1.609
REMARK  Name = 
REMARK  17 active torsions:
REMARK  status: ('A' for Active; 'I' for Inactive)
REMARK    1  A    between atoms: C_1  and  C_2
REMARK    2  A    between atoms: C_2  and  N_3
REMARK    3  A    between atoms: C_2  and  C_26
REMARK    4  A    between atoms: C_4  and  C_6
REMARK    5  A    between atoms: C_6  and  C_7
REMARK    6  A    between atoms: C_7  and  C_8
REMARK    7  A    between atoms: C_8  and  C_9
REMARK    8  A    between atoms: C_9  and  N_10
REMARK    9  A    between atoms: C_9  and  C_23
REMARK   10  A    between atoms: N_13  and  C_14
REMARK   11  A    between atoms: C_14  and  C_15
REMARK   12  A    between atoms: C_14  and  C_20
REMARK   13  A    between atoms: C_15  and  C_16
REMARK   14  A    between atoms: C_16  and  C_17
REMARK   15  A    between atoms: C_17  and  O_19
REMARK   16  A    between atoms: C_20  and  O_22
REMARK   17  A    between atoms: C_23  and  O_25
REMARK                            x       y       z     vdW  Elec       q    Type
REMARK                         _______ _______ _______ _____ _____    ______ ____
ROOT
ATOM      1  C   UNK A   1       2.895   4.914  19.761  0.00  0.00    +0.000 C 
ENDROOT
BRANCH   1   2
ATOM      2  N   UNK A   1       4.046   4.203  19.219  0.00  0.00    +0.000 N 
ATOM      3  C   UNK A   0       5.150   4.898  18.833  0.00  0.00    +0.000 C 
ATOM      4  O   UNK A   0       5.195   6.123  18.787  0.00  0.00    +0.000 OA
ATOM      5  N   UNK A   1       6.221   4.104  18.567  0.00  0.00    +0.000 N 
ATOM      6  H   UNK A   1       4.109   3.207  19.397  0.00  0.00    +0.000 HD
ATOM      7  H   UNK A   1       6.050   3.150  18.265  0.00  0.00    +0.000 HD
BRANCH   5   8
ATOM      8  C   UNK A   1       7.510   4.696  18.210  0.00  0.00    +0.000 C 
BRANCH   8   9
ATOM      9  C   UNK A   1       7.967   5.635  19.329  0.00  0.00    +0.000 C 
ATOM     10  O   UNK A   1       8.056   5.291  20.500  0.00  0.00    +0.000 OA
BRANCH   9  11
ATOM     11  O   UNK A   1       8.245   6.894  18.923  0.00  0.00    +0.000 OA
ATOM     12  H   UNK A   1       8.344   7.552  19.638  0.00  0.00    +0.000 HD
ENDBRANCH   9  11
ENDBRANCH   8   9
BRANCH   8  13
ATOM     13  C   UNK A   1       7.419   5.423  16.862  0.00  0.00    +0.000 C 
BRANCH  13  14
ATOM     14  C   UNK A   1       6.981   4.501  15.719  0.00  0.00    +0.000 C 
BRANCH  14  15
ATOM     15  C   UNK A   1       5.763   5.032  15.006  0.00  0.00    +0.000 C 
ATOM     16  O   UNK A   1       5.220   4.496  14.057  0.00  0.00    +0.000 OA
BRANCH  15  17
ATOM     17  O   UNK A   1       5.341   6.209  15.522  0.00  0.00    +0.000 OA
ATOM     18  H   UNK A   1       5.841   6.987  15.208  0.00  0.00    +0.000 HD
ENDBRANCH  15  17
ENDBRANCH  14  15
ENDBRANCH  13  14
ENDBRANCH   8  13
ENDBRANCH   5   8
ENDBRANCH   1   2
BRANCH   1  19
ATOM     19  C   UNK A   1       1.973   3.915  20.466  0.00  0.00    +0.000 C 
ATOM     20  O   UNK A   1       0.753   3.941  20.374  0.00  0.00    +0.000 OA
BRANCH  19  21
ATOM     21  O   UNK A   1       2.621   2.930  21.128  0.00  0.00    +0.000 OA
ATOM     22  H   UNK A   1       2.245   2.691  21.997  0.00  0.00    +0.000 HD
ENDBRANCH  19  21
ENDBRANCH   1  19
BRANCH   1  23
ATOM     23  C   UNK A   1       2.243   5.825  18.716  0.00  0.00    +0.000 C 
BRANCH  23  24
ATOM     24  C   UNK A   1       2.059   7.312  19.061  0.00  0.00    +0.000 C 
BRANCH  24  25
ATOM     25  C   UNK A   1       1.747   7.643  20.523  0.00  0.00    +0.000 C 
BRANCH  25  27
ATOM     26  N   UNK A   1       0.994   9.823  19.744  0.00  0.00    +0.000 N 
ATOM     27  C   UNK A   1       0.894   8.881  20.740  0.00  0.00    +0.000 C 
ATOM     28  O   UNK A   1       0.176   9.012  21.725  0.00  0.00    +0.000 OA
ATOM     29  H   UNK A   1       1.414   9.554  18.868  0.00  0.00    +0.000 HD
BRANCH  26  31
ATOM     30  C   UNK A   1       1.099  12.237  19.393  0.00  0.00    +0.000 C 
ATOM     31  C   UNK A   1       0.212  11.045  19.757  0.00  0.00    +0.000 C 
BRANCH  31  32
ATOM     32  C   UNK A   1      -0.968  10.915  18.810  0.00  0.00    +0.000 A 
ATOM     33  C   UNK A   1      -0.911  10.003  17.748  0.00  0.00    +0.000 A 
ATOM     34  C   UNK A   1      -1.995   9.854  16.881  0.00  0.00    +0.000 A 
ATOM     35  C   UNK A   1      -3.133  10.621  17.071  0.00  0.00    +0.000 A 
ATOM     36  F   UNK A   1      -4.180  10.473  16.245  0.00  0.00    +0.000 F 
ATOM     37  C   UNK A   1      -3.208  11.549  18.105  0.00  0.00    +0.000 A 
ATOM     38  C   UNK A   1      -2.128  11.697  18.972  0.00  0.00    +0.000 A 
ENDBRANCH  31  32
ENDBRANCH  26  31
ENDBRANCH  25  27
ENDBRANCH  24  25
ENDBRANCH  23  24
ENDBRANCH   1  23
TORSDOF 16
ENDMDL
MODEL 8
REMARK VINA RESULT:      -6.9      1.480      1.945
REMARK  Name = 
REMARK  17 active torsions:
REMARK  status: ('A' for Active; 'I' for Inactive)
REMARK    1  A    between atoms: C_1  and  C_2
REMARK    2  A    between atoms: C_2  and  N_3
REMARK    3  A    between atoms: C_2  and  C_26
REMARK    4  A    between atoms: C_4  and  C_6
REMARK    5  A    between atoms: C_6  and  C_7
REMARK    6  A    between atoms: C_7  and  C_8
REMARK    7  A    between atoms: C_8  and  C_9
REMARK    8  A    between atoms: C_9  and  N_10
REMARK    9  A    between atoms: C_9  and  C_23
REMARK   10  A    between atoms: N_13  and  C_14
REMARK   11  A    between atoms: C_14  and  C_15
REMARK   12  A    between atoms: C_14  and  C_20
REMARK   13  A    between atoms: C_15  and  C_16
REMARK   14  A    between atoms: C_16  and  C_17
REMARK   15  A    between atoms: C_17  and  O_19
REMARK   16  A    between atoms: C_20  and  O_22
REMARK   17  A    between atoms: C_23  and  O_25
REMARK                            x       y       z     vdW  Elec       q    Type
REMARK                         _______ _______ _______ _____ _____    ______ ____
ROOT
ATOM      1  C   UNK A   1       2.860   6.362  19.493  0.00  0.00    +0.000 C 
ENDROOT
BRANCH   1   2
ATOM      2  N   UNK A   1       3.515   6.396  18.191  0.00  0.00    +0.000 N 
ATOM      3  C   UNK A   0       4.611   5.622  17.965  0.00  0.00    +0.000 C 
ATOM      4  O   UNK A   0       5.178   4.982  18.844  0.00  0.00    +0.000 OA
ATOM      5  N   UNK A   1       4.977   5.577  16.656  0.00  0.00    +0.000 N 
ATOM      6  H   UNK A   1       2.988   6.771  17.410  0.00  0.00    +0.000 HD
ATOM      7  H   UNK A   1       4.739   6.364  16.061  0.00  0.00    +0.000 HD
BRANCH   5   8
ATOM      8  C   UNK A   1       6.092   4.732  16.230  0.00  0.00    +0.000 C 
BRANCH   8   9
ATOM      9  C   UNK A   1       7.330   5.059  17.070  0.00  0.00    +0.000 C 
ATOM     10  O   UNK A   1       7.866   6.158  17.075  0.00  0.00    +0.000 OA
BRANCH   9  11
ATOM     11  O   UNK A   1       7.802   4.021  17.795  0.00  0.00    +0.000 OA
ATOM     12  H   UNK A   1       7.642   4.076  18.758  0.00  0.00    +0.000 HD
ENDBRANCH   9  11
ENDBRANCH   8   9
BRANCH   8  13
ATOM     13  C   UNK A   1       6.363   4.906  14.730  0.00  0.00    +0.000 C 
BRANCH  13  14
ATOM     14  C   UNK A   1       5.578   3.913  13.866  0.00  0.00    +0.000 C 
BRANCH  14  15
ATOM     15  C   UNK A   1       6.331   3.545  12.612  0.00  0.00    +0.000 C 
ATOM     16  O   UNK A   1       7.182   4.235  12.080  0.00  0.00    +0.000 OA
BRANCH  15  17
ATOM     17  O   UNK A   1       5.936   2.354  12.109  0.00  0.00    +0.000 OA
ATOM     18  H   UNK A   1       6.622   1.889  11.592  0.00  0.00    +0.000 HD
ENDBRANCH  15  17
ENDBRANCH  14  15
ENDBRANCH  13  14
ENDBRANCH   8  13
ENDBRANCH   5   8
ENDBRANCH   1   2
BRANCH   1  19
ATOM     19  C   UNK A   1       2.176   5.004  19.676  0.00  0.00    +0.000 C 
ATOM     20  O   UNK A   1       1.324   4.569  18.912  0.00  0.00    +0.000 OA
BRANCH  19  21
ATOM     21  O   UNK A   1       2.658   4.270  20.704  0.00  0.00    +0.000 OA
ATOM     22  H   UNK A   1       2.229   4.423  21.568  0.00  0.00    +0.000 HD
ENDBRANCH  19  21
ENDBRANCH   1  19
BRANCH   1  23
ATOM     23  C   UNK A   1       1.992   7.601  19.728  0.00  0.00    +0.000 C 
BRANCH  23  24
ATOM     24  C   UNK A   1       1.140   7.662  21.006  0.00  0.00    +0.000 C 
BRANCH  24  25
ATOM     25  C   UNK A   1       1.328   8.893  21.897  0.00  0.00    +0.000 C 
BRANCH  25  27
ATOM     26  N   UNK A   1       0.181  10.605  20.601  0.00  0.00    +0.000 N 
ATOM     27  C   UNK A   1       0.229   9.937  21.801  0.00  0.00    +0.000 C 
ATOM     28  O   UNK A   1      -0.549  10.151  22.725  0.00  0.00    +0.000 OA
ATOM     29  H   UNK A   1       0.690  10.224  19.818  0.00  0.00    +0.000 HD
BRANCH  26  31
ATOM     30  C   UNK A   1      -0.189  12.973  20.136  0.00  0.00    +0.000 C 
ATOM     31  C   UNK A   1      -0.837  11.598  20.310  0.00  0.00    +0.000 C 
BRANCH  31  32
ATOM     32  C   UNK A   1      -1.624  11.189  19.079  0.00  0.00    +0.000 A 
ATOM     33  C   UNK A   1      -2.879  11.763  18.832  0.00  0.00    +0.000 A 
ATOM     34  C   UNK A   1      -3.606  11.416  17.692  0.00  0.00    +0.000 A 
ATOM     35  C   UNK A   1      -3.084  10.489  16.803  0.00  0.00    +0.000 A 
ATOM     36  F   UNK A   1      -3.777  10.161  15.703  0.00  0.00    +0.000 F 
ATOM     37  C   UNK A   1      -1.851   9.889  17.035  0.00  0.00    +0.000 A 
ATOM     38  C   UNK A   1      -1.123  10.236  18.170  0.00  0.00    +0.000 A 
ENDBRANCH  31  32
ENDBRANCH  26  31
ENDBRANCH  25  27
ENDBRANCH  24  25
ENDBRANCH  23  24
ENDBRANCH   1  23
TORSDOF 16
ENDMDL
MODEL 9
REMARK VINA RESULT:      -6.8      1.293      2.795
REMARK  Name = 
REMARK  17 active torsions:
REMARK  status: ('A' for Active; 'I' for Inactive)
REMARK    1  A    between atoms: C_1  and  C_2
REMARK    2  A    between atoms: C_2  and  N_3
REMARK    3  A    between atoms: C_2  and  C_26
REMARK    4  A    between atoms: C_4  and  C_6
REMARK    5  A    between atoms: C_6  and  C_7
REMARK    6  A    between atoms: C_7  and  C_8
REMARK    7  A    between atoms: C_8  and  C_9
REMARK    8  A    between atoms: C_9  and  N_10
REMARK    9  A    between atoms: C_9  and  C_23
REMARK   10  A    between atoms: N_13  and  C_14
REMARK   11  A    between atoms: C_14  and  C_15
REMARK   12  A    between atoms: C_14  and  C_20
REMARK   13  A    between atoms: C_15  and  C_16
REMARK   14  A    between atoms: C_16  and  C_17
REMARK   15  A    between atoms: C_17  and  O_19
REMARK   16  A    between atoms: C_20  and  O_22
REMARK   17  A    between atoms: C_23  and  O_25
REMARK                            x       y       z     vdW  Elec       q    Type
REMARK                         _______ _______ _______ _____ _____    ______ ____
ROOT
ATOM      1  C   UNK A   1       2.112   3.516  19.964  0.00  0.00    +0.000 C 
ENDROOT
BRANCH   1   2
ATOM      2  N   UNK A   1       3.409   3.852  19.389  0.00  0.00    +0.000 N 
ATOM      3  C   UNK A   0       3.484   4.302  18.108  0.00  0.00    +0.000 C 
ATOM      4  O   UNK A   0       2.527   4.320  17.342  0.00  0.00    +0.000 OA
ATOM      5  N   UNK A   1       4.710   4.791  17.779  0.00  0.00    +0.000 N 
ATOM      6  H   UNK A   1       4.180   4.008  20.029  0.00  0.00    +0.000 HD
ATOM      7  H   UNK A   1       5.520   4.433  18.275  0.00  0.00    +0.000 HD
BRANCH   5   8
ATOM      8  C   UNK A   1       4.941   5.382  16.462  0.00  0.00    +0.000 C 
BRANCH   8   9
ATOM      9  C   UNK A   1       5.455   4.305  15.503  0.00  0.00    +0.000 C 
ATOM     10  O   UNK A   1       5.352   4.385  14.286  0.00  0.00    +0.000 OA
BRANCH   9  11
ATOM     11  O   UNK A   1       6.016   3.237  16.112  0.00  0.00    +0.000 OA
ATOM     12  H   UNK A   1       6.784   2.848  15.650  0.00  0.00    +0.000 HD
ENDBRANCH   9  11
ENDBRANCH   8   9
BRANCH   8  13
ATOM     13  C   UNK A   1       5.915   6.563  16.560  0.00  0.00    +0.000 C 
BRANCH  13  14
ATOM     14  C   UNK A   1       7.042   6.321  17.571  0.00  0.00    +0.000 C 
BRANCH  14  15
ATOM     15  C   UNK A   1       7.773   7.596  17.910  0.00  0.00    +0.000 C 
ATOM     16  O   UNK A   1       7.656   8.649  17.310  0.00  0.00    +0.000 OA
BRANCH  15  17
ATOM     17  O   UNK A   1       8.615   7.439  18.957  0.00  0.00    +0.000 OA
ATOM     18  H   UNK A   1       8.664   6.526  19.298  0.00  0.00    +0.000 HD
ENDBRANCH  15  17
ENDBRANCH  14  15
ENDBRANCH  13  14
ENDBRANCH   8  13
ENDBRANCH   5   8
ENDBRANCH   1   2
BRANCH   1  19
ATOM     19  C   UNK A   1       1.533   2.307  19.226  0.00  0.00    +0.000 C 
ATOM     20  O   UNK A   1       2.132   1.248  19.090  0.00  0.00    +0.000 OA
BRANCH  19  21
ATOM     21  O   UNK A   1       0.255   2.464  18.812  0.00  0.00    +0.000 OA
ATOM     22  H   UNK A   1      -0.368   1.768  19.097  0.00  0.00    +0.000 HD
ENDBRANCH  19  21
ENDBRANCH   1  19
BRANCH   1  23
ATOM     23  C   UNK A   1       1.205   4.745  20.080  0.00  0.00    +0.000 C 
BRANCH  23  24
ATOM     24  C   UNK A   1       1.746   5.982  20.815  0.00  0.00    +0.000 C 
BRANCH  24  25
ATOM     25  C   UNK A   1       2.050   7.211  19.954  0.00  0.00    +0.000 C 
BRANCH  25  27
ATOM     26  N   UNK A   1       0.908   9.295  19.421  0.00  0.00    +0.000 N 
ATOM     27  C   UNK A   1       1.416   8.508  20.427  0.00  0.00    +0.000 C 
ATOM     28  O   UNK A   1       1.363   8.812  21.615  0.00  0.00    +0.000 OA
ATOM     29  H   UNK A   1       0.779   8.884  18.509  0.00  0.00    +0.000 HD
BRANCH  26  31
ATOM     30  C   UNK A   1       1.180  11.719  19.513  0.00  0.00    +0.000 C 
ATOM     31  C   UNK A   1       0.218  10.543  19.691  0.00  0.00    +0.000 C 
BRANCH  31  32
ATOM     32  C   UNK A   1      -0.995  10.670  18.788  0.00  0.00    +0.000 A 
ATOM     33  C   UNK A   1      -1.078   9.900  17.621  0.00  0.00    +0.000 A 
ATOM     34  C   UNK A   1      -2.198   9.987  16.791  0.00  0.00    +0.000 A 
ATOM     35  C   UNK A   1      -3.230  10.850  17.124  0.00  0.00    +0.000 A 
ATOM     36  F   UNK A   1      -4.311  10.929  16.332  0.00  0.00    +0.000 F 
ATOM     37  C   UNK A   1      -3.164  11.641  18.266  0.00  0.00    +0.000 A 
ATOM     38  C   UNK A   1      -2.049  11.553  19.096  0.00  0.00    +0.000 A 
ENDBRANCH  31  32
ENDBRANCH  26  31
ENDBRANCH  25  27
ENDBRANCH  24  25
ENDBRANCH  23  24
ENDBRANCH   1  23
TORSDOF 16
ENDMDL
