MODEL 1
REMARK VINA RESULT:      -7.3      0.000      0.000
REMARK  Name = 
REMARK  14 active torsions:
REMARK  status: ('A' for Active; 'I' for Inactive)
REMARK    1  A    between atoms: C_1  and  C_2
REMARK    2  A    between atoms: C_2  and  C_3
REMARK    3  A    between atoms: C_2  and  C_4
REMARK    4  A    between atoms: C_4  and  O_5
REMARK    5  A    between atoms: O_5  and  P_6
REMARK    6  A    between atoms: P_6  and  O_8
REMARK    7  A    between atoms: P_6  and  C_13
REMARK    8  A    between atoms: O_8  and  C_9
REMARK    9  A    between atoms: C_9  and  C_10
REMARK   10  A    between atoms: C_10  and  C_11
REMARK   11  A    between atoms: C_10  and  C_12
REMARK   12  A    between atoms: C_13  and  N_14
REMARK   13  A    between atoms: C_13  and  C_21
REMARK   14  A    between atoms: N_14  and  C_15
REMARK                            x       y       z     vdW  Elec       q    Type
REMARK                         _______ _______ _______ _____ _____    ______ ____
ROOT
ATOM      1  C   UNL     1       5.267   4.138  16.821  0.00  0.00    +0.000 C 
ENDROOT
BRANCH   1   2
ATOM      2  C   UNL     1       6.032   5.218  17.574  0.00  0.00    +0.000 A 
ATOM      3  C   UNL     1       6.976   4.873  18.580  0.00  0.00    +0.000 A 
ATOM      4  C   UNL     1       7.892   5.810  19.072  0.00  0.00    +0.000 A 
ATOM      5  C   UNL     1       7.822   7.075  18.536  0.00  0.00    +0.000 A 
ATOM      6  C   UNL     1       6.840   7.441  17.635  0.00  0.00    +0.000 A 
ATOM      7  C   UNL     1       5.905   6.551  17.168  0.00  0.00    +0.000 A 
ATOM      8  O   UNL     1       7.003   8.723  17.202  0.00  0.00    +0.000 OA
ATOM      9  C   UNL     1       8.349   8.955  17.664  0.00  0.00    +0.000 C 
ATOM     10  O   UNL     1       8.730   8.068  18.734  0.00  0.00    +0.000 OA
ENDBRANCH   1   2
BRANCH   1  11
ATOM     11  P   UNL     1       3.843   3.326  17.635  0.00  0.00    +0.000 P 
ATOM     12  O   UNL     1       2.934   3.569  16.410  0.00  0.00    +0.000 OA
BRANCH  11  13
ATOM     13  O   UNL     1       2.498   2.558  18.403  0.00  0.00    +0.000 OA
BRANCH  13  14
ATOM     14  C   UNL     1       2.572   2.030  19.716  0.00  0.00    +0.000 C 
BRANCH  14  16
ATOM     15  C   UNL     1       2.290   3.498  21.728  0.00  0.00    +0.000 C 
ATOM     16  C   UNL     1       1.556   2.607  20.718  0.00  0.00    +0.000 C 
ATOM     17  C   UNL     1       0.477   3.431  20.034  0.00  0.00    +0.000 C 
ENDBRANCH  14  16
ENDBRANCH  13  14
ENDBRANCH  11  13
BRANCH  11  18
ATOM     18  O   UNL     1       3.535   4.679  18.609  0.00  0.00    +0.000 OA
BRANCH  18  19
ATOM     19  C   UNL     1       2.543   5.635  18.255  0.00  0.00    +0.000 C 
BRANCH  19  20
ATOM     20  C   UNL     1       2.736   7.052  18.822  0.00  0.00    +0.000 C 
ATOM     21  C   UNL     1       2.156   8.150  17.922  0.00  0.00    +0.000 C 
ATOM     22  C   UNL     1       2.015   7.096  20.177  0.00  0.00    +0.000 C 
ENDBRANCH  19  20
ENDBRANCH  18  19
ENDBRANCH  11  18
ENDBRANCH   1  11
BRANCH   1  23
ATOM     23  N   UNL     1       4.972   4.738  15.465  0.00  0.00    +0.000 N 
ATOM     24  H   UNL     1       4.008   4.459  15.255  0.00  0.00    +0.000 HD
BRANCH  23  25
ATOM     25  C   UNL     1       5.695   4.420  14.308  0.00  0.00    +0.000 A 
ATOM     26  C   UNL     1       6.957   5.015  14.133  0.00  0.00    +0.000 A 
ATOM     27  C   UNL     1       7.706   4.843  12.966  0.00  0.00    +0.000 A 
ATOM     28  C   UNL     1       7.214   4.030  11.955  0.00  0.00    +0.000 A 
ATOM     29  C   UNL     1       6.014   3.350  12.148  0.00  0.00    +0.000 A 
ATOM     30  C   UNL     1       5.270   3.523  13.327  0.00  0.00    +0.000 A 
ENDBRANCH  23  25
ENDBRANCH   1  23
TORSDOF 10
ENDMDL
MODEL 2
REMARK VINA RESULT:      -7.0      2.340      7.049
REMARK  Name = 
REMARK  14 active torsions:
REMARK  status: ('A' for Active; 'I' for Inactive)
REMARK    1  A    between atoms: C_1  and  C_2
REMARK    2  A    between atoms: C_2  and  C_3
REMARK    3  A    between atoms: C_2  and  C_4
REMARK    4  A    between atoms: C_4  and  O_5
REMARK    5  A    between atoms: O_5  and  P_6
REMARK    6  A    between atoms: P_6  and  O_8
REMARK    7  A    between atoms: P_6  and  C_13
REMARK    8  A    between atoms: O_8  and  C_9
REMARK    9  A    between atoms: C_9  and  C_10
REMARK   10  A    between atoms: C_10  and  C_11
REMARK   11  A    between atoms: C_10  and  C_12
REMARK   12  A    between atoms: C_13  and  N_14
REMARK   13  A    between atoms: C_13  and  C_21
REMARK   14  A    between atoms: N_14  and  C_15
REMARK                            x       y       z     vdW  Elec       q    Type
REMARK                         _______ _______ _______ _____ _____    ______ ____
ROOT
ATOM      1  C   UNL     1       3.169   5.856  18.197  0.00  0.00    +0.000 C 
ENDROOT
BRANCH   1   2
ATOM      2  C   UNL     1       2.669   7.248  18.560  0.00  0.00    +0.000 A 
ATOM      3  C   UNL     1       2.609   8.277  17.581  0.00  0.00    +0.000 A 
ATOM      4  C   UNL     1       1.889   9.456  17.807  0.00  0.00    +0.000 A 
ATOM      5  C   UNL     1       1.258   9.565  19.023  0.00  0.00    +0.000 A 
ATOM      6  C   UNL     1       1.400   8.614  20.016  0.00  0.00    +0.000 A 
ATOM      7  C   UNL     1       2.133   7.468  19.834  0.00  0.00    +0.000 A 
ATOM      8  O   UNL     1       0.641   8.906  21.110  0.00  0.00    +0.000 OA
ATOM      9  C   UNL     1      -0.211   9.919  20.537  0.00  0.00    +0.000 C 
ATOM     10  O   UNL     1       0.364  10.532  19.366  0.00  0.00    +0.000 OA
ENDBRANCH   1   2
BRANCH   1  11
ATOM     11  P   UNL     1       4.434   5.679  16.886  0.00  0.00    +0.000 P 
ATOM     12  O   UNL     1       4.701   4.206  17.265  0.00  0.00    +0.000 OA
BRANCH  11  13
ATOM     13  O   UNL     1       5.629   5.513  15.647  0.00  0.00    +0.000 OA
BRANCH  13  14
ATOM     14  C   UNL     1       5.751   4.340  14.862  0.00  0.00    +0.000 C 
BRANCH  14  16
ATOM     15  C   UNL     1       7.636   5.018  13.355  0.00  0.00    +0.000 C 
ATOM     16  C   UNL     1       6.171   4.566  13.398  0.00  0.00    +0.000 C 
ATOM     17  C   UNL     1       6.021   3.309  12.556  0.00  0.00    +0.000 C 
ENDBRANCH  14  16
ENDBRANCH  13  14
ENDBRANCH  11  13
BRANCH  11  18
ATOM     18  O   UNL     1       5.595   6.519  17.792  0.00  0.00    +0.000 OA
BRANCH  18  19
ATOM     19  C   UNL     1       6.405   7.530  17.204  0.00  0.00    +0.000 C 
BRANCH  19  20
ATOM     20  C   UNL     1       7.875   7.567  17.654  0.00  0.00    +0.000 C 
ATOM     21  C   UNL     1       8.319   8.944  18.165  0.00  0.00    +0.000 C 
ATOM     22  C   UNL     1       8.022   6.550  18.795  0.00  0.00    +0.000 C 
ENDBRANCH  19  20
ENDBRANCH  18  19
ENDBRANCH  11  18
ENDBRANCH   1  11
BRANCH   1  23
ATOM     23  N   UNL     1       3.521   5.207  19.517  0.00  0.00    +0.000 N 
ATOM     24  H   UNL     1       4.419   4.741  19.352  0.00  0.00    +0.000 HD
BRANCH  23  25
ATOM     25  C   UNL     1       2.723   4.236  20.135  0.00  0.00    +0.000 A 
ATOM     26  C   UNL     1       1.644   3.705  19.405  0.00  0.00    +0.000 A 
ATOM     27  C   UNL     1       0.731   2.811  19.971  0.00  0.00    +0.000 A 
ATOM     28  C   UNL     1       0.906   2.399  21.284  0.00  0.00    +0.000 A 
ATOM     29  C   UNL     1       2.023   2.833  21.993  0.00  0.00    +0.000 A 
ATOM     30  C   UNL     1       2.941   3.726  21.416  0.00  0.00    +0.000 A 
ENDBRANCH  23  25
ENDBRANCH   1  23
TORSDOF 10
ENDMDL
MODEL 3
REMARK VINA RESULT:      -6.9      3.282      6.268
REMARK  Name = 
REMARK  14 active torsions:
REMARK  status: ('A' for Active; 'I' for Inactive)
REMARK    1  A    between atoms: C_1  and  C_2
REMARK    2  A    between atoms: C_2  and  C_3
REMARK    3  A    between atoms: C_2  and  C_4
REMARK    4  A    between atoms: C_4  and  O_5
REMARK    5  A    between atoms: O_5  and  P_6
REMARK    6  A    between atoms: P_6  and  O_8
REMARK    7  A    between atoms: P_6  and  C_13
REMARK    8  A    between atoms: O_8  and  C_9
REMARK    9  A    between atoms: C_9  and  C_10
REMARK   10  A    between atoms: C_10  and  C_11
REMARK   11  A    between atoms: C_10  and  C_12
REMARK   12  A    between atoms: C_13  and  N_14
REMARK   13  A    between atoms: C_13  and  C_21
REMARK   14  A    between atoms: N_14  and  C_15
REMARK                            x       y       z     vdW  Elec       q    Type
REMARK                         _______ _______ _______ _____ _____    ______ ____
ROOT
ATOM      1  C   UNL     1       2.444   6.928  17.852  0.00  0.00    +0.000 C 
ENDROOT
BRANCH   1   2
ATOM      2  C   UNL     1       1.993   5.641  18.530  0.00  0.00    +0.000 A 
ATOM      3  C   UNL     1       1.614   4.508  17.759  0.00  0.00    +0.000 A 
ATOM      4  C   UNL     1       1.483   3.241  18.341  0.00  0.00    +0.000 A 
ATOM      5  C   UNL     1       1.732   3.159  19.691  0.00  0.00    +0.000 A 
ATOM      6  C   UNL     1       1.999   4.275  20.461  0.00  0.00    +0.000 A 
ATOM      7  C   UNL     1       2.092   5.533  19.921  0.00  0.00    +0.000 A 
ATOM      8  O   UNL     1       2.266   3.943  21.757  0.00  0.00    +0.000 OA
ATOM      9  C   UNL     1       2.467   2.524  21.597  0.00  0.00    +0.000 C 
ATOM     10  O   UNL     1       1.845   2.006  20.404  0.00  0.00    +0.000 OA
ENDBRANCH   1   2
BRANCH   1  11
ATOM     11  P   UNL     1       1.427   8.438  18.048  0.00  0.00    +0.000 P 
ATOM     12  O   UNL     1       2.484   9.309  17.334  0.00  0.00    +0.000 OA
BRANCH  11  13
ATOM     13  O   UNL     1       0.467   9.864  18.232  0.00  0.00    +0.000 OA
BRANCH  13  14
ATOM     14  C   UNL     1      -0.742  10.064  17.520  0.00  0.00    +0.000 C 
BRANCH  14  16
ATOM     15  C   UNL     1      -2.135  11.644  18.879  0.00  0.00    +0.000 C 
ATOM     16  C   UNL     1      -2.005  10.196  18.389  0.00  0.00    +0.000 C 
ATOM     17  C   UNL     1      -3.268   9.822  17.629  0.00  0.00    +0.000 C 
ENDBRANCH  14  16
ENDBRANCH  13  14
ENDBRANCH  11  13
BRANCH  11  18
ATOM     18  O   UNL     1       1.849   8.598  19.683  0.00  0.00    +0.000 OA
BRANCH  18  19
ATOM     19  C   UNL     1       0.859   8.620  20.704  0.00  0.00    +0.000 C 
BRANCH  19  20
ATOM     20  C   UNL     1       1.007   9.722  21.766  0.00  0.00    +0.000 C 
ATOM     21  C   UNL     1       0.749  11.131  21.218  0.00  0.00    +0.000 C 
ATOM     22  C   UNL     1      -0.025   9.428  22.866  0.00  0.00    +0.000 C 
ENDBRANCH  19  20
ENDBRANCH  18  19
ENDBRANCH  11  18
ENDBRANCH   1  11
BRANCH   1  23
ATOM     23  N   UNL     1       3.899   7.084  18.231  0.00  0.00    +0.000 N 
ATOM     24  H   UNL     1       4.138   8.048  17.977  0.00  0.00    +0.000 HD
BRANCH  23  25
ATOM     25  C   UNL     1       4.925   6.306  17.680  0.00  0.00    +0.000 A 
ATOM     26  C   UNL     1       5.031   6.247  16.278  0.00  0.00    +0.000 A 
ATOM     27  C   UNL     1       5.954   5.418  15.635  0.00  0.00    +0.000 A 
ATOM     28  C   UNL     1       6.824   4.650  16.395  0.00  0.00    +0.000 A 
ATOM     29  C   UNL     1       6.806   4.769  17.783  0.00  0.00    +0.000 A 
ATOM     30  C   UNL     1       5.880   5.609  18.422  0.00  0.00    +0.000 A 
ENDBRANCH  23  25
ENDBRANCH   1  23
TORSDOF 10
ENDMDL
MODEL 4
REMARK VINA RESULT:      -6.8      2.612      7.136
REMARK  Name = 
REMARK  14 active torsions:
REMARK  status: ('A' for Active; 'I' for Inactive)
REMARK    1  A    between atoms: C_1  and  C_2
REMARK    2  A    between atoms: C_2  and  C_3
REMARK    3  A    between atoms: C_2  and  C_4
REMARK    4  A    between atoms: C_4  and  O_5
REMARK    5  A    between atoms: O_5  and  P_6
REMARK    6  A    between atoms: P_6  and  O_8
REMARK    7  A    between atoms: P_6  and  C_13
REMARK    8  A    between atoms: O_8  and  C_9
REMARK    9  A    between atoms: C_9  and  C_10
REMARK   10  A    between atoms: C_10  and  C_11
REMARK   11  A    between atoms: C_10  and  C_12
REMARK   12  A    between atoms: C_13  and  N_14
REMARK   13  A    between atoms: C_13  and  C_21
REMARK   14  A    between atoms: N_14  and  C_15
REMARK                            x       y       z     vdW  Elec       q    Type
REMARK                         _______ _______ _______ _____ _____    ______ ____
ROOT
ATOM      1  C   UNL     1       2.810   6.373  18.452  0.00  0.00    +0.000 C 
ENDROOT
BRANCH   1   2
ATOM      2  C   UNL     1       2.328   7.791  18.728  0.00  0.00    +0.000 A 
ATOM      3  C   UNL     1       2.284   8.760  17.689  0.00  0.00    +0.000 A 
ATOM      4  C   UNL     1       1.580   9.960  17.841  0.00  0.00    +0.000 A 
ATOM      5  C   UNL     1       0.946  10.150  19.046  0.00  0.00    +0.000 A 
ATOM      6  C   UNL     1       1.073   9.259  20.095  0.00  0.00    +0.000 A 
ATOM      7  C   UNL     1       1.791   8.095  19.985  0.00  0.00    +0.000 A 
ATOM      8  O   UNL     1       0.314   9.627  21.167  0.00  0.00    +0.000 OA
ATOM      9  C   UNL     1      -0.523  10.615  20.531  0.00  0.00    +0.000 C 
ATOM     10  O   UNL     1       0.064  11.148  19.326  0.00  0.00    +0.000 OA
ENDBRANCH   1   2
BRANCH   1  11
ATOM     11  P   UNL     1       4.043   6.096  17.127  0.00  0.00    +0.000 P 
ATOM     12  O   UNL     1       3.627   4.616  16.975  0.00  0.00    +0.000 OA
BRANCH  11  13
ATOM     13  O   UNL     1       5.206   5.835  15.875  0.00  0.00    +0.000 OA
BRANCH  13  14
ATOM     14  C   UNL     1       5.010   4.887  14.840  0.00  0.00    +0.000 C 
BRANCH  14  16
ATOM     15  C   UNL     1       5.982   3.527  12.973  0.00  0.00    +0.000 C 
ATOM     16  C   UNL     1       6.287   4.212  14.311  0.00  0.00    +0.000 C 
ATOM     17  C   UNL     1       7.420   5.206  14.105  0.00  0.00    +0.000 C 
ENDBRANCH  14  16
ENDBRANCH  13  14
ENDBRANCH  11  13
BRANCH  11  18
ATOM     18  O   UNL     1       5.324   6.017  18.235  0.00  0.00    +0.000 OA
BRANCH  18  19
ATOM     19  C   UNL     1       6.562   6.670  17.983  0.00  0.00    +0.000 C 
BRANCH  19  20
ATOM     20  C   UNL     1       7.830   5.871  18.328  0.00  0.00    +0.000 C 
ATOM     21  C   UNL     1       8.063   5.722  19.837  0.00  0.00    +0.000 C 
ATOM     22  C   UNL     1       7.660   4.471  17.719  0.00  0.00    +0.000 C 
ENDBRANCH  19  20
ENDBRANCH  18  19
ENDBRANCH  11  18
ENDBRANCH   1  11
BRANCH   1  23
ATOM     23  N   UNL     1       3.190   5.816  19.805  0.00  0.00    +0.000 N 
ATOM     24  H   UNL     1       4.208   5.706  19.771  0.00  0.00    +0.000 HD
BRANCH  23  25
ATOM     25  C   UNL     1       2.716   4.591  20.293  0.00  0.00    +0.000 A 
ATOM     26  C   UNL     1       1.343   4.315  20.166  0.00  0.00    +0.000 A 
ATOM     27  C   UNL     1       0.759   3.170  20.715  0.00  0.00    +0.000 A 
ATOM     28  C   UNL     1       1.559   2.249  21.377  0.00  0.00    +0.000 A 
ATOM     29  C   UNL     1       2.936   2.452  21.427  0.00  0.00    +0.000 A 
ATOM     30  C   UNL     1       3.516   3.602  20.868  0.00  0.00    +0.000 A 
ENDBRANCH  23  25
ENDBRANCH   1  23
TORSDOF 10
ENDMDL
MODEL 5
REMARK VINA RESULT:      -6.8      2.713      7.132
REMARK  Name = 
REMARK  14 active torsions:
REMARK  status: ('A' for Active; 'I' for Inactive)
REMARK    1  A    between atoms: C_1  and  C_2
REMARK    2  A    between atoms: C_2  and  C_3
REMARK    3  A    between atoms: C_2  and  C_4
REMARK    4  A    between atoms: C_4  and  O_5
REMARK    5  A    between atoms: O_5  and  P_6
REMARK    6  A    between atoms: P_6  and  O_8
REMARK    7  A    between atoms: P_6  and  C_13
REMARK    8  A    between atoms: O_8  and  C_9
REMARK    9  A    between atoms: C_9  and  C_10
REMARK   10  A    between atoms: C_10  and  C_11
REMARK   11  A    between atoms: C_10  and  C_12
REMARK   12  A    between atoms: C_13  and  N_14
REMARK   13  A    between atoms: C_13  and  C_21
REMARK   14  A    between atoms: N_14  and  C_15
REMARK                            x       y       z     vdW  Elec       q    Type
REMARK                         _______ _______ _______ _____ _____    ______ ____
ROOT
ATOM      1  C   UNL     1       2.776   6.594  18.542  0.00  0.00    +0.000 C 
ENDROOT
BRANCH   1   2
ATOM      2  C   UNL     1       2.249   7.996  18.818  0.00  0.00    +0.000 A 
ATOM      3  C   UNL     1       2.189   8.967  17.781  0.00  0.00    +0.000 A 
ATOM      4  C   UNL     1       1.448  10.146  17.930  0.00  0.00    +0.000 A 
ATOM      5  C   UNL     1       0.796  10.312  19.129  0.00  0.00    +0.000 A 
ATOM      6  C   UNL     1       0.937   9.421  20.176  0.00  0.00    +0.000 A 
ATOM      7  C   UNL     1       1.690   8.279  20.069  0.00  0.00    +0.000 A 
ATOM      8  O   UNL     1       0.156   9.762  21.240  0.00  0.00    +0.000 OA
ATOM      9  C   UNL     1      -0.703  10.727  20.598  0.00  0.00    +0.000 C 
ATOM     10  O   UNL     1      -0.119  11.282  19.403  0.00  0.00    +0.000 OA
ENDBRANCH   1   2
BRANCH   1  11
ATOM     11  P   UNL     1       4.181   6.384  17.387  0.00  0.00    +0.000 P 
ATOM     12  O   UNL     1       3.856   4.889  17.177  0.00  0.00    +0.000 OA
BRANCH  11  13
ATOM     13  O   UNL     1       5.507   6.186  16.295  0.00  0.00    +0.000 OA
BRANCH  13  14
ATOM     14  C   UNL     1       5.327   5.829  14.936  0.00  0.00    +0.000 C 
BRANCH  14  16
ATOM     15  C   UNL     1       7.267   4.989  13.589  0.00  0.00    +0.000 C 
ATOM     16  C   UNL     1       6.087   4.572  14.477  0.00  0.00    +0.000 C 
ATOM     17  C   UNL     1       6.618   3.760  15.648  0.00  0.00    +0.000 C 
ENDBRANCH  14  16
ENDBRANCH  13  14
ENDBRANCH  11  13
BRANCH  11  18
ATOM     18  O   UNL     1       5.310   6.352  18.651  0.00  0.00    +0.000 OA
BRANCH  18  19
ATOM     19  C   UNL     1       6.237   5.282  18.789  0.00  0.00    +0.000 C 
BRANCH  19  20
ATOM     20  C   UNL     1       7.725   5.663  18.724  0.00  0.00    +0.000 C 
ATOM     21  C   UNL     1       7.961   7.124  18.322  0.00  0.00    +0.000 C 
ATOM     22  C   UNL     1       8.309   5.441  20.127  0.00  0.00    +0.000 C 
ENDBRANCH  19  20
ENDBRANCH  18  19
ENDBRANCH  11  18
ENDBRANCH   1  11
BRANCH   1  23
ATOM     23  N   UNL     1       2.971   5.971  19.905  0.00  0.00    +0.000 N 
ATOM     24  H   UNL     1       3.982   5.826  19.989  0.00  0.00    +0.000 HD
BRANCH  23  25
ATOM     25  C   UNL     1       2.403   4.746  20.280  0.00  0.00    +0.000 A 
ATOM     26  C   UNL     1       1.531   4.116  19.374  0.00  0.00    +0.000 A 
ATOM     27  C   UNL     1       0.836   2.948  19.698  0.00  0.00    +0.000 A 
ATOM     28  C   UNL     1       1.034   2.361  20.940  0.00  0.00    +0.000 A 
ATOM     29  C   UNL     1       1.968   2.911  21.814  0.00  0.00    +0.000 A 
ATOM     30  C   UNL     1       2.668   4.082  21.479  0.00  0.00    +0.000 A 
ENDBRANCH  23  25
ENDBRANCH   1  23
TORSDOF 10
ENDMDL
MODEL 6
REMARK VINA RESULT:      -6.7      2.764      7.049
REMARK  Name = 
REMARK  14 active torsions:
REMARK  status: ('A' for Active; 'I' for Inactive)
REMARK    1  A    between atoms: C_1  and  C_2
REMARK    2  A    between atoms: C_2  and  C_3
REMARK    3  A    between atoms: C_2  and  C_4
REMARK    4  A    between atoms: C_4  and  O_5
REMARK    5  A    between atoms: O_5  and  P_6
REMARK    6  A    between atoms: P_6  and  O_8
REMARK    7  A    between atoms: P_6  and  C_13
REMARK    8  A    between atoms: O_8  and  C_9
REMARK    9  A    between atoms: C_9  and  C_10
REMARK   10  A    between atoms: C_10  and  C_11
REMARK   11  A    between atoms: C_10  and  C_12
REMARK   12  A    between atoms: C_13  and  N_14
REMARK   13  A    between atoms: C_13  and  C_21
REMARK   14  A    between atoms: N_14  and  C_15
REMARK                            x       y       z     vdW  Elec       q    Type
REMARK                         _______ _______ _______ _____ _____    ______ ____
ROOT
ATOM      1  C   UNL     1       2.760   6.647  18.605  0.00  0.00    +0.000 C 
ENDROOT
BRANCH   1   2
ATOM      2  C   UNL     1       2.252   8.066  18.828  0.00  0.00    +0.000 A 
ATOM      3  C   UNL     1       2.333   9.038  17.794  0.00  0.00    +0.000 A 
ATOM      4  C   UNL     1       1.618  10.240  17.867  0.00  0.00    +0.000 A 
ATOM      5  C   UNL     1       0.849  10.428  18.991  0.00  0.00    +0.000 A 
ATOM      6  C   UNL     1       0.851   9.533  20.044  0.00  0.00    +0.000 A 
ATOM      7  C   UNL     1       1.574   8.367  20.014  0.00  0.00    +0.000 A 
ATOM      8  O   UNL     1      -0.027   9.900  21.022  0.00  0.00    +0.000 OA
ATOM      9  C   UNL     1      -0.781  10.892  20.296  0.00  0.00    +0.000 C 
ATOM     10  O   UNL     1      -0.057  11.427  19.170  0.00  0.00    +0.000 OA
ENDBRANCH   1   2
BRANCH   1  11
ATOM     11  P   UNL     1       4.161   6.375  17.459  0.00  0.00    +0.000 P 
ATOM     12  O   UNL     1       3.799   4.883  17.284  0.00  0.00    +0.000 OA
BRANCH  11  13
ATOM     13  O   UNL     1       5.484   6.117  16.376  0.00  0.00    +0.000 OA
BRANCH  13  14
ATOM     14  C   UNL     1       5.296   5.791  15.009  0.00  0.00    +0.000 C 
BRANCH  14  16
ATOM     15  C   UNL     1       7.041   4.075  15.548  0.00  0.00    +0.000 C 
ATOM     16  C   UNL     1       6.335   4.826  14.412  0.00  0.00    +0.000 C 
ATOM     17  C   UNL     1       5.705   3.810  13.472  0.00  0.00    +0.000 C 
ENDBRANCH  14  16
ENDBRANCH  13  14
ENDBRANCH  11  13
BRANCH  11  18
ATOM     18  O   UNL     1       5.287   6.344  18.726  0.00  0.00    +0.000 OA
BRANCH  18  19
ATOM     19  C   UNL     1       6.222   5.280  18.860  0.00  0.00    +0.000 C 
BRANCH  19  20
ATOM     20  C   UNL     1       7.707   5.670  18.773  0.00  0.00    +0.000 C 
ATOM     21  C   UNL     1       7.928   7.120  18.325  0.00  0.00    +0.000 C 
ATOM     22  C   UNL     1       8.301   5.496  20.178  0.00  0.00    +0.000 C 
ENDBRANCH  19  20
ENDBRANCH  18  19
ENDBRANCH  11  18
ENDBRANCH   1  11
BRANCH   1  23
ATOM     23  N   UNL     1       2.947   6.073  19.991  0.00  0.00    +0.000 N 
ATOM     24  H   UNL     1       3.962   6.006  20.116  0.00  0.00    +0.000 HD
BRANCH  23  25
ATOM     25  C   UNL     1       2.457   4.819  20.377  0.00  0.00    +0.000 A 
ATOM     26  C   UNL     1       3.370   3.883  20.896  0.00  0.00    +0.000 A 
ATOM     27  C   UNL     1       2.996   2.574  21.211  0.00  0.00    +0.000 A 
ATOM     28  C   UNL     1       1.675   2.184  21.043  0.00  0.00    +0.000 A 
ATOM     29  C   UNL     1       0.734   3.122  20.627  0.00  0.00    +0.000 A 
ATOM     30  C   UNL     1       1.115   4.438  20.320  0.00  0.00    +0.000 A 
ENDBRANCH  23  25
ENDBRANCH   1  23
TORSDOF 10
ENDMDL
MODEL 7
REMARK VINA RESULT:      -6.7      3.317      6.436
REMARK  Name = 
REMARK  14 active torsions:
REMARK  status: ('A' for Active; 'I' for Inactive)
REMARK    1  A    between atoms: C_1  and  C_2
REMARK    2  A    between atoms: C_2  and  C_3
REMARK    3  A    between atoms: C_2  and  C_4
REMARK    4  A    between atoms: C_4  and  O_5
REMARK    5  A    between atoms: O_5  and  P_6
REMARK    6  A    between atoms: P_6  and  O_8
REMARK    7  A    between atoms: P_6  and  C_13
REMARK    8  A    between atoms: O_8  and  C_9
REMARK    9  A    between atoms: C_9  and  C_10
REMARK   10  A    between atoms: C_10  and  C_11
REMARK   11  A    between atoms: C_10  and  C_12
REMARK   12  A    between atoms: C_13  and  N_14
REMARK   13  A    between atoms: C_13  and  C_21
REMARK   14  A    between atoms: N_14  and  C_15
REMARK                            x       y       z     vdW  Elec       q    Type
REMARK                         _______ _______ _______ _____ _____    ______ ____
ROOT
ATOM      1  C   UNL     1       2.385   7.057  17.828  0.00  0.00    +0.000 C 
ENDROOT
BRANCH   1   2
ATOM      2  C   UNL     1       1.932   5.777  18.517  0.00  0.00    +0.000 A 
ATOM      3  C   UNL     1       1.521   4.648  17.756  0.00  0.00    +0.000 A 
ATOM      4  C   UNL     1       1.387   3.384  18.343  0.00  0.00    +0.000 A 
ATOM      5  C   UNL     1       1.662   3.300  19.688  0.00  0.00    +0.000 A 
ATOM      6  C   UNL     1       1.959   4.414  20.450  0.00  0.00    +0.000 A 
ATOM      7  C   UNL     1       2.058   5.670  19.906  0.00  0.00    +0.000 A 
ATOM      8  O   UNL     1       2.249   4.081  21.741  0.00  0.00    +0.000 OA
ATOM      9  C   UNL     1       2.428   2.659  21.579  0.00  0.00    +0.000 C 
ATOM     10  O   UNL     1       1.775   2.147  20.401  0.00  0.00    +0.000 OA
ENDBRANCH   1   2
BRANCH   1  11
ATOM     11  P   UNL     1       1.403   8.585  18.058  0.00  0.00    +0.000 P 
ATOM     12  O   UNL     1       2.549   9.468  17.517  0.00  0.00    +0.000 OA
BRANCH  11  13
ATOM     13  O   UNL     1       0.476  10.029  18.275  0.00  0.00    +0.000 OA
BRANCH  13  14
ATOM     14  C   UNL     1      -0.890  10.117  17.909  0.00  0.00    +0.000 C 
BRANCH  14  16
ATOM     15  C   UNL     1      -2.889  11.457  18.609  0.00  0.00    +0.000 C 
ATOM     16  C   UNL     1      -1.498  11.529  17.966  0.00  0.00    +0.000 C 
ATOM     17  C   UNL     1      -0.638  12.495  18.766  0.00  0.00    +0.000 C 
ENDBRANCH  14  16
ENDBRANCH  13  14
ENDBRANCH  11  13
BRANCH  11  18
ATOM     18  O   UNL     1       1.677   8.595  19.732  0.00  0.00    +0.000 OA
BRANCH  18  19
ATOM     19  C   UNL     1       1.378   9.739  20.524  0.00  0.00    +0.000 C 
BRANCH  19  20
ATOM     20  C   UNL     1       0.526   9.488  21.779  0.00  0.00    +0.000 C 
ATOM     21  C   UNL     1      -0.376  10.674  22.147  0.00  0.00    +0.000 C 
ATOM     22  C   UNL     1      -0.363   8.271  21.484  0.00  0.00    +0.000 C 
ENDBRANCH  19  20
ENDBRANCH  18  19
ENDBRANCH  11  18
ENDBRANCH   1  11
BRANCH   1  23
ATOM     23  N   UNL     1       3.854   7.185  18.161  0.00  0.00    +0.000 N 
ATOM     24  H   UNL     1       4.110   8.134  17.873  0.00  0.00    +0.000 HD
BRANCH  23  25
ATOM     25  C   UNL     1       4.843   6.364  17.604  0.00  0.00    +0.000 A 
ATOM     26  C   UNL     1       5.667   5.634  18.481  0.00  0.00    +0.000 A 
ATOM     27  C   UNL     1       6.747   4.872  18.026  0.00  0.00    +0.000 A 
ATOM     28  C   UNL     1       7.001   4.796  16.664  0.00  0.00    +0.000 A 
ATOM     29  C   UNL     1       6.139   5.428  15.772  0.00  0.00    +0.000 A 
ATOM     30  C   UNL     1       5.052   6.187  16.235  0.00  0.00    +0.000 A 
ENDBRANCH  23  25
ENDBRANCH   1  23
TORSDOF 10
ENDMDL
MODEL 8
REMARK VINA RESULT:      -6.7      3.137      7.275
REMARK  Name = 
REMARK  14 active torsions:
REMARK  status: ('A' for Active; 'I' for Inactive)
REMARK    1  A    between atoms: C_1  and  C_2
REMARK    2  A    between atoms: C_2  and  C_3
REMARK    3  A    between atoms: C_2  and  C_4
REMARK    4  A    between atoms: C_4  and  O_5
REMARK    5  A    between atoms: O_5  and  P_6
REMARK    6  A    between atoms: P_6  and  O_8
REMARK    7  A    between atoms: P_6  and  C_13
REMARK    8  A    between atoms: O_8  and  C_9
REMARK    9  A    between atoms: C_9  and  C_10
REMARK   10  A    between atoms: C_10  and  C_11
REMARK   11  A    between atoms: C_10  and  C_12
REMARK   12  A    between atoms: C_13  and  N_14
REMARK   13  A    between atoms: C_13  and  C_21
REMARK   14  A    between atoms: N_14  and  C_15
REMARK                            x       y       z     vdW  Elec       q    Type
REMARK                         _______ _______ _______ _____ _____    ______ ____
ROOT
ATOM      1  C   UNL     1       2.296   6.970  19.149  0.00  0.00    +0.000 C 
ENDROOT
BRANCH   1   2
ATOM      2  C   UNL     1       1.866   8.428  19.230  0.00  0.00    +0.000 A 
ATOM      3  C   UNL     1       1.971   9.281  18.097  0.00  0.00    +0.000 A 
ATOM      4  C   UNL     1       1.320  10.520  18.055  0.00  0.00    +0.000 A 
ATOM      5  C   UNL     1       0.589  10.865  19.167  0.00  0.00    +0.000 A 
ATOM      6  C   UNL     1       0.570  10.087  20.309  0.00  0.00    +0.000 A 
ATOM      7  C   UNL     1       1.232   8.888  20.389  0.00  0.00    +0.000 A 
ATOM      8  O   UNL     1      -0.265  10.600  21.257  0.00  0.00    +0.000 OA
ATOM      9  C   UNL     1      -0.985  11.549  20.444  0.00  0.00    +0.000 C 
ATOM     10  O   UNL     1      -0.262  11.924  19.255  0.00  0.00    +0.000 OA
ENDBRANCH   1   2
BRANCH   1  11
ATOM     11  P   UNL     1       3.976   6.570  18.542  0.00  0.00    +0.000 P 
ATOM     12  O   UNL     1       3.766   7.396  17.253  0.00  0.00    +0.000 OA
BRANCH  11  13
ATOM     13  O   UNL     1       5.563   6.194  17.968  0.00  0.00    +0.000 OA
BRANCH  13  14
ATOM     14  C   UNL     1       5.993   6.513  16.656  0.00  0.00    +0.000 C 
BRANCH  14  16
ATOM     15  C   UNL     1       7.497   4.529  16.943  0.00  0.00    +0.000 C 
ATOM     16  C   UNL     1       6.751   5.394  15.920  0.00  0.00    +0.000 C 
ATOM     17  C   UNL     1       5.821   4.503  15.111  0.00  0.00    +0.000 C 
ENDBRANCH  14  16
ENDBRANCH  13  14
ENDBRANCH  11  13
BRANCH  11  18
ATOM     18  O   UNL     1       3.513   5.009  18.069  0.00  0.00    +0.000 OA
BRANCH  18  19
ATOM     19  C   UNL     1       4.296   3.871  18.407  0.00  0.00    +0.000 C 
BRANCH  19  20
ATOM     20  C   UNL     1       3.896   2.549  17.730  0.00  0.00    +0.000 C 
ATOM     21  C   UNL     1       3.761   1.380  18.713  0.00  0.00    +0.000 C 
ATOM     22  C   UNL     1       2.536   2.783  17.057  0.00  0.00    +0.000 C 
ENDBRANCH  19  20
ENDBRANCH  18  19
ENDBRANCH  11  18
ENDBRANCH   1  11
BRANCH   1  23
ATOM     23  N   UNL     1       1.947   6.381  20.497  0.00  0.00    +0.000 N 
ATOM     24  H   UNL     1       2.706   6.674  21.120  0.00  0.00    +0.000 HD
BRANCH  23  25
ATOM     25  C   UNL     1       1.811   5.006  20.725  0.00  0.00    +0.000 A 
ATOM     26  C   UNL     1       0.833   4.308  19.993  0.00  0.00    +0.000 A 
ATOM     27  C   UNL     1       0.551   2.958  20.224  0.00  0.00    +0.000 A 
ATOM     28  C   UNL     1       1.280   2.265  21.180  0.00  0.00    +0.000 A 
ATOM     29  C   UNL     1       2.321   2.909  21.845  0.00  0.00    +0.000 A 
ATOM     30  C   UNL     1       2.603   4.263  21.602  0.00  0.00    +0.000 A 
ENDBRANCH  23  25
ENDBRANCH   1  23
TORSDOF 10
ENDMDL
MODEL 9
REMARK VINA RESULT:      -6.6      2.426      6.983
REMARK  Name = 
REMARK  14 active torsions:
REMARK  status: ('A' for Active; 'I' for Inactive)
REMARK    1  A    between atoms: C_1  and  C_2
REMARK    2  A    between atoms: C_2  and  C_3
REMARK    3  A    between atoms: C_2  and  C_4
REMARK    4  A    between atoms: C_4  and  O_5
REMARK    5  A    between atoms: O_5  and  P_6
REMARK    6  A    between atoms: P_6  and  O_8
REMARK    7  A    between atoms: P_6  and  C_13
REMARK    8  A    between atoms: O_8  and  C_9
REMARK    9  A    between atoms: C_9  and  C_10
REMARK   10  A    between atoms: C_10  and  C_11
REMARK   11  A    between atoms: C_10  and  C_12
REMARK   12  A    between atoms: C_13  and  N_14
REMARK   13  A    between atoms: C_13  and  C_21
REMARK   14  A    between atoms: N_14  and  C_15
REMARK                            x       y       z     vdW  Elec       q    Type
REMARK                         _______ _______ _______ _____ _____    ______ ____
ROOT
ATOM      1  C   UNL     1       3.133   6.163  17.929  0.00  0.00    +0.000 C 
ENDROOT
BRANCH   1   2
ATOM      2  C   UNL     1       2.569   7.475  18.459  0.00  0.00    +0.000 A 
ATOM      3  C   UNL     1       2.308   8.562  17.581  0.00  0.00    +0.000 A 
ATOM      4  C   UNL     1       1.528   9.652  17.983  0.00  0.00    +0.000 A 
ATOM      5  C   UNL     1       1.041   9.616  19.269  0.00  0.00    +0.000 A 
ATOM      6  C   UNL     1       1.379   8.613  20.158  0.00  0.00    +0.000 A 
ATOM      7  C   UNL     1       2.174   7.554  19.800  0.00  0.00    +0.000 A 
ATOM      8  O   UNL     1       0.735   8.757  21.351  0.00  0.00    +0.000 OA
ATOM      9  C   UNL     1      -0.259   9.727  20.964  0.00  0.00    +0.000 C 
ATOM     10  O   UNL     1       0.119  10.471  19.789  0.00  0.00    +0.000 OA
ENDBRANCH   1   2
BRANCH   1  11
ATOM     11  P   UNL     1       4.559   6.208  16.782  0.00  0.00    +0.000 P 
ATOM     12  O   UNL     1       4.717   4.672  16.833  0.00  0.00    +0.000 OA
BRANCH  11  13
ATOM     13  O   UNL     1       5.905   6.249  15.698  0.00  0.00    +0.000 OA
BRANCH  13  14
ATOM     14  C   UNL     1       6.497   5.073  15.175  0.00  0.00    +0.000 C 
BRANCH  14  16
ATOM     15  C   UNL     1       7.906   5.246  13.109  0.00  0.00    +0.000 C 
ATOM     16  C   UNL     1       6.495   4.960  13.640  0.00  0.00    +0.000 C 
ATOM     17  C   UNL     1       6.064   3.582  13.164  0.00  0.00    +0.000 C 
ENDBRANCH  14  16
ENDBRANCH  13  14
ENDBRANCH  11  13
BRANCH  11  18
ATOM     18  O   UNL     1       5.614   6.737  17.999  0.00  0.00    +0.000 OA
BRANCH  18  19
ATOM     19  C   UNL     1       6.112   5.843  18.987  0.00  0.00    +0.000 C 
BRANCH  19  20
ATOM     20  C   UNL     1       7.638   5.654  19.022  0.00  0.00    +0.000 C 
ATOM     21  C   UNL     1       8.133   4.538  18.093  0.00  0.00    +0.000 C 
ATOM     22  C   UNL     1       8.266   6.981  18.571  0.00  0.00    +0.000 C 
ENDBRANCH  19  20
ENDBRANCH  18  19
ENDBRANCH  11  18
ENDBRANCH   1  11
BRANCH   1  23
ATOM     23  N   UNL     1       3.322   5.293  19.151  0.00  0.00    +0.000 N 
ATOM     24  H   UNL     1       4.249   4.871  19.036  0.00  0.00    +0.000 HD
BRANCH  23  25
ATOM     25  C   UNL     1       2.480   4.221  19.471  0.00  0.00    +0.000 A 
ATOM     26  C   UNL     1       1.863   3.527  18.414  0.00  0.00    +0.000 A 
ATOM     27  C   UNL     1       0.927   2.513  18.635  0.00  0.00    +0.000 A 
ATOM     28  C   UNL     1       0.616   2.145  19.937  0.00  0.00    +0.000 A 
ATOM     29  C   UNL     1       1.289   2.749  20.996  0.00  0.00    +0.000 A 
ATOM     30  C   UNL     1       2.233   3.763  20.766  0.00  0.00    +0.000 A 
ENDBRANCH  23  25
ENDBRANCH   1  23
TORSDOF 10
ENDMDL
