MODEL 1
REMARK VINA RESULT:      -6.8      0.000      0.000
REMARK  Name = 
REMARK  7 active torsions:
REMARK  status: ('A' for Active; 'I' for Inactive)
REMARK    1  A    between atoms: C_1  and  O_2
REMARK    2  A    between atoms: O_2  and  C_3
REMARK    3  A    between atoms: C_6  and  N_7
REMARK    4  A    between atoms: N_7  and  C_8
REMARK    5  A    between atoms: C_13  and  O_14
REMARK    6  A    between atoms: O_14  and  C_15
REMARK    7  A    between atoms: C_21  and  C_22
REMARK                            x       y       z     vdW  Elec       q    Type
REMARK                         _______ _______ _______ _____ _____    ______ ____
ROOT
ATOM      1  N   UNL     1       0.238  12.846  19.618  0.00  0.00    +0.000 N 
ATOM      2  C   UNL     1      -1.010  12.432  18.970  0.00  0.00    +0.000 C 
ATOM      3  C   UNL     1       0.786  12.081  20.664  0.00  0.00    +0.000 C 
ATOM      4  O   UNL     1       1.732  12.435  21.371  0.00  0.00    +0.000 OA
ATOM      5  N   UNL     1       0.183  10.853  20.905  0.00  0.00    +0.000 N 
ATOM      6  C   UNL     1       0.623   9.933  21.958  0.00  0.00    +0.000 C 
ATOM      7  C   UNL     1       0.624   8.800  20.930  0.00  0.00    +0.000 C 
ATOM      8  C   UNL     1      -0.026   9.772  19.937  0.00  0.00    +0.000 C 
ENDROOT
BRANCH   1  12
ATOM      9  C   UNL     1       1.831  16.503  18.237  0.00  0.00    +0.000 A 
ATOM     10  C   UNL     1       0.627  16.542  18.917  0.00  0.00    +0.000 A 
ATOM     11  C   UNL     1       0.101  15.344  19.417  0.00  0.00    +0.000 A 
ATOM     12  C   UNL     1       0.771  14.132  19.227  0.00  0.00    +0.000 A 
ATOM     13  C   UNL     1       2.005  14.239  18.573  0.00  0.00    +0.000 A 
ATOM     14  N   UNL     1       2.547  15.378  18.073  0.00  0.00    +0.000 NA
BRANCH   9  16
ATOM     15  C   UNL     1       1.296  18.333  16.887  0.00  0.00    +0.000 C 
ATOM     16  O   UNL     1       2.280  17.687  17.691  0.00  0.00    +0.000 OA
ENDBRANCH   9  16
ENDBRANCH   1  12
BRANCH   7  17
ATOM     17  O   UNL     1       1.920   8.268  20.556  0.00  0.00    +0.000 OA
BRANCH  17  18
ATOM     18  C   UNL     1       1.991   7.022  19.968  0.00  0.00    +0.000 A 
ATOM     19  C   UNL     1       1.734   5.832  20.659  0.00  0.00    +0.000 A 
ATOM     20  C   UNL     1       1.894   4.598  20.026  0.00  0.00    +0.000 A 
ATOM     21  C   UNL     1       2.308   4.554  18.704  0.00  0.00    +0.000 A 
ATOM     22  F   UNL     1       2.474   3.369  18.103  0.00  0.00    +0.000 F 
ATOM     23  C   UNL     1       2.558   5.725  17.997  0.00  0.00    +0.000 A 
ATOM     24  C   UNL     1       2.410   6.972  18.623  0.00  0.00    +0.000 A 
ATOM     25  C   UNL     1       2.666   8.222  17.826  0.00  0.00    +0.000 C 
ENDBRANCH  17  18
ENDBRANCH   7  17
TORSDOF 4
ENDMDL
MODEL 2
REMARK VINA RESULT:      -6.8      3.758      4.834
REMARK  Name = 
REMARK  7 active torsions:
REMARK  status: ('A' for Active; 'I' for Inactive)
REMARK    1  A    between atoms: C_1  and  O_2
REMARK    2  A    between atoms: O_2  and  C_3
REMARK    3  A    between atoms: C_6  and  N_7
REMARK    4  A    between atoms: N_7  and  C_8
REMARK    5  A    between atoms: C_13  and  O_14
REMARK    6  A    between atoms: O_14  and  C_15
REMARK    7  A    between atoms: C_21  and  C_22
REMARK                            x       y       z     vdW  Elec       q    Type
REMARK                         _______ _______ _______ _____ _____    ______ ____
ROOT
ATOM      1  N   UNL     1       0.079  10.206  19.751  0.00  0.00    +0.000 N 
ATOM      2  C   UNL     1       0.704  10.216  21.076  0.00  0.00    +0.000 C 
ATOM      3  C   UNL     1       0.731   9.606  18.659  0.00  0.00    +0.000 C 
ATOM      4  O   UNL     1       0.361   9.692  17.486  0.00  0.00    +0.000 OA
ATOM      5  N   UNL     1       1.884   8.888  18.953  0.00  0.00    +0.000 N 
ATOM      6  C   UNL     1       2.689   8.206  17.936  0.00  0.00    +0.000 C 
ATOM      7  C   UNL     1       2.675   6.948  18.809  0.00  0.00    +0.000 C 
ATOM      8  C   UNL     1       2.011   7.784  19.910  0.00  0.00    +0.000 C 
ENDROOT
BRANCH   1  12
ATOM      9  C   UNL     1      -3.625  12.186  19.324  0.00  0.00    +0.000 A 
ATOM     10  C   UNL     1      -2.812  12.564  20.377  0.00  0.00    +0.000 A 
ATOM     11  C   UNL     1      -1.562  11.946  20.513  0.00  0.00    +0.000 A 
ATOM     12  C   UNL     1      -1.146  10.961  19.612  0.00  0.00    +0.000 A 
ATOM     13  C   UNL     1      -2.038  10.713  18.561  0.00  0.00    +0.000 A 
ATOM     14  N   UNL     1      -3.255  11.288  18.395  0.00  0.00    +0.000 NA
BRANCH   9  16
ATOM     15  C   UNL     1      -5.544  12.759  20.526  0.00  0.00    +0.000 C 
ATOM     16  O   UNL     1      -4.878  12.757  19.265  0.00  0.00    +0.000 OA
ENDBRANCH   9  16
ENDBRANCH   1  12
BRANCH   7  17
ATOM     17  O   UNL     1       1.912   5.822  18.307  0.00  0.00    +0.000 OA
BRANCH  17  18
ATOM     18  C   UNL     1       2.478   4.564  18.328  0.00  0.00    +0.000 A 
ATOM     19  C   UNL     1       3.478   4.157  17.437  0.00  0.00    +0.000 A 
ATOM     20  C   UNL     1       3.958   2.847  17.463  0.00  0.00    +0.000 A 
ATOM     21  C   UNL     1       3.440   1.945  18.379  0.00  0.00    +0.000 A 
ATOM     22  F   UNL     1       3.893   0.685  18.393  0.00  0.00    +0.000 F 
ATOM     23  C   UNL     1       2.454   2.332  19.279  0.00  0.00    +0.000 A 
ATOM     24  C   UNL     1       1.955   3.644  19.259  0.00  0.00    +0.000 A 
ATOM     25  C   UNL     1       0.905   4.039  20.260  0.00  0.00    +0.000 C 
ENDBRANCH  17  18
ENDBRANCH   7  17
TORSDOF 4
ENDMDL
MODEL 3
REMARK VINA RESULT:      -6.6      3.838      4.774
REMARK  Name = 
REMARK  7 active torsions:
REMARK  status: ('A' for Active; 'I' for Inactive)
REMARK    1  A    between atoms: C_1  and  O_2
REMARK    2  A    between atoms: O_2  and  C_3
REMARK    3  A    between atoms: C_6  and  N_7
REMARK    4  A    between atoms: N_7  and  C_8
REMARK    5  A    between atoms: C_13  and  O_14
REMARK    6  A    between atoms: O_14  and  C_15
REMARK    7  A    between atoms: C_21  and  C_22
REMARK                            x       y       z     vdW  Elec       q    Type
REMARK                         _______ _______ _______ _____ _____    ______ ____
ROOT
ATOM      1  N   UNL     1       0.166  10.208  20.033  0.00  0.00    +0.000 N 
ATOM      2  C   UNL     1       0.927  10.202  21.286  0.00  0.00    +0.000 C 
ATOM      3  C   UNL     1       0.705   9.632  18.868  0.00  0.00    +0.000 C 
ATOM      4  O   UNL     1       0.214   9.735  17.742  0.00  0.00    +0.000 OA
ATOM      5  N   UNL     1       1.887   8.919  19.028  0.00  0.00    +0.000 N 
ATOM      6  C   UNL     1       2.586   8.261  17.921  0.00  0.00    +0.000 C 
ATOM      7  C   UNL     1       2.672   6.990  18.768  0.00  0.00    +0.000 C 
ATOM      8  C   UNL     1       2.121   7.801  19.948  0.00  0.00    +0.000 C 
ENDROOT
BRANCH   1  12
ATOM      9  C   UNL     1      -3.315  12.596  20.123  0.00  0.00    +0.000 A 
ATOM     10  C   UNL     1      -3.059  11.874  18.971  0.00  0.00    +0.000 A 
ATOM     11  C   UNL     1      -1.930  11.045  18.936  0.00  0.00    +0.000 A 
ATOM     12  C   UNL     1      -1.072  10.955  20.036  0.00  0.00    +0.000 A 
ATOM     13  C   UNL     1      -1.475  11.692  21.157  0.00  0.00    +0.000 A 
ATOM     14  N   UNL     1      -2.558  12.505  21.230  0.00  0.00    +0.000 NA
BRANCH   9  16
ATOM     15  C   UNL     1      -5.539  12.929  20.751  0.00  0.00    +0.000 C 
ATOM     16  O   UNL     1      -4.389  13.459  20.096  0.00  0.00    +0.000 OA
ENDBRANCH   9  16
ENDBRANCH   1  12
BRANCH   7  17
ATOM     17  O   UNL     1       1.868   5.865  18.329  0.00  0.00    +0.000 OA
BRANCH  17  18
ATOM     18  C   UNL     1       2.422   4.602  18.335  0.00  0.00    +0.000 A 
ATOM     19  C   UNL     1       3.397   4.186  17.420  0.00  0.00    +0.000 A 
ATOM     20  C   UNL     1       3.864   2.870  17.432  0.00  0.00    +0.000 A 
ATOM     21  C   UNL     1       3.358   1.972  18.358  0.00  0.00    +0.000 A 
ATOM     22  F   UNL     1       3.797   0.707  18.359  0.00  0.00    +0.000 F 
ATOM     23  C   UNL     1       2.397   2.367  19.282  0.00  0.00    +0.000 A 
ATOM     24  C   UNL     1       1.911   3.685  19.276  0.00  0.00    +0.000 A 
ATOM     25  C   UNL     1       0.888   4.088  20.301  0.00  0.00    +0.000 C 
ENDBRANCH  17  18
ENDBRANCH   7  17
TORSDOF 4
ENDMDL
MODEL 4
REMARK VINA RESULT:      -6.6      4.719      9.085
REMARK  Name = 
REMARK  7 active torsions:
REMARK  status: ('A' for Active; 'I' for Inactive)
REMARK    1  A    between atoms: C_1  and  O_2
REMARK    2  A    between atoms: O_2  and  C_3
REMARK    3  A    between atoms: C_6  and  N_7
REMARK    4  A    between atoms: N_7  and  C_8
REMARK    5  A    between atoms: C_13  and  O_14
REMARK    6  A    between atoms: O_14  and  C_15
REMARK    7  A    between atoms: C_21  and  C_22
REMARK                            x       y       z     vdW  Elec       q    Type
REMARK                         _______ _______ _______ _____ _____    ______ ____
ROOT
ATOM      1  N   UNL     1       2.448   7.550  18.587  0.00  0.00    +0.000 N 
ATOM      2  C   UNL     1       3.046   8.363  17.525  0.00  0.00    +0.000 C 
ATOM      3  C   UNL     1       1.569   8.130  19.519  0.00  0.00    +0.000 C 
ATOM      4  O   UNL     1       1.151   7.569  20.534  0.00  0.00    +0.000 OA
ATOM      5  N   UNL     1       1.178   9.438  19.260  0.00  0.00    +0.000 N 
ATOM      6  C   UNL     1       0.273  10.195  20.130  0.00  0.00    +0.000 C 
ATOM      7  C   UNL     1      -0.546  10.580  18.895  0.00  0.00    +0.000 C 
ATOM      8  C   UNL     1       0.551   9.941  18.034  0.00  0.00    +0.000 C 
ENDROOT
BRANCH   1  12
ATOM      9  C   UNL     1       3.881   3.622  19.173  0.00  0.00    +0.000 A 
ATOM     10  C   UNL     1       2.661   3.774  18.540  0.00  0.00    +0.000 A 
ATOM     11  C   UNL     1       2.186   5.070  18.302  0.00  0.00    +0.000 A 
ATOM     12  C   UNL     1       2.923   6.189  18.701  0.00  0.00    +0.000 A 
ATOM     13  C   UNL     1       4.165   5.898  19.279  0.00  0.00    +0.000 A 
ATOM     14  N   UNL     1       4.659   4.660  19.527  0.00  0.00    +0.000 NA
BRANCH   9  16
ATOM     15  C   UNL     1       3.673   1.365  18.612  0.00  0.00    +0.000 C 
ATOM     16  O   UNL     1       4.282   2.335  19.461  0.00  0.00    +0.000 OA
ENDBRANCH   9  16
ENDBRANCH   1  12
BRANCH   7  17
ATOM     17  O   UNL     1      -1.869   9.996  18.789  0.00  0.00    +0.000 OA
BRANCH  17  18
ATOM     18  C   UNL     1      -2.913  10.777  18.339  0.00  0.00    +0.000 A 
ATOM     19  C   UNL     1      -3.597  11.689  19.152  0.00  0.00    +0.000 A 
ATOM     20  C   UNL     1      -4.694  12.396  18.656  0.00  0.00    +0.000 A 
ATOM     21  C   UNL     1      -5.105  12.194  17.348  0.00  0.00    +0.000 A 
ATOM     22  F   UNL     1      -6.165  12.863  16.878  0.00  0.00    +0.000 F 
ATOM     23  C   UNL     1      -4.433  11.301  16.521  0.00  0.00    +0.000 A 
ATOM     24  C   UNL     1      -3.335  10.576  17.009  0.00  0.00    +0.000 A 
ATOM     25  C   UNL     1      -2.615   9.634  16.084  0.00  0.00    +0.000 C 
ENDBRANCH  17  18
ENDBRANCH   7  17
TORSDOF 4
ENDMDL
MODEL 5
REMARK VINA RESULT:      -6.5      4.266      8.743
REMARK  Name = 
REMARK  7 active torsions:
REMARK  status: ('A' for Active; 'I' for Inactive)
REMARK    1  A    between atoms: C_1  and  O_2
REMARK    2  A    between atoms: O_2  and  C_3
REMARK    3  A    between atoms: C_6  and  N_7
REMARK    4  A    between atoms: N_7  and  C_8
REMARK    5  A    between atoms: C_13  and  O_14
REMARK    6  A    between atoms: O_14  and  C_15
REMARK    7  A    between atoms: C_21  and  C_22
REMARK                            x       y       z     vdW  Elec       q    Type
REMARK                         _______ _______ _______ _____ _____    ______ ____
ROOT
ATOM      1  N   UNL     1       2.411   7.658  18.726  0.00  0.00    +0.000 N 
ATOM      2  C   UNL     1       3.002   8.431  17.631  0.00  0.00    +0.000 C 
ATOM      3  C   UNL     1       1.679   8.302  19.740  0.00  0.00    +0.000 C 
ATOM      4  O   UNL     1       1.289   7.760  20.776  0.00  0.00    +0.000 OA
ATOM      5  N   UNL     1       1.409   9.650  19.539  0.00  0.00    +0.000 N 
ATOM      6  C   UNL     1       0.665  10.473  20.495  0.00  0.00    +0.000 C 
ATOM      7  C   UNL     1      -0.207  10.975  19.342  0.00  0.00    +0.000 C 
ATOM      8  C   UNL     1       0.740  10.248  18.379  0.00  0.00    +0.000 C 
ENDROOT
BRANCH   1  12
ATOM      9  C   UNL     1       3.398   3.573  19.130  0.00  0.00    +0.000 A 
ATOM     10  C   UNL     1       2.314   3.897  18.335  0.00  0.00    +0.000 A 
ATOM     11  C   UNL     1       1.993   5.249  18.157  0.00  0.00    +0.000 A 
ATOM     12  C   UNL     1       2.746   6.252  18.775  0.00  0.00    +0.000 A 
ATOM     13  C   UNL     1       3.849   5.792  19.506  0.00  0.00    +0.000 A 
ATOM     14  N   UNL     1       4.191   4.495  19.703  0.00  0.00    +0.000 NA
BRANCH   9  16
ATOM     15  C   UNL     1       3.463   1.444  18.171  0.00  0.00    +0.000 C 
ATOM     16  O   UNL     1       3.638   2.233  19.346  0.00  0.00    +0.000 OA
ENDBRANCH   9  16
ENDBRANCH   1  12
BRANCH   7  17
ATOM     17  O   UNL     1      -1.590  10.536  19.339  0.00  0.00    +0.000 OA
BRANCH  17  18
ATOM     18  C   UNL     1      -2.283  10.511  18.147  0.00  0.00    +0.000 A 
ATOM     19  C   UNL     1      -1.881   9.753  17.040  0.00  0.00    +0.000 A 
ATOM     20  C   UNL     1      -2.586   9.828  15.837  0.00  0.00    +0.000 A 
ATOM     21  C   UNL     1      -3.692  10.657  15.742  0.00  0.00    +0.000 A 
ATOM     22  F   UNL     1      -4.359  10.738  14.583  0.00  0.00    +0.000 F 
ATOM     23  C   UNL     1      -4.114  11.409  16.832  0.00  0.00    +0.000 A 
ATOM     24  C   UNL     1      -3.410  11.352  18.045  0.00  0.00    +0.000 A 
ATOM     25  C   UNL     1      -3.904  12.160  19.213  0.00  0.00    +0.000 C 
ENDBRANCH  17  18
ENDBRANCH   7  17
TORSDOF 4
ENDMDL
MODEL 6
REMARK VINA RESULT:      -6.4      3.782      4.803
REMARK  Name = 
REMARK  7 active torsions:
REMARK  status: ('A' for Active; 'I' for Inactive)
REMARK    1  A    between atoms: C_1  and  O_2
REMARK    2  A    between atoms: O_2  and  C_3
REMARK    3  A    between atoms: C_6  and  N_7
REMARK    4  A    between atoms: N_7  and  C_8
REMARK    5  A    between atoms: C_13  and  O_14
REMARK    6  A    between atoms: O_14  and  C_15
REMARK    7  A    between atoms: C_21  and  C_22
REMARK                            x       y       z     vdW  Elec       q    Type
REMARK                         _______ _______ _______ _____ _____    ______ ____
ROOT
ATOM      1  N   UNL     1      -0.059   9.871  19.644  0.00  0.00    +0.000 N 
ATOM      2  C   UNL     1       0.254   9.624  21.054  0.00  0.00    +0.000 C 
ATOM      3  C   UNL     1       0.836   9.471  18.634  0.00  0.00    +0.000 C 
ATOM      4  O   UNL     1       0.736   9.779  17.445  0.00  0.00    +0.000 OA
ATOM      5  N   UNL     1       1.910   8.689  19.042  0.00  0.00    +0.000 N 
ATOM      6  C   UNL     1       2.938   8.192  18.124  0.00  0.00    +0.000 C 
ATOM      7  C   UNL     1       2.759   6.796  18.725  0.00  0.00    +0.000 C 
ATOM      8  C   UNL     1       1.846   7.426  19.784  0.00  0.00    +0.000 C 
ENDROOT
BRANCH   1  12
ATOM      9  C   UNL     1      -3.645  11.961  18.875  0.00  0.00    +0.000 A 
ATOM     10  C   UNL     1      -2.807  12.461  19.855  0.00  0.00    +0.000 A 
ATOM     11  C   UNL     1      -1.594  11.803  20.099  0.00  0.00    +0.000 A 
ATOM     12  C   UNL     1      -1.239  10.661  19.375  0.00  0.00    +0.000 A 
ATOM     13  C   UNL     1      -2.148  10.294  18.374  0.00  0.00    +0.000 A 
ATOM     14  N   UNL     1      -3.331  10.902  18.109  0.00  0.00    +0.000 NA
BRANCH   9  16
ATOM     15  C   UNL     1      -5.637  12.023  17.658  0.00  0.00    +0.000 C 
ATOM     16  O   UNL     1      -4.863  12.586  18.715  0.00  0.00    +0.000 OA
ENDBRANCH   9  16
ENDBRANCH   1  12
BRANCH   7  17
ATOM     17  O   UNL     1       2.154   5.796  17.866  0.00  0.00    +0.000 OA
BRANCH  17  18
ATOM     18  C   UNL     1       2.514   4.473  18.019  0.00  0.00    +0.000 A 
ATOM     19  C   UNL     1       1.778   3.561  18.785  0.00  0.00    +0.000 A 
ATOM     20  C   UNL     1       2.234   2.253  18.961  0.00  0.00    +0.000 A 
ATOM     21  C   UNL     1       3.424   1.858  18.371  0.00  0.00    +0.000 A 
ATOM     22  F   UNL     1       3.867   0.608  18.552  0.00  0.00    +0.000 F 
ATOM     23  C   UNL     1       4.165   2.745  17.598  0.00  0.00    +0.000 A 
ATOM     24  C   UNL     1       3.722   4.065  17.420  0.00  0.00    +0.000 A 
ATOM     25  C   UNL     1       4.534   4.995  16.560  0.00  0.00    +0.000 C 
ENDBRANCH  17  18
ENDBRANCH   7  17
TORSDOF 4
ENDMDL
MODEL 7
REMARK VINA RESULT:      -6.3      3.885      9.197
REMARK  Name = 
REMARK  7 active torsions:
REMARK  status: ('A' for Active; 'I' for Inactive)
REMARK    1  A    between atoms: C_1  and  O_2
REMARK    2  A    between atoms: O_2  and  C_3
REMARK    3  A    between atoms: C_6  and  N_7
REMARK    4  A    between atoms: N_7  and  C_8
REMARK    5  A    between atoms: C_13  and  O_14
REMARK    6  A    between atoms: O_14  and  C_15
REMARK    7  A    between atoms: C_21  and  C_22
REMARK                            x       y       z     vdW  Elec       q    Type
REMARK                         _______ _______ _______ _____ _____    ______ ____
ROOT
ATOM      1  N   UNL     1       1.757   8.320  19.548  0.00  0.00    +0.000 N 
ATOM      2  C   UNL     1       1.355   8.311  20.957  0.00  0.00    +0.000 C 
ATOM      3  C   UNL     1       1.301   9.332  18.683  0.00  0.00    +0.000 C 
ATOM      4  O   UNL     1       1.451   9.330  17.459  0.00  0.00    +0.000 OA
ATOM      5  N   UNL     1       0.620  10.386  19.279  0.00  0.00    +0.000 N 
ATOM      6  C   UNL     1       0.073  11.519  18.527  0.00  0.00    +0.000 C 
ATOM      7  C   UNL     1       0.737  12.467  19.527  0.00  0.00    +0.000 C 
ATOM      8  C   UNL     1       1.102  11.239  20.370  0.00  0.00    +0.000 C 
ENDROOT
BRANCH   1  12
ATOM      9  C   UNL     1       3.721   4.838  18.191  0.00  0.00    +0.000 A 
ATOM     10  C   UNL     1       3.958   6.017  17.509  0.00  0.00    +0.000 A 
ATOM     11  C   UNL     1       3.346   7.191  17.967  0.00  0.00    +0.000 A 
ATOM     12  C   UNL     1       2.505   7.174  19.084  0.00  0.00    +0.000 A 
ATOM     13  C   UNL     1       2.395   5.928  19.716  0.00  0.00    +0.000 A 
ATOM     14  N   UNL     1       2.968   4.771  19.303  0.00  0.00    +0.000 NA
BRANCH   9  16
ATOM     15  C   UNL     1       3.469   2.535  17.895  0.00  0.00    +0.000 C 
ATOM     16  O   UNL     1       4.275   3.689  17.669  0.00  0.00    +0.000 OA
ENDBRANCH   9  16
ENDBRANCH   1  12
BRANCH   7  17
ATOM     17  O   UNL     1       1.846  13.259  19.029  0.00  0.00    +0.000 OA
BRANCH  17  18
ATOM     18  C   UNL     1       1.652  14.600  18.772  0.00  0.00    +0.000 A 
ATOM     19  C   UNL     1       0.416  15.240  18.926  0.00  0.00    +0.000 A 
ATOM     20  C   UNL     1       0.267  16.584  18.578  0.00  0.00    +0.000 A 
ATOM     21  C   UNL     1       1.353  17.287  18.080  0.00  0.00    +0.000 A 
ATOM     22  F   UNL     1       1.204  18.572  17.734  0.00  0.00    +0.000 F 
ATOM     23  C   UNL     1       2.590  16.673  17.929  0.00  0.00    +0.000 A 
ATOM     24  C   UNL     1       2.753  15.320  18.266  0.00  0.00    +0.000 A 
ATOM     25  C   UNL     1       4.109  14.689  18.113  0.00  0.00    +0.000 C 
ENDBRANCH  17  18
ENDBRANCH   7  17
TORSDOF 4
ENDMDL
MODEL 8
REMARK VINA RESULT:      -6.3      5.170      9.041
REMARK  Name = 
REMARK  7 active torsions:
REMARK  status: ('A' for Active; 'I' for Inactive)
REMARK    1  A    between atoms: C_1  and  O_2
REMARK    2  A    between atoms: O_2  and  C_3
REMARK    3  A    between atoms: C_6  and  N_7
REMARK    4  A    between atoms: N_7  and  C_8
REMARK    5  A    between atoms: C_13  and  O_14
REMARK    6  A    between atoms: O_14  and  C_15
REMARK    7  A    between atoms: C_21  and  C_22
REMARK                            x       y       z     vdW  Elec       q    Type
REMARK                         _______ _______ _______ _____ _____    ______ ____
ROOT
ATOM      1  N   UNL     1       4.308   5.239  18.248  0.00  0.00    +0.000 N 
ATOM      2  C   UNL     1       5.249   5.331  19.367  0.00  0.00    +0.000 C 
ATOM      3  C   UNL     1       2.920   5.247  18.481  0.00  0.00    +0.000 C 
ATOM      4  O   UNL     1       2.063   5.011  17.627  0.00  0.00    +0.000 OA
ATOM      5  N   UNL     1       2.520   5.525  19.782  0.00  0.00    +0.000 N 
ATOM      6  C   UNL     1       1.116   5.569  20.201  0.00  0.00    +0.000 C 
ATOM      7  C   UNL     1       1.388   6.915  20.875  0.00  0.00    +0.000 C 
ATOM      8  C   UNL     1       2.878   6.704  20.579  0.00  0.00    +0.000 C 
ENDROOT
BRANCH   1  12
ATOM      9  C   UNL     1       6.166   4.693  14.497  0.00  0.00    +0.000 A 
ATOM     10  C   UNL     1       5.836   3.562  15.222  0.00  0.00    +0.000 A 
ATOM     11  C   UNL     1       5.184   3.721  16.451  0.00  0.00    +0.000 A 
ATOM     12  C   UNL     1       4.880   4.994  16.943  0.00  0.00    +0.000 A 
ATOM     13  C   UNL     1       5.216   6.050  16.087  0.00  0.00    +0.000 A 
ATOM     14  N   UNL     1       5.849   5.938  14.892  0.00  0.00    +0.000 NA
BRANCH   9  16
ATOM     15  C   UNL     1       6.290   3.519  12.482  0.00  0.00    +0.000 C 
ATOM     16  O   UNL     1       6.876   4.504  13.330  0.00  0.00    +0.000 OA
ENDBRANCH   9  16
ENDBRANCH   1  12
BRANCH   7  17
ATOM     17  O   UNL     1       0.769   8.078  20.268  0.00  0.00    +0.000 OA
BRANCH  17  18
ATOM     18  C   UNL     1       0.255   9.067  21.081  0.00  0.00    +0.000 A 
ATOM     19  C   UNL     1       0.183   8.954  22.475  0.00  0.00    +0.000 A 
ATOM     20  C   UNL     1      -0.416   9.960  23.236  0.00  0.00    +0.000 A 
ATOM     21  C   UNL     1      -0.941  11.076  22.604  0.00  0.00    +0.000 A 
ATOM     22  F   UNL     1      -1.528  12.033  23.335  0.00  0.00    +0.000 F 
ATOM     23  C   UNL     1      -0.871  11.212  21.223  0.00  0.00    +0.000 A 
ATOM     24  C   UNL     1      -0.279  10.205  20.444  0.00  0.00    +0.000 A 
ATOM     25  C   UNL     1      -0.198  10.390  18.954  0.00  0.00    +0.000 C 
ENDBRANCH  17  18
ENDBRANCH   7  17
TORSDOF 4
ENDMDL
MODEL 9
REMARK VINA RESULT:      -6.3      3.949      5.106
REMARK  Name = 
REMARK  7 active torsions:
REMARK  status: ('A' for Active; 'I' for Inactive)
REMARK    1  A    between atoms: C_1  and  O_2
REMARK    2  A    between atoms: O_2  and  C_3
REMARK    3  A    between atoms: C_6  and  N_7
REMARK    4  A    between atoms: N_7  and  C_8
REMARK    5  A    between atoms: C_13  and  O_14
REMARK    6  A    between atoms: O_14  and  C_15
REMARK    7  A    between atoms: C_21  and  C_22
REMARK                            x       y       z     vdW  Elec       q    Type
REMARK                         _______ _______ _______ _____ _____    ______ ____
ROOT
ATOM      1  N   UNL     1      -0.598  10.219  19.233  0.00  0.00    +0.000 N 
ATOM      2  C   UNL     1      -0.127  10.581  20.573  0.00  0.00    +0.000 C 
ATOM      3  C   UNL     1       0.264   9.581  18.323  0.00  0.00    +0.000 C 
ATOM      4  O   UNL     1       0.011   9.389  17.132  0.00  0.00    +0.000 OA
ATOM      5  N   UNL     1       1.491   9.167  18.829  0.00  0.00    +0.000 N 
ATOM      6  C   UNL     1       2.509   8.492  18.019  0.00  0.00    +0.000 C 
ATOM      7  C   UNL     1       2.632   7.427  19.111  0.00  0.00    +0.000 C 
ATOM      8  C   UNL     1       1.714   8.292  19.984  0.00  0.00    +0.000 C 
ENDROOT
BRANCH   1  12
ATOM      9  C   UNL     1      -4.542  11.334  18.222  0.00  0.00    +0.000 A 
ATOM     10  C   UNL     1      -3.839  12.162  19.077  0.00  0.00    +0.000 A 
ATOM     11  C   UNL     1      -2.515  11.830  19.394  0.00  0.00    +0.000 A 
ATOM     12  C   UNL     1      -1.918  10.682  18.867  0.00  0.00    +0.000 A 
ATOM     13  C   UNL     1      -2.718   9.962  17.971  0.00  0.00    +0.000 A 
ATOM     14  N   UNL     1      -4.002  10.249  17.640  0.00  0.00    +0.000 NA
BRANCH   9  16
ATOM     15  C   UNL     1      -6.024  12.752  17.106  0.00  0.00    +0.000 C 
ATOM     16  O   UNL     1      -5.865  11.647  17.993  0.00  0.00    +0.000 OA
ENDBRANCH   9  16
ENDBRANCH   1  12
BRANCH   7  17
ATOM     17  O   UNL     1       2.142   6.102  18.779  0.00  0.00    +0.000 OA
BRANCH  17  18
ATOM     18  C   UNL     1       2.897   5.001  19.128  0.00  0.00    +0.000 A 
ATOM     19  C   UNL     1       4.222   4.816  18.715  0.00  0.00    +0.000 A 
ATOM     20  C   UNL     1       4.908   3.645  19.041  0.00  0.00    +0.000 A 
ATOM     21  C   UNL     1       4.270   2.660  19.779  0.00  0.00    +0.000 A 
ATOM     22  F   UNL     1       4.925   1.531  20.079  0.00  0.00    +0.000 F 
ATOM     23  C   UNL     1       2.958   2.829  20.207  0.00  0.00    +0.000 A 
ATOM     24  C   UNL     1       2.253   3.997  19.879  0.00  0.00    +0.000 A 
ATOM     25  C   UNL     1       0.843   4.160  20.375  0.00  0.00    +0.000 C 
ENDBRANCH  17  18
ENDBRANCH   7  17
TORSDOF 4
ENDMDL
