MODEL 1
REMARK VINA RESULT:      -7.0      0.000      0.000
REMARK  Name = 
REMARK  11 active torsions:
REMARK  status: ('A' for Active; 'I' for Inactive)
REMARK    1  A    between atoms: C_1  and  C_2
REMARK    2  A    between atoms: C_2  and  C_3
REMARK    3  A    between atoms: C_2  and  C_4
REMARK    4  A    between atoms: C_2  and  C_5
REMARK    5  A    between atoms: C_5  and  O_7
REMARK    6  A    between atoms: O_7  and  C_8
REMARK    7  A    between atoms: C_8  and  O_9
REMARK    8  A    between atoms: O_9  and  P_10
REMARK    9  A    between atoms: P_10  and  N_11
REMARK   10  A    between atoms: P_10  and  C_13
REMARK   11  A    between atoms: N_17  and  O_18
REMARK                            x       y       z     vdW  Elec       q    Type
REMARK                         _______ _______ _______ _____ _____    ______ ____
ROOT
ATOM      1  P   UNL     1       2.744   4.944  19.497  0.00  0.00    +0.000 P 
ATOM      2  O   UNL     1       1.632   5.218  18.480  0.00  0.00    +0.000 OA
ENDROOT
BRANCH   1   3
ATOM      3  C   UNL     1       1.931   3.360  19.920  0.00  0.00    +0.000 C 
ATOM      4  C   UNL     1       1.451   2.499  18.707  0.00  0.00    +0.000 C 
ATOM      5  C   UNL     1       2.597   2.094  17.757  0.00  0.00    +0.000 C 
ATOM      6  C   UNL     1       3.697   1.410  18.534  0.00  0.00    +0.000 C 
ATOM      7  N   UNL     1       4.068   2.167  19.720  0.00  0.00    +0.000 N 
ATOM      8  C   UNL     1       3.058   2.603  20.599  0.00  0.00    +0.000 C 
ATOM      9  O   UNL     1       3.136   2.547  21.824  0.00  0.00    +0.000 OA
BRANCH   7  10
ATOM     10  O   UNL     1       5.099   1.462  20.396  0.00  0.00    +0.000 OA
ATOM     11  H   UNL     1       5.712   2.184  20.627  0.00  0.00    +0.000 HD
ENDBRANCH   7  10
ENDBRANCH   1   3
BRANCH   1  12
ATOM     12  N   UNL     1       2.198   5.684  20.915  0.00  0.00    +0.000 NA
ATOM     13  H   UNL     1       2.290   6.692  20.896  0.00  0.00    +0.000 HD
ATOM     14  H   UNL     1       2.485   5.339  21.820  0.00  0.00    +0.000 HD
ENDBRANCH   1  12
BRANCH   1  15
ATOM     15  O   UNL     1       3.511   6.442  19.098  0.00  0.00    +0.000 OA
BRANCH  15  16
ATOM     16  C   UNL     1       3.829   6.696  17.732  0.00  0.00    +0.000 C 
BRANCH  16  17
ATOM     17  O   UNL     1       5.212   6.471  17.469  0.00  0.00    +0.000 OA
BRANCH  17  18
ATOM     18  C   UNL     1       5.483   6.189  16.161  0.00  0.00    +0.000 C 
ATOM     19  O   UNL     1       5.156   6.887  15.217  0.00  0.00    +0.000 OA
BRANCH  18  21
ATOM     20  C   UNL     1       5.333   3.713  16.087  0.00  0.00    +0.000 C 
ATOM     21  C   UNL     1       6.297   4.907  16.044  0.00  0.00    +0.000 C 
ATOM     22  C   UNL     1       7.282   4.806  17.217  0.00  0.00    +0.000 C 
ATOM     23  C   UNL     1       7.054   4.899  14.709  0.00  0.00    +0.000 C 
ENDBRANCH  18  21
ENDBRANCH  17  18
ENDBRANCH  16  17
ENDBRANCH  15  16
ENDBRANCH   1  15
TORSDOF 8
ENDMDL
MODEL 2
REMARK VINA RESULT:      -7.0      1.332      1.618
REMARK  Name = 
REMARK  11 active torsions:
REMARK  status: ('A' for Active; 'I' for Inactive)
REMARK    1  A    between atoms: C_1  and  C_2
REMARK    2  A    between atoms: C_2  and  C_3
REMARK    3  A    between atoms: C_2  and  C_4
REMARK    4  A    between atoms: C_2  and  C_5
REMARK    5  A    between atoms: C_5  and  O_7
REMARK    6  A    between atoms: O_7  and  C_8
REMARK    7  A    between atoms: C_8  and  O_9
REMARK    8  A    between atoms: O_9  and  P_10
REMARK    9  A    between atoms: P_10  and  N_11
REMARK   10  A    between atoms: P_10  and  C_13
REMARK   11  A    between atoms: N_17  and  O_18
REMARK                            x       y       z     vdW  Elec       q    Type
REMARK                         _______ _______ _______ _____ _____    ______ ____
ROOT
ATOM      1  P   UNL     1       2.715   5.347  19.320  0.00  0.00    +0.000 P 
ATOM      2  O   UNL     1       1.894   6.137  20.342  0.00  0.00    +0.000 OA
ENDROOT
BRANCH   1   3
ATOM      3  C   UNL     1       2.728   3.923  20.469  0.00  0.00    +0.000 C 
ATOM      4  C   UNL     1       1.341   3.251  20.733  0.00  0.00    +0.000 C 
ATOM      5  C   UNL     1       0.681   2.698  19.453  0.00  0.00    +0.000 C 
ATOM      6  C   UNL     1       1.633   1.766  18.740  0.00  0.00    +0.000 C 
ATOM      7  N   UNL     1       2.953   2.359  18.589  0.00  0.00    +0.000 N 
ATOM      8  C   UNL     1       3.585   2.921  19.716  0.00  0.00    +0.000 C 
ATOM      9  O   UNL     1       4.773   2.770  19.989  0.00  0.00    +0.000 OA
BRANCH   7  10
ATOM     10  O   UNL     1       3.788   1.427  17.918  0.00  0.00    +0.000 OA
ATOM     11  H   UNL     1       3.701   0.640  18.487  0.00  0.00    +0.000 HD
ENDBRANCH   7  10
ENDBRANCH   1   3
BRANCH   1  12
ATOM     12  N   UNL     1       4.318   5.742  19.680  0.00  0.00    +0.000 NA
ATOM     13  H   UNL     1       4.977   5.390  18.996  0.00  0.00    +0.000 HD
ATOM     14  H   UNL     1       4.689   5.596  20.608  0.00  0.00    +0.000 HD
ENDBRANCH   1  12
BRANCH   1  15
ATOM     15  O   UNL     1       2.704   6.692  18.233  0.00  0.00    +0.000 OA
BRANCH  15  16
ATOM     16  C   UNL     1       3.934   7.086  17.632  0.00  0.00    +0.000 C 
BRANCH  16  17
ATOM     17  O   UNL     1       4.486   6.035  16.841  0.00  0.00    +0.000 OA
BRANCH  17  18
ATOM     18  C   UNL     1       5.809   6.205  16.550  0.00  0.00    +0.000 C 
ATOM     19  O   UNL     1       6.398   7.271  16.586  0.00  0.00    +0.000 OA
BRANCH  18  21
ATOM     20  C   UNL     1       5.380   3.781  16.234  0.00  0.00    +0.000 C 
ATOM     21  C   UNL     1       6.464   4.869  16.223  0.00  0.00    +0.000 C 
ATOM     22  C   UNL     1       7.526   4.537  17.280  0.00  0.00    +0.000 C 
ATOM     23  C   UNL     1       7.101   4.936  14.828  0.00  0.00    +0.000 C 
ENDBRANCH  18  21
ENDBRANCH  17  18
ENDBRANCH  16  17
ENDBRANCH  15  16
ENDBRANCH   1  15
TORSDOF 8
ENDMDL
MODEL 3
REMARK VINA RESULT:      -7.0      1.261      1.808
REMARK  Name = 
REMARK  11 active torsions:
REMARK  status: ('A' for Active; 'I' for Inactive)
REMARK    1  A    between atoms: C_1  and  C_2
REMARK    2  A    between atoms: C_2  and  C_3
REMARK    3  A    between atoms: C_2  and  C_4
REMARK    4  A    between atoms: C_2  and  C_5
REMARK    5  A    between atoms: C_5  and  O_7
REMARK    6  A    between atoms: O_7  and  C_8
REMARK    7  A    between atoms: C_8  and  O_9
REMARK    8  A    between atoms: O_9  and  P_10
REMARK    9  A    between atoms: P_10  and  N_11
REMARK   10  A    between atoms: P_10  and  C_13
REMARK   11  A    between atoms: N_17  and  O_18
REMARK                            x       y       z     vdW  Elec       q    Type
REMARK                         _______ _______ _______ _____ _____    ______ ____
ROOT
ATOM      1  P   UNL     1       3.241   5.042  18.940  0.00  0.00    +0.000 P 
ATOM      2  O   UNL     1       2.420   6.094  19.690  0.00  0.00    +0.000 OA
ENDROOT
BRANCH   1   3
ATOM      3  C   UNL     1       2.920   3.860  20.300  0.00  0.00    +0.000 C 
ATOM      4  C   UNL     1       1.428   3.435  20.490  0.00  0.00    +0.000 C 
ATOM      5  C   UNL     1       0.826   2.751  19.245  0.00  0.00    +0.000 C 
ATOM      6  C   UNL     1       1.694   1.589  18.823  0.00  0.00    +0.000 C 
ATOM      7  N   UNL     1       3.098   1.966  18.747  0.00  0.00    +0.000 N 
ATOM      8  C   UNL     1       3.688   2.635  19.837  0.00  0.00    +0.000 C 
ATOM      9  O   UNL     1       4.805   2.381  20.281  0.00  0.00    +0.000 OA
BRANCH   7  10
ATOM     10  O   UNL     1       3.847   0.827  18.350  0.00  0.00    +0.000 OA
ATOM     11  H   UNL     1       4.416   0.685  19.128  0.00  0.00    +0.000 HD
ENDBRANCH   7  10
ENDBRANCH   1   3
BRANCH   1  12
ATOM     12  N   UNL     1       4.828   5.311  19.455  0.00  0.00    +0.000 NA
ATOM     13  H   UNL     1       5.458   4.559  19.204  0.00  0.00    +0.000 HD
ATOM     14  H   UNL     1       5.020   5.607  20.401  0.00  0.00    +0.000 HD
ENDBRANCH   1  12
BRANCH   1  15
ATOM     15  O   UNL     1       3.546   6.159  17.655  0.00  0.00    +0.000 OA
BRANCH  15  16
ATOM     16  C   UNL     1       4.587   7.116  17.824  0.00  0.00    +0.000 C 
BRANCH  16  17
ATOM     17  O   UNL     1       5.801   6.678  17.217  0.00  0.00    +0.000 OA
BRANCH  17  18
ATOM     18  C   UNL     1       5.643   6.229  15.938  0.00  0.00    +0.000 C 
ATOM     19  O   UNL     1       5.115   6.860  15.039  0.00  0.00    +0.000 OA
BRANCH  18  21
ATOM     20  C   UNL     1       7.306   4.648  16.882  0.00  0.00    +0.000 C 
ATOM     21  C   UNL     1       6.265   4.848  15.771  0.00  0.00    +0.000 C 
ATOM     22  C   UNL     1       6.956   4.750  14.404  0.00  0.00    +0.000 C 
ATOM     23  C   UNL     1       5.176   3.775  15.897  0.00  0.00    +0.000 C 
ENDBRANCH  18  21
ENDBRANCH  17  18
ENDBRANCH  16  17
ENDBRANCH  15  16
ENDBRANCH   1  15
TORSDOF 8
ENDMDL
MODEL 4
REMARK VINA RESULT:      -6.9      0.728      1.264
REMARK  Name = 
REMARK  11 active torsions:
REMARK  status: ('A' for Active; 'I' for Inactive)
REMARK    1  A    between atoms: C_1  and  C_2
REMARK    2  A    between atoms: C_2  and  C_3
REMARK    3  A    between atoms: C_2  and  C_4
REMARK    4  A    between atoms: C_2  and  C_5
REMARK    5  A    between atoms: C_5  and  O_7
REMARK    6  A    between atoms: O_7  and  C_8
REMARK    7  A    between atoms: C_8  and  O_9
REMARK    8  A    between atoms: O_9  and  P_10
REMARK    9  A    between atoms: P_10  and  N_11
REMARK   10  A    between atoms: P_10  and  C_13
REMARK   11  A    between atoms: N_17  and  O_18
REMARK                            x       y       z     vdW  Elec       q    Type
REMARK                         _______ _______ _______ _____ _____    ______ ____
ROOT
ATOM      1  P   UNL     1       2.575   4.929  19.524  0.00  0.00    +0.000 P 
ATOM      2  O   UNL     1       1.326   5.233  18.690  0.00  0.00    +0.000 OA
ENDROOT
BRANCH   1   3
ATOM      3  C   UNL     1       1.879   3.284  19.919  0.00  0.00    +0.000 C 
ATOM      4  C   UNL     1       1.483   2.402  18.690  0.00  0.00    +0.000 C 
ATOM      5  C   UNL     1       2.670   2.096  17.753  0.00  0.00    +0.000 C 
ATOM      6  C   UNL     1       3.807   1.488  18.541  0.00  0.00    +0.000 C 
ATOM      7  N   UNL     1       4.103   2.258  19.740  0.00  0.00    +0.000 N 
ATOM      8  C   UNL     1       3.049   2.607  20.608  0.00  0.00    +0.000 C 
ATOM      9  O   UNL     1       3.114   2.543  21.833  0.00  0.00    +0.000 OA
BRANCH   7  10
ATOM     10  O   UNL     1       5.173   1.626  20.425  0.00  0.00    +0.000 OA
ATOM     11  H   UNL     1       5.658   1.209  19.689  0.00  0.00    +0.000 HD
ENDBRANCH   7  10
ENDBRANCH   1   3
BRANCH   1  12
ATOM     12  N   UNL     1       2.205   5.532  21.058  0.00  0.00    +0.000 NA
ATOM     13  H   UNL     1       2.698   5.052  21.802  0.00  0.00    +0.000 HD
ATOM     14  H   UNL     1       1.245   5.682  21.337  0.00  0.00    +0.000 HD
ENDBRANCH   1  12
BRANCH   1  15
ATOM     15  O   UNL     1       3.232   6.485  19.151  0.00  0.00    +0.000 OA
BRANCH  15  16
ATOM     16  C   UNL     1       3.533   6.784  17.791  0.00  0.00    +0.000 C 
BRANCH  16  17
ATOM     17  O   UNL     1       4.238   5.713  17.167  0.00  0.00    +0.000 OA
BRANCH  17  18
ATOM     18  C   UNL     1       5.241   6.127  16.338  0.00  0.00    +0.000 C 
ATOM     19  O   UNL     1       5.093   6.870  15.385  0.00  0.00    +0.000 OA
BRANCH  18  21
ATOM     20  C   UNL     1       7.436   6.737  17.323  0.00  0.00    +0.000 C 
ATOM     21  C   UNL     1       6.583   5.572  16.799  0.00  0.00    +0.000 C 
ATOM     22  C   UNL     1       7.305   4.907  15.618  0.00  0.00    +0.000 C 
ATOM     23  C   UNL     1       6.361   4.558  17.929  0.00  0.00    +0.000 C 
ENDBRANCH  18  21
ENDBRANCH  17  18
ENDBRANCH  16  17
ENDBRANCH  15  16
ENDBRANCH   1  15
TORSDOF 8
ENDMDL
MODEL 5
REMARK VINA RESULT:      -6.8      1.026      1.342
REMARK  Name = 
REMARK  11 active torsions:
REMARK  status: ('A' for Active; 'I' for Inactive)
REMARK    1  A    between atoms: C_1  and  C_2
REMARK    2  A    between atoms: C_2  and  C_3
REMARK    3  A    between atoms: C_2  and  C_4
REMARK    4  A    between atoms: C_2  and  C_5
REMARK    5  A    between atoms: C_5  and  O_7
REMARK    6  A    between atoms: O_7  and  C_8
REMARK    7  A    between atoms: C_8  and  O_9
REMARK    8  A    between atoms: O_9  and  P_10
REMARK    9  A    between atoms: P_10  and  N_11
REMARK   10  A    between atoms: P_10  and  C_13
REMARK   11  A    between atoms: N_17  and  O_18
REMARK                            x       y       z     vdW  Elec       q    Type
REMARK                         _______ _______ _______ _____ _____    ______ ____
ROOT
ATOM      1  P   UNL     1       2.585   4.984  19.582  0.00  0.00    +0.000 P 
ATOM      2  O   UNL     1       1.560   5.169  18.460  0.00  0.00    +0.000 OA
ENDROOT
BRANCH   1   3
ATOM      3  C   UNL     1       1.843   3.354  19.956  0.00  0.00    +0.000 C 
ATOM      4  C   UNL     1       1.379   2.520  18.718  0.00  0.00    +0.000 C 
ATOM      5  C   UNL     1       2.526   2.197  17.739  0.00  0.00    +0.000 C 
ATOM      6  C   UNL     1       3.663   1.529  18.475  0.00  0.00    +0.000 C 
ATOM      7  N   UNL     1       4.022   2.256  19.684  0.00  0.00    +0.000 N 
ATOM      8  C   UNL     1       3.008   2.619  20.592  0.00  0.00    +0.000 C 
ATOM      9  O   UNL     1       3.107   2.520  21.813  0.00  0.00    +0.000 OA
BRANCH   7  10
ATOM     10  O   UNL     1       5.089   1.569  20.320  0.00  0.00    +0.000 OA
ATOM     11  H   UNL     1       5.843   1.807  19.750  0.00  0.00    +0.000 HD
ENDBRANCH   7  10
ENDBRANCH   1   3
BRANCH   1  12
ATOM     12  N   UNL     1       1.860   5.703  20.928  0.00  0.00    +0.000 NA
ATOM     13  H   UNL     1       1.931   5.137  21.766  0.00  0.00    +0.000 HD
ATOM     14  H   UNL     1       0.930   6.093  20.867  0.00  0.00    +0.000 HD
ENDBRANCH   1  12
BRANCH   1  15
ATOM     15  O   UNL     1       3.287   6.526  19.229  0.00  0.00    +0.000 OA
BRANCH  15  16
ATOM     16  C   UNL     1       3.372   6.933  17.867  0.00  0.00    +0.000 C 
BRANCH  16  17
ATOM     17  O   UNL     1       4.729   7.043  17.441  0.00  0.00    +0.000 OA
BRANCH  17  18
ATOM     18  C   UNL     1       5.300   5.847  17.115  0.00  0.00    +0.000 C 
ATOM     19  O   UNL     1       4.780   4.995  16.416  0.00  0.00    +0.000 OA
BRANCH  18  21
ATOM     20  C   UNL     1       6.580   5.438  19.201  0.00  0.00    +0.000 C 
ATOM     21  C   UNL     1       6.702   5.742  17.701  0.00  0.00    +0.000 C 
ATOM     22  C   UNL     1       7.446   7.072  17.512  0.00  0.00    +0.000 C 
ATOM     23  C   UNL     1       7.464   4.602  17.013  0.00  0.00    +0.000 C 
ENDBRANCH  18  21
ENDBRANCH  17  18
ENDBRANCH  16  17
ENDBRANCH  15  16
ENDBRANCH   1  15
TORSDOF 8
ENDMDL
MODEL 6
REMARK VINA RESULT:      -6.7      1.179      1.799
REMARK  Name = 
REMARK  11 active torsions:
REMARK  status: ('A' for Active; 'I' for Inactive)
REMARK    1  A    between atoms: C_1  and  C_2
REMARK    2  A    between atoms: C_2  and  C_3
REMARK    3  A    between atoms: C_2  and  C_4
REMARK    4  A    between atoms: C_2  and  C_5
REMARK    5  A    between atoms: C_5  and  O_7
REMARK    6  A    between atoms: O_7  and  C_8
REMARK    7  A    between atoms: C_8  and  O_9
REMARK    8  A    between atoms: O_9  and  P_10
REMARK    9  A    between atoms: P_10  and  N_11
REMARK   10  A    between atoms: P_10  and  C_13
REMARK   11  A    between atoms: N_17  and  O_18
REMARK                            x       y       z     vdW  Elec       q    Type
REMARK                         _______ _______ _______ _____ _____    ______ ____
ROOT
ATOM      1  P   UNL     1       2.887   5.207  19.668  0.00  0.00    +0.000 P 
ATOM      2  O   UNL     1       2.215   5.988  20.801  0.00  0.00    +0.000 OA
ENDROOT
BRANCH   1   3
ATOM      3  C   UNL     1       2.708   3.675  20.653  0.00  0.00    +0.000 C 
ATOM      4  C   UNL     1       1.265   3.077  20.720  0.00  0.00    +0.000 C 
ATOM      5  C   UNL     1       0.696   2.705  19.335  0.00  0.00    +0.000 C 
ATOM      6  C   UNL     1       1.654   1.788  18.611  0.00  0.00    +0.000 C 
ATOM      7  N   UNL     1       3.016   2.301  18.641  0.00  0.00    +0.000 N 
ATOM      8  C   UNL     1       3.571   2.700  19.872  0.00  0.00    +0.000 C 
ATOM      9  O   UNL     1       4.718   2.441  20.230  0.00  0.00    +0.000 OA
BRANCH   7  10
ATOM     10  O   UNL     1       3.853   1.388  17.947  0.00  0.00    +0.000 OA
ATOM     11  H   UNL     1       3.424   0.537  18.147  0.00  0.00    +0.000 HD
ENDBRANCH   7  10
ENDBRANCH   1   3
BRANCH   1  12
ATOM     12  N   UNL     1       4.538   5.319  20.011  0.00  0.00    +0.000 NA
ATOM     13  H   UNL     1       4.949   6.191  19.701  0.00  0.00    +0.000 HD
ATOM     14  H   UNL     1       5.163   4.557  19.790  0.00  0.00    +0.000 HD
ENDBRANCH   1  12
BRANCH   1  15
ATOM     15  O   UNL     1       3.057   6.655  18.737  0.00  0.00    +0.000 OA
BRANCH  15  16
ATOM     16  C   UNL     1       3.524   6.546  17.396  0.00  0.00    +0.000 C 
BRANCH  16  17
ATOM     17  O   UNL     1       4.942   6.396  17.350  0.00  0.00    +0.000 OA
BRANCH  17  18
ATOM     18  C   UNL     1       5.430   6.184  16.093  0.00  0.00    +0.000 C 
ATOM     19  O   UNL     1       5.256   6.929  15.144  0.00  0.00    +0.000 OA
BRANCH  18  21
ATOM     20  C   UNL     1       7.074   4.908  14.740  0.00  0.00    +0.000 C 
ATOM     21  C   UNL     1       6.268   4.913  16.048  0.00  0.00    +0.000 C 
ATOM     22  C   UNL     1       5.351   3.683  16.082  0.00  0.00    +0.000 C 
ATOM     23  C   UNL     1       7.235   4.892  17.239  0.00  0.00    +0.000 C 
ENDBRANCH  18  21
ENDBRANCH  17  18
ENDBRANCH  16  17
ENDBRANCH  15  16
ENDBRANCH   1  15
TORSDOF 8
ENDMDL
MODEL 7
REMARK VINA RESULT:      -6.6      0.908      1.173
REMARK  Name = 
REMARK  11 active torsions:
REMARK  status: ('A' for Active; 'I' for Inactive)
REMARK    1  A    between atoms: C_1  and  C_2
REMARK    2  A    between atoms: C_2  and  C_3
REMARK    3  A    between atoms: C_2  and  C_4
REMARK    4  A    between atoms: C_2  and  C_5
REMARK    5  A    between atoms: C_5  and  O_7
REMARK    6  A    between atoms: O_7  and  C_8
REMARK    7  A    between atoms: C_8  and  O_9
REMARK    8  A    between atoms: O_9  and  P_10
REMARK    9  A    between atoms: P_10  and  N_11
REMARK   10  A    between atoms: P_10  and  C_13
REMARK   11  A    between atoms: N_17  and  O_18
REMARK                            x       y       z     vdW  Elec       q    Type
REMARK                         _______ _______ _______ _____ _____    ______ ____
ROOT
ATOM      1  P   UNL     1       2.368   4.890  19.537  0.00  0.00    +0.000 P 
ATOM      2  O   UNL     1       1.434   4.918  18.324  0.00  0.00    +0.000 OA
ENDROOT
BRANCH   1   3
ATOM      3  C   UNL     1       1.747   3.218  19.944  0.00  0.00    +0.000 C 
ATOM      4  C   UNL     1       1.353   2.325  18.723  0.00  0.00    +0.000 C 
ATOM      5  C   UNL     1       2.526   2.066  17.755  0.00  0.00    +0.000 C 
ATOM      6  C   UNL     1       3.706   1.501  18.511  0.00  0.00    +0.000 C 
ATOM      7  N   UNL     1       4.003   2.279  19.704  0.00  0.00    +0.000 N 
ATOM      8  C   UNL     1       2.961   2.585  20.600  0.00  0.00    +0.000 C 
ATOM      9  O   UNL     1       3.060   2.520  21.824  0.00  0.00    +0.000 OA
BRANCH   7  10
ATOM     10  O   UNL     1       5.115   1.687  20.359  0.00  0.00    +0.000 OA
ATOM     11  H   UNL     1       4.850   1.752  21.294  0.00  0.00    +0.000 HD
ENDBRANCH   7  10
ENDBRANCH   1   3
BRANCH   1  12
ATOM     12  N   UNL     1       1.465   5.604  20.773  0.00  0.00    +0.000 NA
ATOM     13  H   UNL     1       1.781   5.340  21.699  0.00  0.00    +0.000 HD
ATOM     14  H   UNL     1       0.455   5.589  20.749  0.00  0.00    +0.000 HD
ENDBRANCH   1  12
BRANCH   1  15
ATOM     15  O   UNL     1       2.956   6.471  19.153  0.00  0.00    +0.000 OA
BRANCH  15  16
ATOM     16  C   UNL     1       3.785   6.624  18.005  0.00  0.00    +0.000 C 
BRANCH  16  17
ATOM     17  O   UNL     1       5.027   5.941  18.166  0.00  0.00    +0.000 OA
BRANCH  17  18
ATOM     18  C   UNL     1       5.396   5.210  17.074  0.00  0.00    +0.000 C 
ATOM     19  O   UNL     1       4.637   4.537  16.398  0.00  0.00    +0.000 OA
BRANCH  18  21
ATOM     20  C   UNL     1       7.138   5.002  15.319  0.00  0.00    +0.000 C 
ATOM     21  C   UNL     1       6.880   5.390  16.782  0.00  0.00    +0.000 C 
ATOM     22  C   UNL     1       7.706   4.478  17.701  0.00  0.00    +0.000 C 
ATOM     23  C   UNL     1       7.272   6.858  16.994  0.00  0.00    +0.000 C 
ENDBRANCH  18  21
ENDBRANCH  17  18
ENDBRANCH  16  17
ENDBRANCH  15  16
ENDBRANCH   1  15
TORSDOF 8
ENDMDL
MODEL 8
REMARK VINA RESULT:      -6.6      1.400      1.970
REMARK  Name = 
REMARK  11 active torsions:
REMARK  status: ('A' for Active; 'I' for Inactive)
REMARK    1  A    between atoms: C_1  and  C_2
REMARK    2  A    between atoms: C_2  and  C_3
REMARK    3  A    between atoms: C_2  and  C_4
REMARK    4  A    between atoms: C_2  and  C_5
REMARK    5  A    between atoms: C_5  and  O_7
REMARK    6  A    between atoms: O_7  and  C_8
REMARK    7  A    between atoms: C_8  and  O_9
REMARK    8  A    between atoms: O_9  and  P_10
REMARK    9  A    between atoms: P_10  and  N_11
REMARK   10  A    between atoms: P_10  and  C_13
REMARK   11  A    between atoms: N_17  and  O_18
REMARK                            x       y       z     vdW  Elec       q    Type
REMARK                         _______ _______ _______ _____ _____    ______ ____
ROOT
ATOM      1  P   UNL     1       2.717   5.242  19.615  0.00  0.00    +0.000 P 
ATOM      2  O   UNL     1       1.792   5.882  20.654  0.00  0.00    +0.000 OA
ENDROOT
BRANCH   1   3
ATOM      3  C   UNL     1       2.567   3.648  20.501  0.00  0.00    +0.000 C 
ATOM      4  C   UNL     1       1.170   2.951  20.409  0.00  0.00    +0.000 C 
ATOM      5  C   UNL     1       0.749   2.621  18.962  0.00  0.00    +0.000 C 
ATOM      6  C   UNL     1       1.829   1.814  18.280  0.00  0.00    +0.000 C 
ATOM      7  N   UNL     1       3.142   2.415  18.457  0.00  0.00    +0.000 N 
ATOM      8  C   UNL     1       3.561   2.779  19.752  0.00  0.00    +0.000 C 
ATOM      9  O   UNL     1       4.689   2.578  20.196  0.00  0.00    +0.000 OA
BRANCH   7  10
ATOM     10  O   UNL     1       4.099   1.601  17.795  0.00  0.00    +0.000 OA
ATOM     11  H   UNL     1       4.828   1.590  18.442  0.00  0.00    +0.000 HD
ENDBRANCH   7  10
ENDBRANCH   1   3
BRANCH   1  12
ATOM     12  N   UNL     1       4.271   5.513  20.222  0.00  0.00    +0.000 NA
ATOM     13  H   UNL     1       4.337   6.355  20.781  0.00  0.00    +0.000 HD
ATOM     14  H   UNL     1       5.079   5.447  19.619  0.00  0.00    +0.000 HD
ENDBRANCH   1  12
BRANCH   1  15
ATOM     15  O   UNL     1       2.861   6.749  18.778  0.00  0.00    +0.000 OA
BRANCH  15  16
ATOM     16  C   UNL     1       3.537   6.764  17.524  0.00  0.00    +0.000 C 
BRANCH  16  17
ATOM     17  O   UNL     1       4.920   6.451  17.675  0.00  0.00    +0.000 OA
BRANCH  17  18
ATOM     18  C   UNL     1       5.328   5.390  16.919  0.00  0.00    +0.000 C 
ATOM     19  O   UNL     1       4.589   4.539  16.458  0.00  0.00    +0.000 OA
BRANCH  18  21
ATOM     20  C   UNL     1       7.305   6.891  16.888  0.00  0.00    +0.000 C 
ATOM     21  C   UNL     1       6.832   5.444  16.683  0.00  0.00    +0.000 C 
ATOM     22  C   UNL     1       7.150   5.006  15.247  0.00  0.00    +0.000 C 
ATOM     23  C   UNL     1       7.544   4.531  17.690  0.00  0.00    +0.000 C 
ENDBRANCH  18  21
ENDBRANCH  17  18
ENDBRANCH  16  17
ENDBRANCH  15  16
ENDBRANCH   1  15
TORSDOF 8
ENDMDL
MODEL 9
REMARK VINA RESULT:      -6.5      1.032      1.555
REMARK  Name = 
REMARK  11 active torsions:
REMARK  status: ('A' for Active; 'I' for Inactive)
REMARK    1  A    between atoms: C_1  and  C_2
REMARK    2  A    between atoms: C_2  and  C_3
REMARK    3  A    between atoms: C_2  and  C_4
REMARK    4  A    between atoms: C_2  and  C_5
REMARK    5  A    between atoms: C_5  and  O_7
REMARK    6  A    between atoms: O_7  and  C_8
REMARK    7  A    between atoms: C_8  and  O_9
REMARK    8  A    between atoms: O_9  and  P_10
REMARK    9  A    between atoms: P_10  and  N_11
REMARK   10  A    between atoms: P_10  and  C_13
REMARK   11  A    between atoms: N_17  and  O_18
REMARK                            x       y       z     vdW  Elec       q    Type
REMARK                         _______ _______ _______ _____ _____    ______ ____
ROOT
ATOM      1  P   UNL     1       2.341   4.846  19.634  0.00  0.00    +0.000 P 
ATOM      2  O   UNL     1       1.113   5.060  18.745  0.00  0.00    +0.000 OA
ENDROOT
BRANCH   1   3
ATOM      3  C   UNL     1       1.748   3.154  20.002  0.00  0.00    +0.000 C 
ATOM      4  C   UNL     1       1.367   2.285  18.759  0.00  0.00    +0.000 C 
ATOM      5  C   UNL     1       2.542   2.070  17.784  0.00  0.00    +0.000 C 
ATOM      6  C   UNL     1       3.733   1.506  18.524  0.00  0.00    +0.000 C 
ATOM      7  N   UNL     1       4.019   2.260  19.735  0.00  0.00    +0.000 N 
ATOM      8  C   UNL     1       2.973   2.526  20.640  0.00  0.00    +0.000 C 
ATOM      9  O   UNL     1       3.076   2.433  21.861  0.00  0.00    +0.000 OA
BRANCH   7  10
ATOM     10  O   UNL     1       5.142   1.670  20.374  0.00  0.00    +0.000 OA
ATOM     11  H   UNL     1       4.878   1.710  21.311  0.00  0.00    +0.000 HD
ENDBRANCH   7  10
ENDBRANCH   1   3
BRANCH   1  12
ATOM     12  N   UNL     1       1.861   5.419  21.150  0.00  0.00    +0.000 NA
ATOM     13  H   UNL     1       2.460   5.101  21.902  0.00  0.00    +0.000 HD
ATOM     14  H   UNL     1       0.896   5.358  21.443  0.00  0.00    +0.000 HD
ENDBRANCH   1  12
BRANCH   1  15
ATOM     15  O   UNL     1       2.902   6.446  19.288  0.00  0.00    +0.000 OA
BRANCH  15  16
ATOM     16  C   UNL     1       3.791   6.627  18.190  0.00  0.00    +0.000 C 
BRANCH  16  17
ATOM     17  O   UNL     1       4.440   5.407  17.839  0.00  0.00    +0.000 OA
BRANCH  17  18
ATOM     18  C   UNL     1       5.719   5.313  18.305  0.00  0.00    +0.000 C 
ATOM     19  O   UNL     1       6.024   5.019  19.447  0.00  0.00    +0.000 OA
BRANCH  18  21
ATOM     20  C   UNL     1       7.800   4.484  17.236  0.00  0.00    +0.000 C 
ATOM     21  C   UNL     1       6.720   5.574  17.186  0.00  0.00    +0.000 C 
ATOM     22  C   UNL     1       7.376   6.947  17.385  0.00  0.00    +0.000 C 
ATOM     23  C   UNL     1       6.003   5.515  15.830  0.00  0.00    +0.000 C 
ENDBRANCH  18  21
ENDBRANCH  17  18
ENDBRANCH  16  17
ENDBRANCH  15  16
ENDBRANCH   1  15
TORSDOF 8
ENDMDL
