MODEL 1
REMARK VINA RESULT:      -8.2      0.000      0.000
REMARK  Name = 
REMARK  8 active torsions:
REMARK  status: ('A' for Active; 'I' for Inactive)
REMARK    1  A    between atoms: C_1  and  O_2
REMARK    2  A    between atoms: O_2  and  C_3
REMARK    3  A    between atoms: C_6  and  C_7
REMARK    4  A    between atoms: C_8  and  C_9
REMARK    5  A    between atoms: C_11  and  N_12
REMARK    6  A    between atoms: C_17  and  C_18
REMARK    7  A    between atoms: C_21  and  C_22
REMARK    8  A    between atoms: C_22  and  N_23
REMARK                            x       y       z     vdW  Elec       q    Type
REMARK                         _______ _______ _______ _____ _____    ______ ____
ROOT
ATOM      1  C   UNL     1       1.558   8.389  20.042  0.00  0.00    +0.000 A 
ATOM      2  C   UNL     1       1.758   7.126  20.626  0.00  0.00    +0.000 A 
ATOM      3  C   UNL     1       2.364   6.086  19.944  0.00  0.00    +0.000 A 
ATOM      4  C   UNL     1       2.797   6.265  18.629  0.00  0.00    +0.000 A 
ATOM      5  C   UNL     1       2.610   7.541  18.030  0.00  0.00    +0.000 A 
ATOM      6  C   UNL     1       1.952   8.620  18.703  0.00  0.00    +0.000 A 
ENDROOT
BRANCH   4   7
ATOM      7  C   UNL     1       3.361   5.028  17.940  0.00  0.00    +0.000 C 
ATOM      8  C   UNL     1       2.812   3.668  18.354  0.00  0.00    +0.000 C 
ATOM      9  C   UNL     1       3.626   2.641  18.732  0.00  0.00    +0.000 C 
ATOM     10  O   UNL     1       5.016   2.807  18.891  0.00  0.00    +0.000 OA
ATOM     11  C   UNL     1       5.512   3.992  18.556  0.00  0.00    +0.000 A 
ATOM     12  N   UNL     1       6.829   4.324  18.557  0.00  0.00    +0.000 N 
ATOM     13  N   UNL     1       7.055   5.570  18.087  0.00  0.00    +0.000 NA
ATOM     14  C   UNL     1       5.831   6.042  17.797  0.00  0.00    +0.000 A 
ATOM     15  C   UNL     1       5.661   7.393  17.207  0.00  0.00    +0.000 C 
ATOM     16  C   UNL     1       4.832   5.089  18.101  0.00  0.00    +0.000 A 
ATOM     17  H   UNL     1       7.622   3.753  18.831  0.00  0.00    +0.000 HD
BRANCH   9  18
ATOM     18  N   UNL     1       3.225   1.342  18.950  0.00  0.00    +0.000 N 
ATOM     19  H   UNL     1       3.381   0.968  19.882  0.00  0.00    +0.000 HD
ATOM     20  H   UNL     1       3.491   0.713  18.198  0.00  0.00    +0.000 HD
ENDBRANCH   9  18
BRANCH   8  21
ATOM     21  C   UNL     1       1.414   3.453  18.152  0.00  0.00    +0.000 C 
ATOM     22  N   UNL     1       0.280   3.279  17.996  0.00  0.00    +0.000 NA
ENDBRANCH   8  21
ENDBRANCH   4   7
BRANCH   1  24
ATOM     23  C   UNL     1      -0.276   8.870  21.577  0.00  0.00    +0.000 C 
ATOM     24  O   UNL     1       0.948   9.195  20.959  0.00  0.00    +0.000 OA
ENDBRANCH   1  24
BRANCH   6  25
ATOM     25  C   UNL     1       1.840   9.981  18.025  0.00  0.00    +0.000 C 
BRANCH  25  26
ATOM     26  N   UNL     1       0.673  10.832  18.305  0.00  0.00    +0.000 N 
ATOM     27  N   UNL     1       0.805  11.739  19.303  0.00  0.00    +0.000 NA
ATOM     28  N   UNL     1      -0.404  12.070  19.731  0.00  0.00    +0.000 NA
ATOM     29  C   UNL     1      -1.323  11.392  18.983  0.00  0.00    +0.000 A 
ATOM     30  C   UNL     1      -2.728  11.407  19.058  0.00  0.00    +0.000 A 
ATOM     31  C   UNL     1      -3.465  10.641  18.151  0.00  0.00    +0.000 A 
ATOM     32  C   UNL     1      -2.806   9.836  17.219  0.00  0.00    +0.000 A 
ATOM     33  C   UNL     1      -1.398   9.767  17.162  0.00  0.00    +0.000 A 
ATOM     34  C   UNL     1      -0.672  10.585  18.047  0.00  0.00    +0.000 A 
ENDBRANCH  25  26
ENDBRANCH   6  25
TORSDOF 6
ENDMDL
MODEL 2
REMARK VINA RESULT:      -8.1      2.227      8.539
REMARK  Name = 
REMARK  8 active torsions:
REMARK  status: ('A' for Active; 'I' for Inactive)
REMARK    1  A    between atoms: C_1  and  O_2
REMARK    2  A    between atoms: O_2  and  C_3
REMARK    3  A    between atoms: C_6  and  C_7
REMARK    4  A    between atoms: C_8  and  C_9
REMARK    5  A    between atoms: C_11  and  N_12
REMARK    6  A    between atoms: C_17  and  C_18
REMARK    7  A    between atoms: C_21  and  C_22
REMARK    8  A    between atoms: C_22  and  N_23
REMARK                            x       y       z     vdW  Elec       q    Type
REMARK                         _______ _______ _______ _____ _____    ______ ____
ROOT
ATOM      1  C   UNL     1       1.836   8.090  19.779  0.00  0.00    +0.000 A 
ATOM      2  C   UNL     1       1.068   8.866  20.667  0.00  0.00    +0.000 A 
ATOM      3  C   UNL     1       0.492  10.065  20.288  0.00  0.00    +0.000 A 
ATOM      4  C   UNL     1       0.665  10.550  18.990  0.00  0.00    +0.000 A 
ATOM      5  C   UNL     1       1.431   9.771  18.081  0.00  0.00    +0.000 A 
ATOM      6  C   UNL     1       2.068   8.547  18.460  0.00  0.00    +0.000 A 
ENDROOT
BRANCH   4   7
ATOM      7  C   UNL     1       0.070  11.925  18.709  0.00  0.00    +0.000 C 
ATOM      8  C   UNL     1       0.478  13.078  19.620  0.00  0.00    +0.000 C 
ATOM      9  C   UNL     1      -0.441  13.876  20.236  0.00  0.00    +0.000 C 
ATOM     10  O   UNL     1      -1.823  13.607  20.180  0.00  0.00    +0.000 OA
ATOM     11  C   UNL     1      -2.198  12.593  19.409  0.00  0.00    +0.000 A 
ATOM     12  N   UNL     1      -3.481  12.227  19.157  0.00  0.00    +0.000 N 
ATOM     13  N   UNL     1      -3.571  11.214  18.267  0.00  0.00    +0.000 NA
ATOM     14  C   UNL     1      -2.294  10.923  17.966  0.00  0.00    +0.000 A 
ATOM     15  C   UNL     1      -1.973   9.869  16.971  0.00  0.00    +0.000 C 
ATOM     16  C   UNL     1      -1.400  11.751  18.682  0.00  0.00    +0.000 A 
ATOM     17  H   UNL     1      -4.335  12.634  19.522  0.00  0.00    +0.000 HD
BRANCH   9  18
ATOM     18  N   UNL     1      -0.160  15.033  20.927  0.00  0.00    +0.000 N 
ATOM     19  H   UNL     1       0.128  15.835  20.374  0.00  0.00    +0.000 HD
ATOM     20  H   UNL     1       0.404  14.873  21.756  0.00  0.00    +0.000 HD
ENDBRANCH   9  18
BRANCH   8  21
ATOM     21  C   UNL     1       1.868  13.408  19.654  0.00  0.00    +0.000 C 
ATOM     22  N   UNL     1       2.995  13.668  19.685  0.00  0.00    +0.000 NA
ENDBRANCH   8  21
ENDBRANCH   4   7
BRANCH   1  24
ATOM     23  C   UNL     1       1.377   5.986  20.926  0.00  0.00    +0.000 C 
ATOM     24  O   UNL     1       2.258   6.973  20.439  0.00  0.00    +0.000 OA
ENDBRANCH   1  24
BRANCH   6  25
ATOM     25  C   UNL     1       2.824   7.730  17.418  0.00  0.00    +0.000 C 
BRANCH  25  26
ATOM     26  N   UNL     1       3.499   6.488  17.825  0.00  0.00    +0.000 N 
ATOM     27  N   UNL     1       4.854   6.495  17.805  0.00  0.00    +0.000 NA
ATOM     28  N   UNL     1       5.278   5.243  17.732  0.00  0.00    +0.000 NA
ATOM     29  C   UNL     1       4.188   4.421  17.734  0.00  0.00    +0.000 A 
ATOM     30  C   UNL     1       4.122   3.017  17.668  0.00  0.00    +0.000 A 
ATOM     31  C   UNL     1       2.873   2.392  17.717  0.00  0.00    +0.000 A 
ATOM     32  C   UNL     1       1.709   3.161  17.780  0.00  0.00    +0.000 A 
ATOM     33  C   UNL     1       1.752   4.571  17.795  0.00  0.00    +0.000 A 
ATOM     34  C   UNL     1       3.019   5.183  17.798  0.00  0.00    +0.000 A 
ENDBRANCH  25  26
ENDBRANCH   6  25
TORSDOF 6
ENDMDL
MODEL 3
REMARK VINA RESULT:      -7.9      1.480      2.121
REMARK  Name = 
REMARK  8 active torsions:
REMARK  status: ('A' for Active; 'I' for Inactive)
REMARK    1  A    between atoms: C_1  and  O_2
REMARK    2  A    between atoms: O_2  and  C_3
REMARK    3  A    between atoms: C_6  and  C_7
REMARK    4  A    between atoms: C_8  and  C_9
REMARK    5  A    between atoms: C_11  and  N_12
REMARK    6  A    between atoms: C_17  and  C_18
REMARK    7  A    between atoms: C_21  and  C_22
REMARK    8  A    between atoms: C_22  and  N_23
REMARK                            x       y       z     vdW  Elec       q    Type
REMARK                         _______ _______ _______ _____ _____    ______ ____
ROOT
ATOM      1  C   UNL     1       1.611   8.371  19.989  0.00  0.00    +0.000 A 
ATOM      2  C   UNL     1       1.961   7.169  20.630  0.00  0.00    +0.000 A 
ATOM      3  C   UNL     1       2.587   6.132  19.961  0.00  0.00    +0.000 A 
ATOM      4  C   UNL     1       2.887   6.251  18.603  0.00  0.00    +0.000 A 
ATOM      5  C   UNL     1       2.547   7.464  17.946  0.00  0.00    +0.000 A 
ATOM      6  C   UNL     1       1.867   8.536  18.608  0.00  0.00    +0.000 A 
ENDROOT
BRANCH   4   7
ATOM      7  C   UNL     1       3.486   5.014  17.943  0.00  0.00    +0.000 C 
ATOM      8  C   UNL     1       2.978   3.649  18.394  0.00  0.00    +0.000 C 
ATOM      9  C   UNL     1       3.822   2.656  18.795  0.00  0.00    +0.000 C 
ATOM     10  O   UNL     1       5.207   2.867  18.945  0.00  0.00    +0.000 OA
ATOM     11  C   UNL     1       5.668   4.057  18.578  0.00  0.00    +0.000 A 
ATOM     12  N   UNL     1       6.975   4.427  18.567  0.00  0.00    +0.000 N 
ATOM     13  N   UNL     1       7.163   5.667  18.065  0.00  0.00    +0.000 NA
ATOM     14  C   UNL     1       5.924   6.096  17.767  0.00  0.00    +0.000 A 
ATOM     15  C   UNL     1       5.713   7.426  17.144  0.00  0.00    +0.000 C 
ATOM     16  C   UNL     1       4.954   5.122  18.099  0.00  0.00    +0.000 A 
ATOM     17  H   UNL     1       7.784   3.887  18.852  0.00  0.00    +0.000 HD
BRANCH   9  18
ATOM     18  N   UNL     1       3.461   1.352  19.047  0.00  0.00    +0.000 N 
ATOM     19  H   UNL     1       3.924   0.635  18.495  0.00  0.00    +0.000 HD
ATOM     20  H   UNL     1       2.456   1.228  19.133  0.00  0.00    +0.000 HD
ENDBRANCH   9  18
BRANCH   8  21
ATOM     21  C   UNL     1       1.586   3.388  18.202  0.00  0.00    +0.000 C 
ATOM     22  N   UNL     1       0.457   3.177  18.054  0.00  0.00    +0.000 NA
ENDBRANCH   8  21
ENDBRANCH   4   7
BRANCH   1  24
ATOM     23  C   UNL     1      -0.156   8.850  21.601  0.00  0.00    +0.000 C 
ATOM     24  O   UNL     1       1.022   9.191  20.906  0.00  0.00    +0.000 OA
ENDBRANCH   1  24
BRANCH   6  25
ATOM     25  C   UNL     1       1.587   9.834  17.859  0.00  0.00    +0.000 C 
BRANCH  25  26
ATOM     26  N   UNL     1       0.712  10.846  18.471  0.00  0.00    +0.000 N 
ATOM     27  N   UNL     1      -0.623  10.667  18.324  0.00  0.00    +0.000 NA
ATOM     28  N   UNL     1      -1.223  11.835  18.496  0.00  0.00    +0.000 NA
ATOM     29  C   UNL     1      -0.269  12.768  18.785  0.00  0.00    +0.000 A 
ATOM     30  C   UNL     1      -0.408  14.144  19.044  0.00  0.00    +0.000 A 
ATOM     31  C   UNL     1       0.728  14.897  19.350  0.00  0.00    +0.000 A 
ATOM     32  C   UNL     1       1.988  14.293  19.346  0.00  0.00    +0.000 A 
ATOM     33  C   UNL     1       2.154  12.926  19.038  0.00  0.00    +0.000 A 
ATOM     34  C   UNL     1       0.994  12.172  18.784  0.00  0.00    +0.000 A 
ENDBRANCH  25  26
ENDBRANCH   6  25
TORSDOF 6
ENDMDL
MODEL 4
REMARK VINA RESULT:      -7.9      1.589      3.597
REMARK  Name = 
REMARK  8 active torsions:
REMARK  status: ('A' for Active; 'I' for Inactive)
REMARK    1  A    between atoms: C_1  and  O_2
REMARK    2  A    between atoms: O_2  and  C_3
REMARK    3  A    between atoms: C_6  and  C_7
REMARK    4  A    between atoms: C_8  and  C_9
REMARK    5  A    between atoms: C_11  and  N_12
REMARK    6  A    between atoms: C_17  and  C_18
REMARK    7  A    between atoms: C_21  and  C_22
REMARK    8  A    between atoms: C_22  and  N_23
REMARK                            x       y       z     vdW  Elec       q    Type
REMARK                         _______ _______ _______ _____ _____    ______ ____
ROOT
ATOM      1  C   UNL     1       1.880   8.960  18.529  0.00  0.00    +0.000 A 
ATOM      2  C   UNL     1       2.655   8.407  17.494  0.00  0.00    +0.000 A 
ATOM      3  C   UNL     1       3.254   7.165  17.604  0.00  0.00    +0.000 A 
ATOM      4  C   UNL     1       3.106   6.414  18.772  0.00  0.00    +0.000 A 
ATOM      5  C   UNL     1       2.317   6.958  19.822  0.00  0.00    +0.000 A 
ATOM      6  C   UNL     1       1.719   8.256  19.745  0.00  0.00    +0.000 A 
ENDROOT
BRANCH   4   7
ATOM      7  C   UNL     1       3.886   5.106  18.826  0.00  0.00    +0.000 C 
ATOM      8  C   UNL     1       5.071   4.944  17.881  0.00  0.00    +0.000 C 
ATOM      9  C   UNL     1       5.201   3.864  17.057  0.00  0.00    +0.000 C 
ATOM     10  O   UNL     1       4.186   2.895  16.929  0.00  0.00    +0.000 OA
ATOM     11  C   UNL     1       3.134   3.030  17.728  0.00  0.00    +0.000 A 
ATOM     12  N   UNL     1       2.095   2.160  17.816  0.00  0.00    +0.000 N 
ATOM     13  N   UNL     1       1.207   2.502  18.775  0.00  0.00    +0.000 NA
ATOM     14  C   UNL     1       1.701   3.640  19.293  0.00  0.00    +0.000 A 
ATOM     15  C   UNL     1       1.015   4.316  20.422  0.00  0.00    +0.000 C 
ATOM     16  C   UNL     1       2.898   4.017  18.645  0.00  0.00    +0.000 A 
ATOM     17  H   UNL     1       1.940   1.309  17.287  0.00  0.00    +0.000 HD
BRANCH   9  18
ATOM     18  N   UNL     1       6.315   3.558  16.309  0.00  0.00    +0.000 N 
ATOM     19  H   UNL     1       6.195   2.865  15.575  0.00  0.00    +0.000 HD
ATOM     20  H   UNL     1       7.149   3.427  16.874  0.00  0.00    +0.000 HD
ENDBRANCH   9  18
BRANCH   8  21
ATOM     21  C   UNL     1       6.141   5.880  18.027  0.00  0.00    +0.000 C 
ATOM     22  N   UNL     1       7.009   6.638  18.137  0.00  0.00    +0.000 NA
ENDBRANCH   8  21
ENDBRANCH   4   7
BRANCH   1  24
ATOM     23  C   UNL     1       2.240  11.329  18.072  0.00  0.00    +0.000 C 
ATOM     24  O   UNL     1       1.425  10.179  18.120  0.00  0.00    +0.000 OA
ENDBRANCH   1  24
BRANCH   6  25
ATOM     25  C   UNL     1       0.834   8.752  20.883  0.00  0.00    +0.000 C 
BRANCH  25  26
ATOM     26  N   UNL     1       0.419  10.164  20.911  0.00  0.00    +0.000 N 
ATOM     27  N   UNL     1       0.836  10.901  21.969  0.00  0.00    +0.000 NA
ATOM     28  N   UNL     1       0.033  11.947  22.093  0.00  0.00    +0.000 NA
ATOM     29  C   UNL     1      -0.892  11.897  21.089  0.00  0.00    +0.000 A 
ATOM     30  C   UNL     1      -1.952  12.776  20.801  0.00  0.00    +0.000 A 
ATOM     31  C   UNL     1      -2.757  12.529  19.686  0.00  0.00    +0.000 A 
ATOM     32  C   UNL     1      -2.535  11.395  18.902  0.00  0.00    +0.000 A 
ATOM     33  C   UNL     1      -1.510  10.473  19.205  0.00  0.00    +0.000 A 
ATOM     34  C   UNL     1      -0.677  10.765  20.300  0.00  0.00    +0.000 A 
ENDBRANCH  25  26
ENDBRANCH   6  25
TORSDOF 6
ENDMDL
MODEL 5
REMARK VINA RESULT:      -7.8      2.242      4.128
REMARK  Name = 
REMARK  8 active torsions:
REMARK  status: ('A' for Active; 'I' for Inactive)
REMARK    1  A    between atoms: C_1  and  O_2
REMARK    2  A    between atoms: O_2  and  C_3
REMARK    3  A    between atoms: C_6  and  C_7
REMARK    4  A    between atoms: C_8  and  C_9
REMARK    5  A    between atoms: C_11  and  N_12
REMARK    6  A    between atoms: C_17  and  C_18
REMARK    7  A    between atoms: C_21  and  C_22
REMARK    8  A    between atoms: C_22  and  N_23
REMARK                            x       y       z     vdW  Elec       q    Type
REMARK                         _______ _______ _______ _____ _____    ______ ____
ROOT
ATOM      1  C   UNL     1       1.076   9.330  18.659  0.00  0.00    +0.000 A 
ATOM      2  C   UNL     1       1.465   8.659  17.486  0.00  0.00    +0.000 A 
ATOM      3  C   UNL     1       2.230   7.507  17.515  0.00  0.00    +0.000 A 
ATOM      4  C   UNL     1       2.650   6.972  18.735  0.00  0.00    +0.000 A 
ATOM      5  C   UNL     1       2.256   7.636  19.928  0.00  0.00    +0.000 A 
ATOM      6  C   UNL     1       1.497   8.850  19.922  0.00  0.00    +0.000 A 
ENDROOT
BRANCH   4   7
ATOM      7  C   UNL     1       3.569   5.759  18.648  0.00  0.00    +0.000 C 
ATOM      8  C   UNL     1       4.609   5.731  17.535  0.00  0.00    +0.000 C 
ATOM      9  C   UNL     1       4.732   4.673  16.682  0.00  0.00    +0.000 C 
ATOM     10  O   UNL     1       3.822   3.598  16.688  0.00  0.00    +0.000 OA
ATOM     11  C   UNL     1       2.893   3.614  17.637  0.00  0.00    +0.000 A 
ATOM     12  N   UNL     1       1.981   2.633  17.863  0.00  0.00    +0.000 N 
ATOM     13  N   UNL     1       1.214   2.873  18.950  0.00  0.00    +0.000 NA
ATOM     14  C   UNL     1       1.652   4.058  19.409  0.00  0.00    +0.000 A 
ATOM     15  C   UNL     1       1.073   4.653  20.640  0.00  0.00    +0.000 C 
ATOM     16  C   UNL     1       2.691   4.568  18.597  0.00  0.00    +0.000 A 
ATOM     17  H   UNL     1       1.843   1.771  17.348  0.00  0.00    +0.000 HD
BRANCH   9  18
ATOM     18  N   UNL     1       5.749   4.494  15.771  0.00  0.00    +0.000 N 
ATOM     19  H   UNL     1       5.500   4.576  14.789  0.00  0.00    +0.000 HD
ATOM     20  H   UNL     1       6.339   3.696  15.987  0.00  0.00    +0.000 HD
ENDBRANCH   9  18
BRANCH   8  21
ATOM     21  C   UNL     1       5.579   6.780  17.537  0.00  0.00    +0.000 C 
ATOM     22  N   UNL     1       6.369   7.627  17.532  0.00  0.00    +0.000 NA
ENDBRANCH   8  21
ENDBRANCH   4   7
BRANCH   1  24
ATOM     23  C   UNL     1      -1.067  10.369  18.128  0.00  0.00    +0.000 C 
ATOM     24  O   UNL     1       0.331  10.417  18.306  0.00  0.00    +0.000 OA
ENDBRANCH   1  24
BRANCH   6  25
ATOM     25  C   UNL     1       1.056   9.476  21.240  0.00  0.00    +0.000 C 
BRANCH  25  26
ATOM     26  N   UNL     1       0.631  10.884  21.262  0.00  0.00    +0.000 N 
ATOM     27  N   UNL     1       1.558  11.807  20.908  0.00  0.00    +0.000 NA
ATOM     28  N   UNL     1       1.198  12.977  21.413  0.00  0.00    +0.000 NA
ATOM     29  C   UNL     1       0.015  12.813  22.075  0.00  0.00    +0.000 A 
ATOM     30  C   UNL     1      -0.761  13.755  22.774  0.00  0.00    +0.000 A 
ATOM     31  C   UNL     1      -1.967  13.349  23.351  0.00  0.00    +0.000 A 
ATOM     32  C   UNL     1      -2.364  12.012  23.271  0.00  0.00    +0.000 A 
ATOM     33  C   UNL     1      -1.575  11.041  22.618  0.00  0.00    +0.000 A 
ATOM     34  C   UNL     1      -0.390  11.478  21.998  0.00  0.00    +0.000 A 
ENDBRANCH  25  26
ENDBRANCH   6  25
TORSDOF 6
ENDMDL
MODEL 6
REMARK VINA RESULT:      -7.8      4.910     10.614
REMARK  Name = 
REMARK  8 active torsions:
REMARK  status: ('A' for Active; 'I' for Inactive)
REMARK    1  A    between atoms: C_1  and  O_2
REMARK    2  A    between atoms: O_2  and  C_3
REMARK    3  A    between atoms: C_6  and  C_7
REMARK    4  A    between atoms: C_8  and  C_9
REMARK    5  A    between atoms: C_11  and  N_12
REMARK    6  A    between atoms: C_17  and  C_18
REMARK    7  A    between atoms: C_21  and  C_22
REMARK    8  A    between atoms: C_22  and  N_23
REMARK                            x       y       z     vdW  Elec       q    Type
REMARK                         _______ _______ _______ _____ _____    ______ ____
ROOT
ATOM      1  C   UNL     1      -0.849  13.198  22.081  0.00  0.00    +0.000 A 
ATOM      2  C   UNL     1      -1.432  14.409  21.668  0.00  0.00    +0.000 A 
ATOM      3  C   UNL     1      -2.801  14.613  21.689  0.00  0.00    +0.000 A 
ATOM      4  C   UNL     1      -3.656  13.599  22.125  0.00  0.00    +0.000 A 
ATOM      5  C   UNL     1      -3.078  12.373  22.554  0.00  0.00    +0.000 A 
ATOM      6  C   UNL     1      -1.668  12.126  22.506  0.00  0.00    +0.000 A 
ENDROOT
BRANCH   4   7
ATOM      7  C   UNL     1      -5.147  13.894  22.015  0.00  0.00    +0.000 C 
ATOM      8  C   UNL     1      -5.898  14.254  23.291  0.00  0.00    +0.000 C 
ATOM      9  C   UNL     1      -7.040  13.610  23.669  0.00  0.00    +0.000 C 
ATOM     10  O   UNL     1      -7.526  12.482  22.978  0.00  0.00    +0.000 OA
ATOM     11  C   UNL     1      -6.873  12.137  21.874  0.00  0.00    +0.000 A 
ATOM     12  N   UNL     1      -7.230  11.138  21.027  0.00  0.00    +0.000 N 
ATOM     13  N   UNL     1      -6.434  11.066  19.938  0.00  0.00    +0.000 NA
ATOM     14  C   UNL     1      -5.533  12.047  20.121  0.00  0.00    +0.000 A 
ATOM     15  C   UNL     1      -4.491  12.318  19.099  0.00  0.00    +0.000 C 
ATOM     16  C   UNL     1      -5.760  12.727  21.339  0.00  0.00    +0.000 A 
ATOM     17  H   UNL     1      -8.010  10.495  21.106  0.00  0.00    +0.000 HD
BRANCH   9  18
ATOM     18  N   UNL     1      -7.866  13.986  24.704  0.00  0.00    +0.000 N 
ATOM     19  H   UNL     1      -7.965  13.327  25.471  0.00  0.00    +0.000 HD
ATOM     20  H   UNL     1      -8.741  14.391  24.385  0.00  0.00    +0.000 HD
ENDBRANCH   9  18
BRANCH   8  21
ATOM     21  C   UNL     1      -5.461  15.426  23.983  0.00  0.00    +0.000 C 
ATOM     22  N   UNL     1      -5.102  16.370  24.549  0.00  0.00    +0.000 NA
ENDBRANCH   8  21
ENDBRANCH   4   7
BRANCH   1  24
ATOM     23  C   UNL     1       1.154  13.397  20.702  0.00  0.00    +0.000 C 
ATOM     24  O   UNL     1       0.505  13.307  21.950  0.00  0.00    +0.000 OA
ENDBRANCH   1  24
BRANCH   6  25
ATOM     25  C   UNL     1      -1.110  10.812  23.039  0.00  0.00    +0.000 C 
BRANCH  25  26
ATOM     26  N   UNL     1      -0.383   9.915  22.128  0.00  0.00    +0.000 N 
ATOM     27  N   UNL     1       0.664   9.231  22.652  0.00  0.00    +0.000 NA
ATOM     28  N   UNL     1       1.462   8.865  21.661  0.00  0.00    +0.000 NA
ATOM     29  C   UNL     1       0.912   9.292  20.487  0.00  0.00    +0.000 A 
ATOM     30  C   UNL     1       1.384   9.148  19.169  0.00  0.00    +0.000 A 
ATOM     31  C   UNL     1       0.618   9.650  18.114  0.00  0.00    +0.000 A 
ATOM     32  C   UNL     1      -0.575  10.327  18.377  0.00  0.00    +0.000 A 
ATOM     33  C   UNL     1      -1.039  10.527  19.694  0.00  0.00    +0.000 A 
ATOM     34  C   UNL     1      -0.282   9.970  20.741  0.00  0.00    +0.000 A 
ENDBRANCH  25  26
ENDBRANCH   6  25
TORSDOF 6
ENDMDL
MODEL 7
REMARK VINA RESULT:      -7.7      1.025      1.600
REMARK  Name = 
REMARK  8 active torsions:
REMARK  status: ('A' for Active; 'I' for Inactive)
REMARK    1  A    between atoms: C_1  and  O_2
REMARK    2  A    between atoms: O_2  and  C_3
REMARK    3  A    between atoms: C_6  and  C_7
REMARK    4  A    between atoms: C_8  and  C_9
REMARK    5  A    between atoms: C_11  and  N_12
REMARK    6  A    between atoms: C_17  and  C_18
REMARK    7  A    between atoms: C_21  and  C_22
REMARK    8  A    between atoms: C_22  and  N_23
REMARK                            x       y       z     vdW  Elec       q    Type
REMARK                         _______ _______ _______ _____ _____    ______ ____
ROOT
ATOM      1  C   UNL     1       1.580   8.175  20.300  0.00  0.00    +0.000 A 
ATOM      2  C   UNL     1       2.119   6.998  20.849  0.00  0.00    +0.000 A 
ATOM      3  C   UNL     1       2.712   6.024  20.066  0.00  0.00    +0.000 A 
ATOM      4  C   UNL     1       2.787   6.184  18.681  0.00  0.00    +0.000 A 
ATOM      5  C   UNL     1       2.253   7.374  18.115  0.00  0.00    +0.000 A 
ATOM      6  C   UNL     1       1.603   8.378  18.901  0.00  0.00    +0.000 A 
ENDROOT
BRANCH   4   7
ATOM      7  C   UNL     1       3.370   5.008  17.905  0.00  0.00    +0.000 C 
ATOM      8  C   UNL     1       2.891   3.607  18.268  0.00  0.00    +0.000 C 
ATOM      9  C   UNL     1       3.759   2.595  18.558  0.00  0.00    +0.000 C 
ATOM     10  O   UNL     1       5.147   2.810  18.673  0.00  0.00    +0.000 OA
ATOM     11  C   UNL     1       5.583   4.031  18.383  0.00  0.00    +0.000 A 
ATOM     12  N   UNL     1       6.885   4.415  18.352  0.00  0.00    +0.000 N 
ATOM     13  N   UNL     1       7.043   5.692  17.940  0.00  0.00    +0.000 NA
ATOM     14  C   UNL     1       5.791   6.128  17.723  0.00  0.00    +0.000 A 
ATOM     15  C   UNL     1       5.545   7.500  17.213  0.00  0.00    +0.000 C 
ATOM     16  C   UNL     1       4.843   5.121  18.014  0.00  0.00    +0.000 A 
ATOM     17  H   UNL     1       7.709   3.864  18.564  0.00  0.00    +0.000 HD
BRANCH   9  18
ATOM     18  N   UNL     1       3.418   1.272  18.722  0.00  0.00    +0.000 N 
ATOM     19  H   UNL     1       2.443   1.029  18.567  0.00  0.00    +0.000 HD
ATOM     20  H   UNL     1       3.823   0.859  19.557  0.00  0.00    +0.000 HD
ENDBRANCH   9  18
BRANCH   8  21
ATOM     21  C   UNL     1       1.495   3.346  18.107  0.00  0.00    +0.000 C 
ATOM     22  N   UNL     1       0.364   3.131  17.986  0.00  0.00    +0.000 NA
ENDBRANCH   8  21
ENDBRANCH   4   7
BRANCH   1  24
ATOM     23  C   UNL     1      -0.142   8.646  21.963  0.00  0.00    +0.000 C 
ATOM     24  O   UNL     1       1.078   8.933  21.318  0.00  0.00    +0.000 OA
ENDBRANCH   1  24
BRANCH   6  25
ATOM     25  C   UNL     1       1.108   9.658  18.237  0.00  0.00    +0.000 C 
BRANCH  25  26
ATOM     26  N   UNL     1      -0.297  10.061  18.405  0.00  0.00    +0.000 N 
ATOM     27  N   UNL     1      -1.141   9.767  17.386  0.00  0.00    +0.000 NA
ATOM     28  N   UNL     1      -2.191  10.570  17.468  0.00  0.00    +0.000 NA
ATOM     29  C   UNL     1      -2.035  11.369  18.564  0.00  0.00    +0.000 A 
ATOM     30  C   UNL     1      -2.875  12.379  19.066  0.00  0.00    +0.000 A 
ATOM     31  C   UNL     1      -2.512  13.047  20.239  0.00  0.00    +0.000 A 
ATOM     32  C   UNL     1      -1.303  12.743  20.869  0.00  0.00    +0.000 A 
ATOM     33  C   UNL     1      -0.421  11.769  20.352  0.00  0.00    +0.000 A 
ATOM     34  C   UNL     1      -0.828  11.071  19.201  0.00  0.00    +0.000 A 
ENDBRANCH  25  26
ENDBRANCH   6  25
TORSDOF 6
ENDMDL
MODEL 8
REMARK VINA RESULT:      -7.6      1.137      3.097
REMARK  Name = 
REMARK  8 active torsions:
REMARK  status: ('A' for Active; 'I' for Inactive)
REMARK    1  A    between atoms: C_1  and  O_2
REMARK    2  A    between atoms: O_2  and  C_3
REMARK    3  A    between atoms: C_6  and  C_7
REMARK    4  A    between atoms: C_8  and  C_9
REMARK    5  A    between atoms: C_11  and  N_12
REMARK    6  A    between atoms: C_17  and  C_18
REMARK    7  A    between atoms: C_21  and  C_22
REMARK    8  A    between atoms: C_22  and  N_23
REMARK                            x       y       z     vdW  Elec       q    Type
REMARK                         _______ _______ _______ _____ _____    ______ ____
ROOT
ATOM      1  C   UNL     1       1.503   8.209  20.059  0.00  0.00    +0.000 A 
ATOM      2  C   UNL     1       1.740   7.178  20.986  0.00  0.00    +0.000 A 
ATOM      3  C   UNL     1       2.524   6.079  20.682  0.00  0.00    +0.000 A 
ATOM      4  C   UNL     1       3.107   5.959  19.419  0.00  0.00    +0.000 A 
ATOM      5  C   UNL     1       2.883   6.999  18.476  0.00  0.00    +0.000 A 
ATOM      6  C   UNL     1       2.046   8.126  18.755  0.00  0.00    +0.000 A 
ENDROOT
BRANCH   4   7
ATOM      7  C   UNL     1       3.868   4.664  19.158  0.00  0.00    +0.000 C 
ATOM      8  C   UNL     1       5.006   4.698  18.145  0.00  0.00    +0.000 C 
ATOM      9  C   UNL     1       5.082   3.816  17.107  0.00  0.00    +0.000 C 
ATOM     10  O   UNL     1       4.046   2.902  16.826  0.00  0.00    +0.000 OA
ATOM     11  C   UNL     1       3.034   2.872  17.685  0.00  0.00    +0.000 A 
ATOM     12  N   UNL     1       1.986   2.009  17.637  0.00  0.00    +0.000 N 
ATOM     13  N   UNL     1       1.148   2.146  18.688  0.00  0.00    +0.000 NA
ATOM     14  C   UNL     1       1.683   3.146  19.410  0.00  0.00    +0.000 A 
ATOM     15  C   UNL     1       1.060   3.573  20.688  0.00  0.00    +0.000 C 
ATOM     16  C   UNL     1       2.856   3.645  18.800  0.00  0.00    +0.000 A 
ATOM     17  H   UNL     1       1.794   1.290  16.949  0.00  0.00    +0.000 HD
BRANCH   9  18
ATOM     18  N   UNL     1       6.155   3.668  16.259  0.00  0.00    +0.000 N 
ATOM     19  H   UNL     1       7.063   3.954  16.618  0.00  0.00    +0.000 HD
ATOM     20  H   UNL     1       5.961   3.986  15.314  0.00  0.00    +0.000 HD
ENDBRANCH   9  18
BRANCH   8  21
ATOM     21  C   UNL     1       6.096   5.576  18.434  0.00  0.00    +0.000 C 
ATOM     22  N   UNL     1       6.976   6.293  18.662  0.00  0.00    +0.000 NA
ENDBRANCH   8  21
ENDBRANCH   4   7
BRANCH   1  24
ATOM     23  C   UNL     1      -0.292   8.823  21.593  0.00  0.00    +0.000 C 
ATOM     24  O   UNL     1       0.707   9.145  20.652  0.00  0.00    +0.000 OA
ENDBRANCH   1  24
BRANCH   6  25
ATOM     25  C   UNL     1       1.898   9.236  17.720  0.00  0.00    +0.000 C 
BRANCH  25  26
ATOM     26  N   UNL     1       1.043  10.394  18.022  0.00  0.00    +0.000 N 
ATOM     27  N   UNL     1       1.582  11.364  18.800  0.00  0.00    +0.000 NA
ATOM     28  N   UNL     1       0.595  12.058  19.348  0.00  0.00    +0.000 NA
ATOM     29  C   UNL     1      -0.588  11.548  18.897  0.00  0.00    +0.000 A 
ATOM     30  C   UNL     1      -1.906  11.942  19.193  0.00  0.00    +0.000 A 
ATOM     31  C   UNL     1      -2.969  11.279  18.575  0.00  0.00    +0.000 A 
ATOM     32  C   UNL     1      -2.718  10.207  17.714  0.00  0.00    +0.000 A 
ATOM     33  C   UNL     1      -1.406   9.764  17.445  0.00  0.00    +0.000 A 
ATOM     34  C   UNL     1      -0.346  10.476  18.035  0.00  0.00    +0.000 A 
ENDBRANCH  25  26
ENDBRANCH   6  25
TORSDOF 6
ENDMDL
MODEL 9
REMARK VINA RESULT:      -7.6      5.006      7.593
REMARK  Name = 
REMARK  8 active torsions:
REMARK  status: ('A' for Active; 'I' for Inactive)
REMARK    1  A    between atoms: C_1  and  O_2
REMARK    2  A    between atoms: O_2  and  C_3
REMARK    3  A    between atoms: C_6  and  C_7
REMARK    4  A    between atoms: C_8  and  C_9
REMARK    5  A    between atoms: C_11  and  N_12
REMARK    6  A    between atoms: C_17  and  C_18
REMARK    7  A    between atoms: C_21  and  C_22
REMARK    8  A    between atoms: C_22  and  N_23
REMARK                            x       y       z     vdW  Elec       q    Type
REMARK                         _______ _______ _______ _____ _____    ______ ____
ROOT
ATOM      1  C   UNL     1      -3.356  13.701  22.079  0.00  0.00    +0.000 A 
ATOM      2  C   UNL     1      -2.169  14.125  22.703  0.00  0.00    +0.000 A 
ATOM      3  C   UNL     1      -0.922  13.708  22.275  0.00  0.00    +0.000 A 
ATOM      4  C   UNL     1      -0.805  12.831  21.195  0.00  0.00    +0.000 A 
ATOM      5  C   UNL     1      -1.997  12.402  20.550  0.00  0.00    +0.000 A 
ATOM      6  C   UNL     1      -3.300  12.791  20.997  0.00  0.00    +0.000 A 
ENDROOT
BRANCH   4   7
ATOM      7  C   UNL     1       0.607  12.359  20.870  0.00  0.00    +0.000 C 
ATOM      8  C   UNL     1       1.277  12.921  19.621  0.00  0.00    +0.000 C 
ATOM      9  C   UNL     1       1.830  12.115  18.669  0.00  0.00    +0.000 C 
ATOM     10  O   UNL     1       1.702  10.712  18.710  0.00  0.00    +0.000 OA
ATOM     11  C   UNL     1       1.102  10.204  19.780  0.00  0.00    +0.000 A 
ATOM     12  N   UNL     1       0.956   8.880  20.047  0.00  0.00    +0.000 N 
ATOM     13  N   UNL     1       0.384   8.649  21.248  0.00  0.00    +0.000 NA
ATOM     14  C   UNL     1       0.146   9.876  21.744  0.00  0.00    +0.000 A 
ATOM     15  C   UNL     1      -0.451  10.044  23.093  0.00  0.00    +0.000 C 
ATOM     16  C   UNL     1       0.561  10.880  20.840  0.00  0.00    +0.000 A 
ATOM     17  H   UNL     1       1.244   8.089  19.482  0.00  0.00    +0.000 HD
BRANCH   9  18
ATOM     18  N   UNL     1       2.599  12.540  17.610  0.00  0.00    +0.000 N 
ATOM     19  H   UNL     1       2.363  13.444  17.208  0.00  0.00    +0.000 HD
ATOM     20  H   UNL     1       2.768  11.810  16.924  0.00  0.00    +0.000 HD
ENDBRANCH   9  18
BRANCH   8  21
ATOM     21  C   UNL     1       1.469  14.336  19.577  0.00  0.00    +0.000 C 
ATOM     22  N   UNL     1       1.617  15.484  19.541  0.00  0.00    +0.000 NA
ENDBRANCH   8  21
ENDBRANCH   4   7
BRANCH   1  24
ATOM     23  C   UNL     1      -5.092  13.677  23.794  0.00  0.00    +0.000 C 
ATOM     24  O   UNL     1      -4.410  14.284  22.719  0.00  0.00    +0.000 OA
ENDBRANCH   1  24
BRANCH   6  25
ATOM     25  C   UNL     1      -4.533  12.343  20.221  0.00  0.00    +0.000 C 
BRANCH  25  26
ATOM     26  N   UNL     1      -4.473  12.266  18.753  0.00  0.00    +0.000 N 
ATOM     27  N   UNL     1      -5.562  12.703  18.075  0.00  0.00    +0.000 NA
ATOM     28  N   UNL     1      -5.552  12.155  16.869  0.00  0.00    +0.000 NA
ATOM     29  C   UNL     1      -4.433  11.380  16.761  0.00  0.00    +0.000 A 
ATOM     30  C   UNL     1      -3.984  10.598  15.681  0.00  0.00    +0.000 A 
ATOM     31  C   UNL     1      -2.774   9.907  15.798  0.00  0.00    +0.000 A 
ATOM     32  C   UNL     1      -2.054   9.959  16.993  0.00  0.00    +0.000 A 
ATOM     33  C   UNL     1      -2.513  10.696  18.105  0.00  0.00    +0.000 A 
ATOM     34  C   UNL     1      -3.706  11.427  17.953  0.00  0.00    +0.000 A 
ENDBRANCH  25  26
ENDBRANCH   6  25
TORSDOF 6
ENDMDL
