MODEL 1
REMARK VINA RESULT:      -7.9      0.000      0.000
REMARK  Name = 
REMARK  3 active torsions:
REMARK  status: ('A' for Active; 'I' for Inactive)
REMARK    1  A    between atoms: C_4  and  C_5
REMARK    2  A    between atoms: C_8  and  C_9
REMARK    3  A    between atoms: N_17  and  C_18
REMARK                            x       y       z     vdW  Elec       q    Type
REMARK                         _______ _______ _______ _____ _____    ______ ____
ROOT
ATOM      1  N   UNL     1      -0.326  13.682  18.831  0.00  0.00    +0.000 NA
ATOM      2  C   UNL     1      -0.243  12.412  18.638  0.00  0.00    +0.000 A 
ATOM      3  S   UNL     1       1.351  11.694  18.739  0.00  0.00    +0.000 S 
ATOM      4  C   UNL     1       0.570  10.122  18.628  0.00  0.00    +0.000 A 
ATOM      5  N   UNL     1      -0.712  10.129  18.418  0.00  0.00    +0.000 NA
ATOM      6  N   UNL     1      -1.179  11.424  18.409  0.00  0.00    +0.000 N 
ATOM      7  H   UNL     1       0.631  14.040  18.930  0.00  0.00    +0.000 HD
ENDROOT
BRANCH   6   8
ATOM      8  C   UNL     1      -2.589  11.623  18.262  0.00  0.00    +0.000 A 
ATOM      9  C   UNL     1      -3.404  12.052  19.343  0.00  0.00    +0.000 A 
ATOM     10 CL   UNL     1      -2.796  12.454  20.924  0.00  0.00    +0.000 Cl
ATOM     11  C   UNL     1      -4.789  12.241  19.200  0.00  0.00    +0.000 A 
ATOM     12  C   UNL     1      -5.392  12.048  17.968  0.00  0.00    +0.000 A 
ATOM     13 CL   UNL     1      -7.083  12.297  17.787  0.00  0.00    +0.000 Cl
ATOM     14  C   UNL     1      -4.636  11.631  16.885  0.00  0.00    +0.000 A 
ATOM     15  C   UNL     1      -3.262  11.387  17.036  0.00  0.00    +0.000 A 
ATOM     16 CL   UNL     1      -2.531  10.610  15.663  0.00  0.00    +0.000 Cl
ENDBRANCH   6   8
BRANCH   4  17
ATOM     17  C   UNL     1       1.369   8.893  18.788  0.00  0.00    +0.000 A 
ATOM     18  C   UNL     1       2.118   8.358  17.729  0.00  0.00    +0.000 A 
ATOM     19  C   UNL     1       2.893   7.209  17.921  0.00  0.00    +0.000 A 
ATOM     20  C   UNL     1       2.940   6.578  19.172  0.00  0.00    +0.000 A 
ATOM     21  C   UNL     1       2.192   7.118  20.228  0.00  0.00    +0.000 A 
ATOM     22  C   UNL     1       1.422   8.266  20.033  0.00  0.00    +0.000 A 
ATOM     23  F   UNL     1       0.716   8.728  21.075  0.00  0.00    +0.000 F 
BRANCH  20  24
ATOM     24  C   UNL     1       3.781   5.343  19.392  0.00  0.00    +0.000 C 
ATOM     25  F   UNL     1       3.861   4.542  18.295  0.00  0.00    +0.000 F 
ATOM     26  F   UNL     1       5.064   5.646  19.729  0.00  0.00    +0.000 F 
ATOM     27  F   UNL     1       3.300   4.560  20.396  0.00  0.00    +0.000 F 
ENDBRANCH  20  24
ENDBRANCH   4  17
TORSDOF 3
ENDMDL
MODEL 2
REMARK VINA RESULT:      -7.8      0.118      1.965
REMARK  Name = 
REMARK  3 active torsions:
REMARK  status: ('A' for Active; 'I' for Inactive)
REMARK    1  A    between atoms: C_4  and  C_5
REMARK    2  A    between atoms: C_8  and  C_9
REMARK    3  A    between atoms: N_17  and  C_18
REMARK                            x       y       z     vdW  Elec       q    Type
REMARK                         _______ _______ _______ _____ _____    ______ ____
ROOT
ATOM      1  N   UNL     1      -0.239  13.704  18.676  0.00  0.00    +0.000 NA
ATOM      2  C   UNL     1      -0.180  12.426  18.537  0.00  0.00    +0.000 A 
ATOM      3  S   UNL     1       1.407  11.689  18.615  0.00  0.00    +0.000 S 
ATOM      4  C   UNL     1       0.602  10.126  18.601  0.00  0.00    +0.000 A 
ATOM      5  N   UNL     1      -0.687  10.142  18.435  0.00  0.00    +0.000 NA
ATOM      6  N   UNL     1      -1.137  11.442  18.385  0.00  0.00    +0.000 N 
ATOM      7  H   UNL     1       0.726  14.051  18.726  0.00  0.00    +0.000 HD
ENDROOT
BRANCH   6   8
ATOM      8  C   UNL     1      -2.548  11.656  18.279  0.00  0.00    +0.000 A 
ATOM      9  C   UNL     1      -3.255  11.418  17.070  0.00  0.00    +0.000 A 
ATOM     10 CL   UNL     1      -2.529  10.778  15.624  0.00  0.00    +0.000 Cl
ATOM     11  C   UNL     1      -4.640  11.635  16.965  0.00  0.00    +0.000 A 
ATOM     12  C   UNL     1      -5.362  12.055  18.070  0.00  0.00    +0.000 A 
ATOM     13 CL   UNL     1      -7.059  12.303  17.947  0.00  0.00    +0.000 Cl
ATOM     14  C   UNL     1      -4.714  12.299  19.269  0.00  0.00    +0.000 A 
ATOM     15  C   UNL     1      -3.323  12.137  19.365  0.00  0.00    +0.000 A 
ATOM     16 CL   UNL     1      -2.645  12.748  20.844  0.00  0.00    +0.000 Cl
ENDBRANCH   6   8
BRANCH   4  17
ATOM     17  C   UNL     1       1.390   8.893  18.788  0.00  0.00    +0.000 A 
ATOM     18  C   UNL     1       2.180   8.360  17.758  0.00  0.00    +0.000 A 
ATOM     19  C   UNL     1       2.943   7.208  17.975  0.00  0.00    +0.000 A 
ATOM     20  C   UNL     1       2.936   6.571  19.224  0.00  0.00    +0.000 A 
ATOM     21  C   UNL     1       2.148   7.109  20.251  0.00  0.00    +0.000 A 
ATOM     22  C   UNL     1       1.390   8.260  20.031  0.00  0.00    +0.000 A 
ATOM     23  F   UNL     1       0.644   8.719  21.046  0.00  0.00    +0.000 F 
BRANCH  20  24
ATOM     24  C   UNL     1       3.765   5.333  19.472  0.00  0.00    +0.000 C 
ATOM     25  F   UNL     1       3.326   4.591  20.526  0.00  0.00    +0.000 F 
ATOM     26  F   UNL     1       3.773   4.494  18.401  0.00  0.00    +0.000 F 
ATOM     27  F   UNL     1       5.068   5.626  19.735  0.00  0.00    +0.000 F 
ENDBRANCH  20  24
ENDBRANCH   4  17
TORSDOF 3
ENDMDL
MODEL 3
REMARK VINA RESULT:      -7.5      0.985      2.390
REMARK  Name = 
REMARK  3 active torsions:
REMARK  status: ('A' for Active; 'I' for Inactive)
REMARK    1  A    between atoms: C_4  and  C_5
REMARK    2  A    between atoms: C_8  and  C_9
REMARK    3  A    between atoms: N_17  and  C_18
REMARK                            x       y       z     vdW  Elec       q    Type
REMARK                         _______ _______ _______ _____ _____    ______ ____
ROOT
ATOM      1  N   UNL     1      -0.671  13.850  19.454  0.00  0.00    +0.000 NA
ATOM      2  C   UNL     1      -0.559  12.589  19.216  0.00  0.00    +0.000 A 
ATOM      3  S   UNL     1       1.036  11.887  19.387  0.00  0.00    +0.000 S 
ATOM      4  C   UNL     1       0.287  10.312  19.165  0.00  0.00    +0.000 A 
ATOM      5  N   UNL     1      -0.980  10.311  18.877  0.00  0.00    +0.000 NA
ATOM      6  N   UNL     1      -1.464  11.600  18.890  0.00  0.00    +0.000 N 
ATOM      7  H   UNL     1       0.273  14.214  19.626  0.00  0.00    +0.000 HD
ENDROOT
BRANCH   6   8
ATOM      8  C   UNL     1      -2.865  11.788  18.664  0.00  0.00    +0.000 A 
ATOM      9  C   UNL     1      -3.452  11.603  17.384  0.00  0.00    +0.000 A 
ATOM     10 CL   UNL     1      -2.578  11.060  15.980  0.00  0.00    +0.000 Cl
ATOM     11  C   UNL     1      -4.826  11.795  17.162  0.00  0.00    +0.000 A 
ATOM     12  C   UNL     1      -5.658  12.138  18.215  0.00  0.00    +0.000 A 
ATOM     13 CL   UNL     1      -7.342  12.355  17.948  0.00  0.00    +0.000 Cl
ATOM     14  C   UNL     1      -5.129  12.328  19.481  0.00  0.00    +0.000 A 
ATOM     15  C   UNL     1      -3.749  12.192  19.697  0.00  0.00    +0.000 A 
ATOM     16 CL   UNL     1      -3.226  12.734  21.264  0.00  0.00    +0.000 Cl
ENDBRANCH   6   8
BRANCH   4  17
ATOM     17  C   UNL     1       1.092   9.087  19.326  0.00  0.00    +0.000 A 
ATOM     18  C   UNL     1       1.071   8.341  20.515  0.00  0.00    +0.000 A 
ATOM     19  C   UNL     1       1.819   7.165  20.626  0.00  0.00    +0.000 A 
ATOM     20  C   UNL     1       2.597   6.707  19.553  0.00  0.00    +0.000 A 
ATOM     21  C   UNL     1       2.612   7.453  18.366  0.00  0.00    +0.000 A 
ATOM     22  C   UNL     1       1.862   8.625  18.258  0.00  0.00    +0.000 A 
ATOM     23  F   UNL     1       1.928   9.304  17.104  0.00  0.00    +0.000 F 
BRANCH  20  24
ATOM     24  C   UNL     1       3.400   5.433  19.659  0.00  0.00    +0.000 C 
ATOM     25  F   UNL     1       3.036   4.652  20.712  0.00  0.00    +0.000 F 
ATOM     26  F   UNL     1       3.279   4.651  18.553  0.00  0.00    +0.000 F 
ATOM     27  F   UNL     1       4.731   5.672  19.811  0.00  0.00    +0.000 F 
ENDBRANCH  20  24
ENDBRANCH   4  17
TORSDOF 3
ENDMDL
MODEL 4
REMARK VINA RESULT:      -7.5      1.036      1.571
REMARK  Name = 
REMARK  3 active torsions:
REMARK  status: ('A' for Active; 'I' for Inactive)
REMARK    1  A    between atoms: C_4  and  C_5
REMARK    2  A    between atoms: C_8  and  C_9
REMARK    3  A    between atoms: N_17  and  C_18
REMARK                            x       y       z     vdW  Elec       q    Type
REMARK                         _______ _______ _______ _____ _____    ______ ____
ROOT
ATOM      1  N   UNL     1      -0.763  13.868  19.719  0.00  0.00    +0.000 NA
ATOM      2  C   UNL     1      -0.635  12.620  19.429  0.00  0.00    +0.000 A 
ATOM      3  S   UNL     1       0.956  11.916  19.630  0.00  0.00    +0.000 S 
ATOM      4  C   UNL     1       0.224  10.350  19.309  0.00  0.00    +0.000 A 
ATOM      5  N   UNL     1      -1.031  10.358  18.972  0.00  0.00    +0.000 NA
ATOM      6  N   UNL     1      -1.522  11.643  19.024  0.00  0.00    +0.000 N 
ATOM      7  H   UNL     1       0.171  14.227  19.944  0.00  0.00    +0.000 HD
ENDROOT
BRANCH   6   8
ATOM      8  C   UNL     1      -2.914  11.836  18.753  0.00  0.00    +0.000 A 
ATOM      9  C   UNL     1      -3.827  12.243  19.762  0.00  0.00    +0.000 A 
ATOM     10 CL   UNL     1      -3.368  12.624  21.397  0.00  0.00    +0.000 Cl
ATOM     11  C   UNL     1      -5.195  12.426  19.496  0.00  0.00    +0.000 A 
ATOM     12  C   UNL     1      -5.682  12.248  18.212  0.00  0.00    +0.000 A 
ATOM     13 CL   UNL     1      -7.352  12.490  17.882  0.00  0.00    +0.000 Cl
ATOM     14  C   UNL     1      -4.827  11.853  17.197  0.00  0.00    +0.000 A 
ATOM     15  C   UNL     1      -3.471  11.614  17.468  0.00  0.00    +0.000 A 
ATOM     16 CL   UNL     1      -2.613  10.863  16.156  0.00  0.00    +0.000 Cl
ENDBRANCH   6   8
BRANCH   4  17
ATOM     17  C   UNL     1       1.029   9.122  19.446  0.00  0.00    +0.000 A 
ATOM     18  C   UNL     1       1.009   8.354  20.621  0.00  0.00    +0.000 A 
ATOM     19  C   UNL     1       1.757   7.176  20.709  0.00  0.00    +0.000 A 
ATOM     20  C   UNL     1       2.533   6.738  19.626  0.00  0.00    +0.000 A 
ATOM     21  C   UNL     1       2.547   7.506  18.453  0.00  0.00    +0.000 A 
ATOM     22  C   UNL     1       1.797   8.680  18.368  0.00  0.00    +0.000 A 
ATOM     23  F   UNL     1       1.862   9.380  17.227  0.00  0.00    +0.000 F 
BRANCH  20  24
ATOM     24  C   UNL     1       3.336   5.462  19.707  0.00  0.00    +0.000 C 
ATOM     25  F   UNL     1       4.674   5.672  19.835  0.00  0.00    +0.000 F 
ATOM     26  F   UNL     1       2.975   4.691  20.768  0.00  0.00    +0.000 F 
ATOM     27  F   UNL     1       3.182   4.682  18.602  0.00  0.00    +0.000 F 
ENDBRANCH  20  24
ENDBRANCH   4  17
TORSDOF 3
ENDMDL
MODEL 5
REMARK VINA RESULT:      -7.4      1.648      2.180
REMARK  Name = 
REMARK  3 active torsions:
REMARK  status: ('A' for Active; 'I' for Inactive)
REMARK    1  A    between atoms: C_4  and  C_5
REMARK    2  A    between atoms: C_8  and  C_9
REMARK    3  A    between atoms: N_17  and  C_18
REMARK                            x       y       z     vdW  Elec       q    Type
REMARK                         _______ _______ _______ _____ _____    ______ ____
ROOT
ATOM      1  N   UNL     1       0.048  14.162  19.761  0.00  0.00    +0.000 NA
ATOM      2  C   UNL     1      -0.029  12.885  19.617  0.00  0.00    +0.000 A 
ATOM      3  S   UNL     1       1.379  12.073  18.964  0.00  0.00    +0.000 S 
ATOM      4  C   UNL     1       0.577  10.550  19.327  0.00  0.00    +0.000 A 
ATOM      5  N   UNL     1      -0.642  10.630  19.768  0.00  0.00    +0.000 NA
ATOM      6  N   UNL     1      -0.998  11.951  19.923  0.00  0.00    +0.000 N 
ATOM      7  H   UNL     1       0.946  14.462  19.364  0.00  0.00    +0.000 HD
ENDROOT
BRANCH   6   8
ATOM      8  C   UNL     1      -2.289  12.234  20.472  0.00  0.00    +0.000 A 
ATOM      9  C   UNL     1      -2.477  12.498  21.855  0.00  0.00    +0.000 A 
ATOM     10 CL   UNL     1      -1.183  12.586  23.015  0.00  0.00    +0.000 Cl
ATOM     11  C   UNL     1      -3.746  12.768  22.394  0.00  0.00    +0.000 A 
ATOM     12  C   UNL     1      -4.855  12.824  21.565  0.00  0.00    +0.000 A 
ATOM     13 CL   UNL     1      -6.405  13.173  22.221  0.00  0.00    +0.000 Cl
ATOM     14  C   UNL     1      -4.718  12.574  20.210  0.00  0.00    +0.000 A 
ATOM     15  C   UNL     1      -3.462  12.248  19.674  0.00  0.00    +0.000 A 
ATOM     16 CL   UNL     1      -3.522  11.697  18.027  0.00  0.00    +0.000 Cl
ENDBRANCH   6   8
BRANCH   4  17
ATOM     17  C   UNL     1       1.299   9.278  19.139  0.00  0.00    +0.000 A 
ATOM     18  C   UNL     1       1.909   8.949  17.918  0.00  0.00    +0.000 A 
ATOM     19  C   UNL     1       2.616   7.750  17.781  0.00  0.00    +0.000 A 
ATOM     20  C   UNL     1       2.733   6.860  18.858  0.00  0.00    +0.000 A 
ATOM     21  C   UNL     1       2.125   7.194  20.076  0.00  0.00    +0.000 A 
ATOM     22  C   UNL     1       1.423   8.393  20.211  0.00  0.00    +0.000 A 
ATOM     23  F   UNL     1       0.850   8.651  21.395  0.00  0.00    +0.000 F 
BRANCH  20  24
ATOM     24  C   UNL     1       3.502   5.568  18.722  0.00  0.00    +0.000 C 
ATOM     25  F   UNL     1       4.594   5.502  19.531  0.00  0.00    +0.000 F 
ATOM     26  F   UNL     1       2.744   4.481  19.026  0.00  0.00    +0.000 F 
ATOM     27  F   UNL     1       3.960   5.369  17.456  0.00  0.00    +0.000 F 
ENDBRANCH  20  24
ENDBRANCH   4  17
TORSDOF 3
ENDMDL
MODEL 6
REMARK VINA RESULT:      -7.3      1.356      2.482
REMARK  Name = 
REMARK  3 active torsions:
REMARK  status: ('A' for Active; 'I' for Inactive)
REMARK    1  A    between atoms: C_4  and  C_5
REMARK    2  A    between atoms: C_8  and  C_9
REMARK    3  A    between atoms: N_17  and  C_18
REMARK                            x       y       z     vdW  Elec       q    Type
REMARK                         _______ _______ _______ _____ _____    ______ ____
ROOT
ATOM      1  N   UNL     1       0.306  13.858  19.058  0.00  0.00    +0.000 NA
ATOM      2  C   UNL     1       0.213  12.574  19.075  0.00  0.00    +0.000 A 
ATOM      3  S   UNL     1       1.620  11.667  18.560  0.00  0.00    +0.000 S 
ATOM      4  C   UNL     1       0.789  10.213  19.097  0.00  0.00    +0.000 A 
ATOM      5  N   UNL     1      -0.437  10.365  19.500  0.00  0.00    +0.000 NA
ATOM      6  N   UNL     1      -0.776  11.699  19.478  0.00  0.00    +0.000 N 
ATOM      7  H   UNL     1       1.215  14.093  18.643  0.00  0.00    +0.000 HD
ENDROOT
BRANCH   6   8
ATOM      8  C   UNL     1      -2.072  12.066  19.960  0.00  0.00    +0.000 A 
ATOM      9  C   UNL     1      -3.217  12.059  19.120  0.00  0.00    +0.000 A 
ATOM     10 CL   UNL     1      -3.205  11.540  17.458  0.00  0.00    +0.000 Cl
ATOM     11  C   UNL     1      -4.488  12.426  19.593  0.00  0.00    +0.000 A 
ATOM     12  C   UNL     1      -4.661  12.771  20.923  0.00  0.00    +0.000 A 
ATOM     13 CL   UNL     1      -6.219  13.202  21.507  0.00  0.00    +0.000 Cl
ATOM     14  C   UNL     1      -3.573  12.791  21.779  0.00  0.00    +0.000 A 
ATOM     15  C   UNL     1      -2.291  12.479  21.300  0.00  0.00    +0.000 A 
ATOM     16 CL   UNL     1      -1.015  12.823  22.428  0.00  0.00    +0.000 Cl
ENDBRANCH   6   8
BRANCH   4  17
ATOM     17  C   UNL     1       1.495   8.918  19.087  0.00  0.00    +0.000 A 
ATOM     18  C   UNL     1       2.212   8.478  17.964  0.00  0.00    +0.000 A 
ATOM     19  C   UNL     1       2.899   7.261  17.996  0.00  0.00    +0.000 A 
ATOM     20  C   UNL     1       2.890   6.463  19.150  0.00  0.00    +0.000 A 
ATOM     21  C   UNL     1       2.175   6.909  20.270  0.00  0.00    +0.000 A 
ATOM     22  C   UNL     1       1.492   8.125  20.235  0.00  0.00    +0.000 A 
ATOM     23  F   UNL     1       0.813   8.492  21.332  0.00  0.00    +0.000 F 
BRANCH  20  24
ATOM     24  C   UNL     1       3.638   5.152  19.198  0.00  0.00    +0.000 C 
ATOM     25  F   UNL     1       4.976   5.300  19.394  0.00  0.00    +0.000 F 
ATOM     26  F   UNL     1       3.199   4.344  20.200  0.00  0.00    +0.000 F 
ATOM     27  F   UNL     1       3.503   4.438  18.047  0.00  0.00    +0.000 F 
ENDBRANCH  20  24
ENDBRANCH   4  17
TORSDOF 3
ENDMDL
MODEL 7
REMARK VINA RESULT:      -7.2      1.754      2.343
REMARK  Name = 
REMARK  3 active torsions:
REMARK  status: ('A' for Active; 'I' for Inactive)
REMARK    1  A    between atoms: C_4  and  C_5
REMARK    2  A    between atoms: C_8  and  C_9
REMARK    3  A    between atoms: N_17  and  C_18
REMARK                            x       y       z     vdW  Elec       q    Type
REMARK                         _______ _______ _______ _____ _____    ______ ____
ROOT
ATOM      1  N   UNL     1      -0.100  14.144  19.663  0.00  0.00    +0.000 NA
ATOM      2  C   UNL     1      -0.169  12.858  19.630  0.00  0.00    +0.000 A 
ATOM      3  S   UNL     1       1.284  11.996  19.169  0.00  0.00    +0.000 S 
ATOM      4  C   UNL     1       0.451  10.509  19.603  0.00  0.00    +0.000 A 
ATOM      5  N   UNL     1      -0.800  10.624  19.936  0.00  0.00    +0.000 NA
ATOM      6  N   UNL     1      -1.163  11.952  19.941  0.00  0.00    +0.000 N 
ATOM      7  H   UNL     1       0.828  14.409  19.313  0.00  0.00    +0.000 HD
ENDROOT
BRANCH   6   8
ATOM      8  C   UNL     1      -2.493  12.279  20.356  0.00  0.00    +0.000 A 
ATOM      9  C   UNL     1      -2.797  12.628  21.699  0.00  0.00    +0.000 A 
ATOM     10 CL   UNL     1      -1.608  12.775  22.962  0.00  0.00    +0.000 Cl
ATOM     11  C   UNL     1      -4.105  12.941  22.107  0.00  0.00    +0.000 A 
ATOM     12  C   UNL     1      -5.136  12.956  21.182  0.00  0.00    +0.000 A 
ATOM     13 CL   UNL     1      -6.732  13.357  21.677  0.00  0.00    +0.000 Cl
ATOM     14  C   UNL     1      -4.885  12.623  19.862  0.00  0.00    +0.000 A 
ATOM     15  C   UNL     1      -3.592  12.255  19.459  0.00  0.00    +0.000 A 
ATOM     16 CL   UNL     1      -3.515  11.605  17.849  0.00  0.00    +0.000 Cl
ENDBRANCH   6   8
BRANCH   4  17
ATOM     17  C   UNL     1       1.181   9.228  19.591  0.00  0.00    +0.000 A 
ATOM     18  C   UNL     1       1.243   8.404  20.725  0.00  0.00    +0.000 A 
ATOM     19  C   UNL     1       1.915   7.178  20.674  0.00  0.00    +0.000 A 
ATOM     20  C   UNL     1       2.532   6.750  19.489  0.00  0.00    +0.000 A 
ATOM     21  C   UNL     1       2.464   7.575  18.358  0.00  0.00    +0.000 A 
ATOM     22  C   UNL     1       1.791   8.796  18.413  0.00  0.00    +0.000 A 
ATOM     23  F   UNL     1       1.773   9.548  17.304  0.00  0.00    +0.000 F 
BRANCH  20  24
ATOM     24  C   UNL     1       3.251   5.424  19.421  0.00  0.00    +0.000 C 
ATOM     25  F   UNL     1       2.721   4.478  20.244  0.00  0.00    +0.000 F 
ATOM     26  F   UNL     1       3.228   4.888  18.171  0.00  0.00    +0.000 F 
ATOM     27  F   UNL     1       4.564   5.528  19.765  0.00  0.00    +0.000 F 
ENDBRANCH  20  24
ENDBRANCH   4  17
TORSDOF 3
ENDMDL
MODEL 8
REMARK VINA RESULT:      -7.2      2.761      4.241
REMARK  Name = 
REMARK  3 active torsions:
REMARK  status: ('A' for Active; 'I' for Inactive)
REMARK    1  A    between atoms: C_4  and  C_5
REMARK    2  A    between atoms: C_8  and  C_9
REMARK    3  A    between atoms: N_17  and  C_18
REMARK                            x       y       z     vdW  Elec       q    Type
REMARK                         _______ _______ _______ _____ _____    ______ ____
ROOT
ATOM      1  N   UNL     1      -2.214  12.480  18.636  0.00  0.00    +0.000 NA
ATOM      2  C   UNL     1      -1.278  11.731  19.106  0.00  0.00    +0.000 A 
ATOM      3  S   UNL     1      -0.983  10.214  18.281  0.00  0.00    +0.000 S 
ATOM      4  C   UNL     1       0.436  10.020  19.301  0.00  0.00    +0.000 A 
ATOM      5  N   UNL     1       0.606  10.913  20.230  0.00  0.00    +0.000 NA
ATOM      6  N   UNL     1      -0.369  11.879  20.134  0.00  0.00    +0.000 N 
ATOM      7  H   UNL     1      -2.671  11.959  17.878  0.00  0.00    +0.000 HD
ENDROOT
BRANCH   6   8
ATOM      8  C   UNL     1      -0.299  12.989  21.035  0.00  0.00    +0.000 A 
ATOM      9  C   UNL     1       0.418  14.173  20.715  0.00  0.00    +0.000 A 
ATOM     10 CL   UNL     1       1.216  14.449  19.192  0.00  0.00    +0.000 Cl
ATOM     11  C   UNL     1       0.492  15.259  21.603  0.00  0.00    +0.000 A 
ATOM     12  C   UNL     1      -0.177  15.212  22.815  0.00  0.00    +0.000 A 
ATOM     13 CL   UNL     1      -0.102  16.548  23.894  0.00  0.00    +0.000 Cl
ATOM     14  C   UNL     1      -0.889  14.078  23.168  0.00  0.00    +0.000 A 
ATOM     15  C   UNL     1      -0.921  12.968  22.309  0.00  0.00    +0.000 A 
ATOM     16 CL   UNL     1      -1.618  11.546  23.025  0.00  0.00    +0.000 Cl
ENDBRANCH   6   8
BRANCH   4  17
ATOM     17  C   UNL     1       1.361   8.896  19.065  0.00  0.00    +0.000 A 
ATOM     18  C   UNL     1       2.167   8.833  17.917  0.00  0.00    +0.000 A 
ATOM     19  C   UNL     1       3.059   7.772  17.736  0.00  0.00    +0.000 A 
ATOM     20  C   UNL     1       3.169   6.757  18.699  0.00  0.00    +0.000 A 
ATOM     21  C   UNL     1       2.365   6.826  19.845  0.00  0.00    +0.000 A 
ATOM     22  C   UNL     1       1.477   7.888  20.023  0.00  0.00    +0.000 A 
ATOM     23  F   UNL     1       0.724   7.892  21.131  0.00  0.00    +0.000 F 
BRANCH  20  24
ATOM     24  C   UNL     1       4.138   5.613  18.517  0.00  0.00    +0.000 C 
ATOM     25  F   UNL     1       5.085   5.547  19.491  0.00  0.00    +0.000 F 
ATOM     26  F   UNL     1       3.514   4.404  18.519  0.00  0.00    +0.000 F 
ATOM     27  F   UNL     1       4.814   5.689  17.339  0.00  0.00    +0.000 F 
ENDBRANCH  20  24
ENDBRANCH   4  17
TORSDOF 3
ENDMDL
MODEL 9
REMARK VINA RESULT:      -7.2      1.770      2.785
REMARK  Name = 
REMARK  3 active torsions:
REMARK  status: ('A' for Active; 'I' for Inactive)
REMARK    1  A    between atoms: C_4  and  C_5
REMARK    2  A    between atoms: C_8  and  C_9
REMARK    3  A    between atoms: N_17  and  C_18
REMARK                            x       y       z     vdW  Elec       q    Type
REMARK                         _______ _______ _______ _____ _____    ______ ____
ROOT
ATOM      1  N   UNL     1      -0.115  14.205  20.235  0.00  0.00    +0.000 NA
ATOM      2  C   UNL     1      -0.197  12.943  19.997  0.00  0.00    +0.000 A 
ATOM      3  S   UNL     1       1.242  12.155  19.384  0.00  0.00    +0.000 S 
ATOM      4  C   UNL     1       0.401  10.624  19.586  0.00  0.00    +0.000 A 
ATOM      5  N   UNL     1      -0.844  10.693  19.951  0.00  0.00    +0.000 NA
ATOM      6  N   UNL     1      -1.194  12.005  20.173  0.00  0.00    +0.000 N 
ATOM      7  H   UNL     1       0.810  14.517  19.918  0.00  0.00    +0.000 HD
ENDROOT
BRANCH   6   8
ATOM      8  C   UNL     1      -2.516  12.271  20.654  0.00  0.00    +0.000 A 
ATOM      9  C   UNL     1      -3.646  12.259  19.794  0.00  0.00    +0.000 A 
ATOM     10 CL   UNL     1      -3.580  11.852  18.102  0.00  0.00    +0.000 Cl
ATOM     11  C   UNL     1      -4.942  12.526  20.266  0.00  0.00    +0.000 A 
ATOM     12  C   UNL     1      -5.153  12.773  21.612  0.00  0.00    +0.000 A 
ATOM     13 CL   UNL     1      -6.741  13.081  22.194  0.00  0.00    +0.000 Cl
ATOM     14  C   UNL     1      -4.081  12.794  22.488  0.00  0.00    +0.000 A 
ATOM     15  C   UNL     1      -2.777  12.582  22.013  0.00  0.00    +0.000 A 
ATOM     16 CL   UNL     1      -1.539  12.918  23.186  0.00  0.00    +0.000 Cl
ENDBRANCH   6   8
BRANCH   4  17
ATOM     17  C   UNL     1       1.120   9.356  19.359  0.00  0.00    +0.000 A 
ATOM     18  C   UNL     1       1.594   8.995  18.089  0.00  0.00    +0.000 A 
ATOM     19  C   UNL     1       2.301   7.802  17.910  0.00  0.00    +0.000 A 
ATOM     20  C   UNL     1       2.555   6.951  18.995  0.00  0.00    +0.000 A 
ATOM     21  C   UNL     1       2.082   7.317  20.263  0.00  0.00    +0.000 A 
ATOM     22  C   UNL     1       1.378   8.509  20.438  0.00  0.00    +0.000 A 
ATOM     23  F   UNL     1       0.938   8.799  21.670  0.00  0.00    +0.000 F 
BRANCH  20  24
ATOM     24  C   UNL     1       3.327   5.665  18.815  0.00  0.00    +0.000 C 
ATOM     25  F   UNL     1       2.629   4.559  19.188  0.00  0.00    +0.000 F 
ATOM     26  F   UNL     1       3.692   5.460  17.520  0.00  0.00    +0.000 F 
ATOM     27  F   UNL     1       4.478   5.647  19.541  0.00  0.00    +0.000 F 
ENDBRANCH  20  24
ENDBRANCH   4  17
TORSDOF 3
ENDMDL
