MODEL 1
REMARK VINA RESULT:      -8.5      0.000      0.000
REMARK  Name = 
REMARK  5 active torsions:
REMARK  status: ('A' for Active; 'I' for Inactive)
REMARK    1  A    between atoms: C_1  and  O_2
REMARK    2  A    between atoms: O_2  and  C_3
REMARK    3  A    between atoms: C_6  and  N_7
REMARK    4  A    between atoms: C_9  and  C_10
REMARK    5  A    between atoms: C_10  and  O_12
REMARK                            x       y       z     vdW  Elec       q    Type
REMARK                         _______ _______ _______ _____ _____    ______ ____
ROOT
ATOM      1  N   UNL     1       3.322   6.330  18.446  0.00  0.00    +0.000 N 
ATOM      2  N   UNL     1       2.796   5.289  19.184  0.00  0.00    +0.000 NA
ATOM      3  C   UNL     1       2.903   4.220  18.385  0.00  0.00    +0.000 A 
ATOM      4  C   UNL     1       3.841   4.458  17.378  0.00  0.00    +0.000 A 
ATOM      5  C   UNL     1       4.472   3.633  16.418  0.00  0.00    +0.000 A 
ATOM      6  C   UNL     1       5.660   4.042  15.795  0.00  0.00    +0.000 A 
ATOM      7  C   UNL     1       6.171   5.272  16.201  0.00  0.00    +0.000 A 
ATOM      8  N   UNL     1       7.387   5.866  16.011  0.00  0.00    +0.000 N 
ATOM      9  N   UNL     1       7.532   7.024  16.694  0.00  0.00    +0.000 NA
ATOM     10  C   UNL     1       6.361   7.177  17.343  0.00  0.00    +0.000 A 
ATOM     11  C   UNL     1       5.472   6.127  17.044  0.00  0.00    +0.000 A 
ATOM     12  C   UNL     1       4.263   5.781  17.594  0.00  0.00    +0.000 A 
ATOM     13  H   UNL     1       8.182   5.487  15.504  0.00  0.00    +0.000 HD
ENDROOT
BRANCH   1  17
ATOM     14  C   UNL     1       0.850   9.766  19.434  0.00  0.00    +0.000 A 
ATOM     15  C   UNL     1       1.140   8.748  20.325  0.00  0.00    +0.000 A 
ATOM     16  C   UNL     1       1.997   7.717  19.955  0.00  0.00    +0.000 A 
ATOM     17  C   UNL     1       2.575   7.577  18.653  0.00  0.00    +0.000 A 
ATOM     18  C   UNL     1       2.266   8.594  17.744  0.00  0.00    +0.000 A 
ATOM     19  C   UNL     1       1.421   9.698  18.157  0.00  0.00    +0.000 A 
BRANCH  14  21
ATOM     20  C   UNL     1      -1.187  10.986  19.141  0.00  0.00    +0.000 C 
ATOM     21  O   UNL     1      -0.065  10.645  19.932  0.00  0.00    +0.000 OA
ENDBRANCH  14  21
ENDBRANCH   1  17
BRANCH   3  22
ATOM     22  C   UNL     1       2.218   2.992  18.773  0.00  0.00    +0.000 C 
ATOM     23  O   UNL     1       2.616   2.198  19.623  0.00  0.00    +0.000 OA
BRANCH  22  24
ATOM     24  O   UNL     1       1.056   2.822  18.085  0.00  0.00    +0.000 OA
ATOM     25  H   UNL     1       0.672   1.972  18.405  0.00  0.00    +0.000 HD
ENDBRANCH  22  24
ENDBRANCH   3  22
TORSDOF 4
ENDMDL
MODEL 2
REMARK VINA RESULT:      -8.4      0.626      1.174
REMARK  Name = 
REMARK  5 active torsions:
REMARK  status: ('A' for Active; 'I' for Inactive)
REMARK    1  A    between atoms: C_1  and  O_2
REMARK    2  A    between atoms: O_2  and  C_3
REMARK    3  A    between atoms: C_6  and  N_7
REMARK    4  A    between atoms: C_9  and  C_10
REMARK    5  A    between atoms: C_10  and  O_12
REMARK                            x       y       z     vdW  Elec       q    Type
REMARK                         _______ _______ _______ _____ _____    ______ ____
ROOT
ATOM      1  N   UNL     1       3.499   5.870  18.414  0.00  0.00    +0.000 N 
ATOM      2  N   UNL     1       3.072   4.687  18.983  0.00  0.00    +0.000 NA
ATOM      3  C   UNL     1       3.261   3.766  18.029  0.00  0.00    +0.000 A 
ATOM      4  C   UNL     1       4.165   4.236  17.073  0.00  0.00    +0.000 A 
ATOM      5  C   UNL     1       4.855   3.626  15.999  0.00  0.00    +0.000 A 
ATOM      6  C   UNL     1       5.996   4.225  15.450  0.00  0.00    +0.000 A 
ATOM      7  C   UNL     1       6.405   5.418  16.042  0.00  0.00    +0.000 A 
ATOM      8  N   UNL     1       7.564   6.136  15.949  0.00  0.00    +0.000 N 
ATOM      9  N   UNL     1       7.617   7.184  16.803  0.00  0.00    +0.000 NA
ATOM     10  C   UNL     1       6.444   7.134  17.464  0.00  0.00    +0.000 A 
ATOM     11  C   UNL     1       5.644   6.070  17.004  0.00  0.00    +0.000 A 
ATOM     12  C   UNL     1       4.475   5.541  17.491  0.00  0.00    +0.000 A 
ATOM     13  H   UNL     1       8.383   5.909  15.392  0.00  0.00    +0.000 HD
ENDROOT
BRANCH   1  17
ATOM     14  C   UNL     1       1.237   9.494  19.213  0.00  0.00    +0.000 A 
ATOM     15  C   UNL     1       1.816   9.206  17.990  0.00  0.00    +0.000 A 
ATOM     16  C   UNL     1       2.465   7.991  17.792  0.00  0.00    +0.000 A 
ATOM     17  C   UNL     1       2.652   7.001  18.809  0.00  0.00    +0.000 A 
ATOM     18  C   UNL     1       2.085   7.301  20.053  0.00  0.00    +0.000 A 
ATOM     19  C   UNL     1       1.356   8.543  20.234  0.00  0.00    +0.000 A 
BRANCH  14  21
ATOM     20  C   UNL     1      -0.689  10.911  19.306  0.00  0.00    +0.000 C 
ATOM     21  O   UNL     1       0.717  10.753  19.254  0.00  0.00    +0.000 OA
ENDBRANCH  14  21
ENDBRANCH   1  17
BRANCH   3  22
ATOM     22  C   UNL     1       2.688   2.439  18.222  0.00  0.00    +0.000 C 
ATOM     23  O   UNL     1       3.328   1.422  18.478  0.00  0.00    +0.000 OA
BRANCH  22  24
ATOM     24  O   UNL     1       1.332   2.451  18.096  0.00  0.00    +0.000 OA
ATOM     25  H   UNL     1       1.050   3.377  18.281  0.00  0.00    +0.000 HD
ENDBRANCH  22  24
ENDBRANCH   3  22
TORSDOF 4
ENDMDL
MODEL 3
REMARK VINA RESULT:      -8.3      2.640      6.048
REMARK  Name = 
REMARK  5 active torsions:
REMARK  status: ('A' for Active; 'I' for Inactive)
REMARK    1  A    between atoms: C_1  and  O_2
REMARK    2  A    between atoms: O_2  and  C_3
REMARK    3  A    between atoms: C_6  and  N_7
REMARK    4  A    between atoms: C_9  and  C_10
REMARK    5  A    between atoms: C_10  and  O_12
REMARK                            x       y       z     vdW  Elec       q    Type
REMARK                         _______ _______ _______ _____ _____    ______ ____
ROOT
ATOM      1  N   UNL     1       3.288   5.741  18.649  0.00  0.00    +0.000 N 
ATOM      2  N   UNL     1       2.694   4.565  19.059  0.00  0.00    +0.000 NA
ATOM      3  C   UNL     1       2.144   4.860  20.245  0.00  0.00    +0.000 A 
ATOM      4  C   UNL     1       2.002   6.242  20.383  0.00  0.00    +0.000 A 
ATOM      5  C   UNL     1       1.321   7.065  21.311  0.00  0.00    +0.000 A 
ATOM      6  C   UNL     1       1.010   8.394  20.994  0.00  0.00    +0.000 A 
ATOM      7  C   UNL     1       1.385   8.824  19.724  0.00  0.00    +0.000 A 
ATOM      8  N   UNL     1       1.046   9.928  18.993  0.00  0.00    +0.000 N 
ATOM      9  N   UNL     1       1.527   9.904  17.729  0.00  0.00    +0.000 NA
ATOM     10  C   UNL     1       2.202   8.741  17.651  0.00  0.00    +0.000 A 
ATOM     11  C   UNL     1       2.167   8.048  18.877  0.00  0.00    +0.000 A 
ATOM     12  C   UNL     1       2.558   6.775  19.208  0.00  0.00    +0.000 A 
ATOM     13  H   UNL     1       0.421  10.679  19.271  0.00  0.00    +0.000 HD
ENDROOT
BRANCH   1  17
ATOM     14  C   UNL     1       6.817   5.098  16.194  0.00  0.00    +0.000 A 
ATOM     15  C   UNL     1       5.734   5.861  15.795  0.00  0.00    +0.000 A 
ATOM     16  C   UNL     1       4.671   6.077  16.667  0.00  0.00    +0.000 A 
ATOM     17  C   UNL     1       4.567   5.498  17.971  0.00  0.00    +0.000 A 
ATOM     18  C   UNL     1       5.652   4.709  18.368  0.00  0.00    +0.000 A 
ATOM     19  C   UNL     1       6.784   4.538  17.477  0.00  0.00    +0.000 A 
BRANCH  14  21
ATOM     20  C   UNL     1       7.256   4.791  13.863  0.00  0.00    +0.000 C 
ATOM     21  O   UNL     1       7.723   4.924  15.192  0.00  0.00    +0.000 OA
ENDBRANCH  14  21
ENDBRANCH   1  17
BRANCH   3  22
ATOM     22  C   UNL     1       1.637   3.766  21.066  0.00  0.00    +0.000 C 
ATOM     23  O   UNL     1       2.144   3.374  22.114  0.00  0.00    +0.000 OA
BRANCH  22  24
ATOM     24  O   UNL     1       0.506   3.221  20.540  0.00  0.00    +0.000 OA
ATOM     25  H   UNL     1       0.806   2.586  19.847  0.00  0.00    +0.000 HD
ENDBRANCH  22  24
ENDBRANCH   3  22
TORSDOF 4
ENDMDL
MODEL 4
REMARK VINA RESULT:      -8.2      1.289      1.514
REMARK  Name = 
REMARK  5 active torsions:
REMARK  status: ('A' for Active; 'I' for Inactive)
REMARK    1  A    between atoms: C_1  and  O_2
REMARK    2  A    between atoms: O_2  and  C_3
REMARK    3  A    between atoms: C_6  and  N_7
REMARK    4  A    between atoms: C_9  and  C_10
REMARK    5  A    between atoms: C_10  and  O_12
REMARK                            x       y       z     vdW  Elec       q    Type
REMARK                         _______ _______ _______ _____ _____    ______ ____
ROOT
ATOM      1  N   UNL     1       2.702   6.608  19.224  0.00  0.00    +0.000 N 
ATOM      2  N   UNL     1       2.396   5.918  20.380  0.00  0.00    +0.000 NA
ATOM      3  C   UNL     1       2.272   4.643  19.989  0.00  0.00    +0.000 A 
ATOM      4  C   UNL     1       2.896   4.451  18.755  0.00  0.00    +0.000 A 
ATOM      5  C   UNL     1       3.234   3.302  18.001  0.00  0.00    +0.000 A 
ATOM      6  C   UNL     1       4.205   3.370  16.993  0.00  0.00    +0.000 A 
ATOM      7  C   UNL     1       4.815   4.609  16.813  0.00  0.00    +0.000 A 
ATOM      8  N   UNL     1       5.935   4.988  16.127  0.00  0.00    +0.000 N 
ATOM      9  N   UNL     1       6.269   6.284  16.317  0.00  0.00    +0.000 NA
ATOM     10  C   UNL     1       5.323   6.752  17.156  0.00  0.00    +0.000 A 
ATOM     11  C   UNL     1       4.380   5.754  17.469  0.00  0.00    +0.000 A 
ATOM     12  C   UNL     1       3.368   5.724  18.395  0.00  0.00    +0.000 A 
ATOM     13  H   UNL     1       6.556   4.389  15.590  0.00  0.00    +0.000 HD
ENDROOT
BRANCH   1  17
ATOM     14  C   UNL     1       0.471  10.328  19.503  0.00  0.00    +0.000 A 
ATOM     15  C   UNL     1       0.645   9.457  20.565  0.00  0.00    +0.000 A 
ATOM     16  C   UNL     1       1.433   8.320  20.414  0.00  0.00    +0.000 A 
ATOM     17  C   UNL     1       2.049   7.922  19.185  0.00  0.00    +0.000 A 
ATOM     18  C   UNL     1       1.856   8.791  18.105  0.00  0.00    +0.000 A 
ATOM     19  C   UNL     1       1.085  10.006  18.286  0.00  0.00    +0.000 A 
BRANCH  14  21
ATOM     20  C   UNL     1      -1.293  11.786  18.808  0.00  0.00    +0.000 C 
ATOM     21  O   UNL     1      -0.390  11.341  19.802  0.00  0.00    +0.000 OA
ENDBRANCH  14  21
ENDBRANCH   1  17
BRANCH   3  22
ATOM     22  C   UNL     1       1.715   3.679  20.932  0.00  0.00    +0.000 C 
ATOM     23  O   UNL     1       2.222   3.366  22.007  0.00  0.00    +0.000 OA
BRANCH  22  24
ATOM     24  O   UNL     1       0.537   3.161  20.488  0.00  0.00    +0.000 OA
ATOM     25  H   UNL     1       0.128   3.857  19.923  0.00  0.00    +0.000 HD
ENDBRANCH  22  24
ENDBRANCH   3  22
TORSDOF 4
ENDMDL
MODEL 5
REMARK VINA RESULT:      -8.1      1.423      1.956
REMARK  Name = 
REMARK  5 active torsions:
REMARK  status: ('A' for Active; 'I' for Inactive)
REMARK    1  A    between atoms: C_1  and  O_2
REMARK    2  A    between atoms: O_2  and  C_3
REMARK    3  A    between atoms: C_6  and  N_7
REMARK    4  A    between atoms: C_9  and  C_10
REMARK    5  A    between atoms: C_10  and  O_12
REMARK                            x       y       z     vdW  Elec       q    Type
REMARK                         _______ _______ _______ _____ _____    ______ ____
ROOT
ATOM      1  N   UNL     1       2.532   6.623  19.419  0.00  0.00    +0.000 N 
ATOM      2  N   UNL     1       2.293   5.873  20.552  0.00  0.00    +0.000 NA
ATOM      3  C   UNL     1       2.163   4.617  20.105  0.00  0.00    +0.000 A 
ATOM      4  C   UNL     1       2.725   4.495  18.832  0.00  0.00    +0.000 A 
ATOM      5  C   UNL     1       3.036   3.390  18.005  0.00  0.00    +0.000 A 
ATOM      6  C   UNL     1       3.953   3.521  16.953  0.00  0.00    +0.000 A 
ATOM      7  C   UNL     1       4.540   4.775  16.805  0.00  0.00    +0.000 A 
ATOM      8  N   UNL     1       5.618   5.204  16.082  0.00  0.00    +0.000 N 
ATOM      9  N   UNL     1       5.946   6.493  16.320  0.00  0.00    +0.000 NA
ATOM     10  C   UNL     1       5.041   6.906  17.229  0.00  0.00    +0.000 A 
ATOM     11  C   UNL     1       4.126   5.881  17.539  0.00  0.00    +0.000 A 
ATOM     12  C   UNL     1       3.164   5.790  18.513  0.00  0.00    +0.000 A 
ATOM     13  H   UNL     1       6.217   4.641  15.485  0.00  0.00    +0.000 HD
ENDROOT
BRANCH   1  17
ATOM     14  C   UNL     1       0.862  10.631  19.201  0.00  0.00    +0.000 A 
ATOM     15  C   UNL     1       1.458   9.989  18.130  0.00  0.00    +0.000 A 
ATOM     16  C   UNL     1       1.906   8.678  18.260  0.00  0.00    +0.000 A 
ATOM     17  C   UNL     1       1.862   7.928  19.479  0.00  0.00    +0.000 A 
ATOM     18  C   UNL     1       1.279   8.583  20.568  0.00  0.00    +0.000 A 
ATOM     19  C   UNL     1       0.758   9.928  20.408  0.00  0.00    +0.000 A 
BRANCH  14  21
ATOM     20  C   UNL     1      -0.752  12.247  18.491  0.00  0.00    +0.000 C 
ATOM     21  O   UNL     1       0.558  11.929  18.922  0.00  0.00    +0.000 OA
ENDBRANCH  14  21
ENDBRANCH   1  17
BRANCH   3  22
ATOM     22  C   UNL     1       1.667   3.600  21.025  0.00  0.00    +0.000 C 
ATOM     23  O   UNL     1       2.195   3.291  22.091  0.00  0.00    +0.000 OA
BRANCH  22  24
ATOM     24  O   UNL     1       0.520   3.024  20.571  0.00  0.00    +0.000 OA
ATOM     25  H   UNL     1       0.705   2.740  19.646  0.00  0.00    +0.000 HD
ENDBRANCH  22  24
ENDBRANCH   3  22
TORSDOF 4
ENDMDL
MODEL 6
REMARK VINA RESULT:      -8.0      2.504      4.138
REMARK  Name = 
REMARK  5 active torsions:
REMARK  status: ('A' for Active; 'I' for Inactive)
REMARK    1  A    between atoms: C_1  and  O_2
REMARK    2  A    between atoms: O_2  and  C_3
REMARK    3  A    between atoms: C_6  and  N_7
REMARK    4  A    between atoms: C_9  and  C_10
REMARK    5  A    between atoms: C_10  and  O_12
REMARK                            x       y       z     vdW  Elec       q    Type
REMARK                         _______ _______ _______ _____ _____    ______ ____
ROOT
ATOM      1  N   UNL     1       3.448   6.069  18.439  0.00  0.00    +0.000 N 
ATOM      2  N   UNL     1       4.706   6.283  17.914  0.00  0.00    +0.000 NA
ATOM      3  C   UNL     1       5.486   5.383  18.527  0.00  0.00    +0.000 A 
ATOM      4  C   UNL     1       4.708   4.359  19.073  0.00  0.00    +0.000 A 
ATOM      5  C   UNL     1       5.012   3.096  19.633  0.00  0.00    +0.000 A 
ATOM      6  C   UNL     1       4.025   2.106  19.738  0.00  0.00    +0.000 A 
ATOM      7  C   UNL     1       2.768   2.439  19.240  0.00  0.00    +0.000 A 
ATOM      8  N   UNL     1       1.667   1.683  18.953  0.00  0.00    +0.000 N 
ATOM      9  N   UNL     1       0.678   2.381  18.349  0.00  0.00    +0.000 NA
ATOM     10  C   UNL     1       1.168   3.633  18.249  0.00  0.00    +0.000 A 
ATOM     11  C   UNL     1       2.453   3.725  18.818  0.00  0.00    +0.000 A 
ATOM     12  C   UNL     1       3.384   4.733  18.791  0.00  0.00    +0.000 A 
ATOM     13  H   UNL     1       1.568   0.678  19.063  0.00  0.00    +0.000 HD
ENDROOT
BRANCH   1  17
ATOM     14  C   UNL     1       1.021   9.544  19.404  0.00  0.00    +0.000 A 
ATOM     15  C   UNL     1       1.289   8.523  20.299  0.00  0.00    +0.000 A 
ATOM     16  C   UNL     1       2.133   7.478  19.937  0.00  0.00    +0.000 A 
ATOM     17  C   UNL     1       2.719   7.327  18.640  0.00  0.00    +0.000 A 
ATOM     18  C   UNL     1       2.432   8.348  17.726  0.00  0.00    +0.000 A 
ATOM     19  C   UNL     1       1.601   9.465  18.131  0.00  0.00    +0.000 A 
BRANCH  14  21
ATOM     20  C   UNL     1      -1.040  10.726  19.133  0.00  0.00    +0.000 C 
ATOM     21  O   UNL     1       0.117  10.437  19.894  0.00  0.00    +0.000 OA
ENDBRANCH  14  21
ENDBRANCH   1  17
BRANCH   3  22
ATOM     22  C   UNL     1       6.932   5.498  18.374  0.00  0.00    +0.000 C 
ATOM     23  O   UNL     1       7.526   5.580  17.301  0.00  0.00    +0.000 OA
BRANCH  22  24
ATOM     24  O   UNL     1       7.568   5.518  19.577  0.00  0.00    +0.000 OA
ATOM     25  H   UNL     1       8.274   6.202  19.501  0.00  0.00    +0.000 HD
ENDBRANCH  22  24
ENDBRANCH   3  22
TORSDOF 4
ENDMDL
MODEL 7
REMARK VINA RESULT:      -8.0      2.627      5.929
REMARK  Name = 
REMARK  5 active torsions:
REMARK  status: ('A' for Active; 'I' for Inactive)
REMARK    1  A    between atoms: C_1  and  O_2
REMARK    2  A    between atoms: O_2  and  C_3
REMARK    3  A    between atoms: C_6  and  N_7
REMARK    4  A    between atoms: C_9  and  C_10
REMARK    5  A    between atoms: C_10  and  O_12
REMARK                            x       y       z     vdW  Elec       q    Type
REMARK                         _______ _______ _______ _____ _____    ______ ____
ROOT
ATOM      1  N   UNL     1       3.271   5.069  17.722  0.00  0.00    +0.000 N 
ATOM      2  N   UNL     1       2.577   3.885  17.868  0.00  0.00    +0.000 NA
ATOM      3  C   UNL     1       2.136   3.905  19.132  0.00  0.00    +0.000 A 
ATOM      4  C   UNL     1       2.155   5.210  19.632  0.00  0.00    +0.000 A 
ATOM      5  C   UNL     1       1.627   5.817  20.795  0.00  0.00    +0.000 A 
ATOM      6  C   UNL     1       1.445   7.205  20.857  0.00  0.00    +0.000 A 
ATOM      7  C   UNL     1       1.787   7.919  19.711  0.00  0.00    +0.000 A 
ATOM      8  N   UNL     1       1.528   9.202  19.319  0.00  0.00    +0.000 N 
ATOM      9  N   UNL     1       1.926   9.469  18.054  0.00  0.00    +0.000 NA
ATOM     10  C   UNL     1       2.463   8.310  17.623  0.00  0.00    +0.000 A 
ATOM     11  C   UNL     1       2.426   7.325  18.629  0.00  0.00    +0.000 A 
ATOM     12  C   UNL     1       2.694   5.980  18.588  0.00  0.00    +0.000 A 
ATOM     13  H   UNL     1       1.007   9.907  19.833  0.00  0.00    +0.000 HD
ENDROOT
BRANCH   1  17
ATOM     14  C   UNL     1       6.847   5.086  15.250  0.00  0.00    +0.000 A 
ATOM     15  C   UNL     1       6.487   6.129  16.085  0.00  0.00    +0.000 A 
ATOM     16  C   UNL     1       5.363   6.018  16.898  0.00  0.00    +0.000 A 
ATOM     17  C   UNL     1       4.472   4.898  16.896  0.00  0.00    +0.000 A 
ATOM     18  C   UNL     1       4.824   3.851  16.036  0.00  0.00    +0.000 A 
ATOM     19  C   UNL     1       6.030   3.948  15.237  0.00  0.00    +0.000 A 
BRANCH  14  21
ATOM     20  C   UNL     1       7.835   5.185  13.074  0.00  0.00    +0.000 C 
ATOM     21  O   UNL     1       7.921   5.395  14.471  0.00  0.00    +0.000 OA
ENDBRANCH  14  21
ENDBRANCH   1  17
BRANCH   3  22
ATOM     22  C   UNL     1       1.562   2.685  19.687  0.00  0.00    +0.000 C 
ATOM     23  O   UNL     1       1.360   2.477  20.882  0.00  0.00    +0.000 OA
BRANCH  22  24
ATOM     24  O   UNL     1       1.256   1.782  18.715  0.00  0.00    +0.000 OA
ATOM     25  H   UNL     1       1.082   2.309  17.900  0.00  0.00    +0.000 HD
ENDBRANCH  22  24
ENDBRANCH   3  22
TORSDOF 4
ENDMDL
MODEL 8
REMARK VINA RESULT:      -7.9      2.627      4.316
REMARK  Name = 
REMARK  5 active torsions:
REMARK  status: ('A' for Active; 'I' for Inactive)
REMARK    1  A    between atoms: C_1  and  O_2
REMARK    2  A    between atoms: O_2  and  C_3
REMARK    3  A    between atoms: C_6  and  N_7
REMARK    4  A    between atoms: C_9  and  C_10
REMARK    5  A    between atoms: C_10  and  O_12
REMARK                            x       y       z     vdW  Elec       q    Type
REMARK                         _______ _______ _______ _____ _____    ______ ____
ROOT
ATOM      1  N   UNL     1       3.227   6.032  18.716  0.00  0.00    +0.000 N 
ATOM      2  N   UNL     1       4.490   6.327  18.244  0.00  0.00    +0.000 NA
ATOM      3  C   UNL     1       5.289   5.422  18.826  0.00  0.00    +0.000 A 
ATOM      4  C   UNL     1       4.538   4.338  19.285  0.00  0.00    +0.000 A 
ATOM      5  C   UNL     1       4.877   3.055  19.777  0.00  0.00    +0.000 A 
ATOM      6  C   UNL     1       3.930   2.023  19.792  0.00  0.00    +0.000 A 
ATOM      7  C   UNL     1       2.675   2.336  19.277  0.00  0.00    +0.000 A 
ATOM      8  N   UNL     1       1.614   1.556  18.910  0.00  0.00    +0.000 N 
ATOM      9  N   UNL     1       0.616   2.250  18.318  0.00  0.00    +0.000 NA
ATOM     10  C   UNL     1       1.055   3.524  18.309  0.00  0.00    +0.000 A 
ATOM     11  C   UNL     1       2.319   3.632  18.922  0.00  0.00    +0.000 A 
ATOM     12  C   UNL     1       3.208   4.675  18.985  0.00  0.00    +0.000 A 
ATOM     13  H   UNL     1       1.553   0.543  18.956  0.00  0.00    +0.000 HD
ENDROOT
BRANCH   1  17
ATOM     14  C   UNL     1       1.181   9.849  19.080  0.00  0.00    +0.000 A 
ATOM     15  C   UNL     1       1.787   9.412  17.916  0.00  0.00    +0.000 A 
ATOM     16  C   UNL     1       2.361   8.146  17.858  0.00  0.00    +0.000 A 
ATOM     17  C   UNL     1       2.442   7.246  18.968  0.00  0.00    +0.000 A 
ATOM     18  C   UNL     1       1.848   7.695  20.153  0.00  0.00    +0.000 A 
ATOM     19  C   UNL     1       1.198   8.991  20.187  0.00  0.00    +0.000 A 
BRANCH  14  21
ATOM     20  C   UNL     1       0.597  11.898  20.167  0.00  0.00    +0.000 C 
ATOM     21  O   UNL     1       0.745  11.137  18.984  0.00  0.00    +0.000 OA
ENDBRANCH  14  21
ENDBRANCH   1  17
BRANCH   3  22
ATOM     22  C   UNL     1       6.732   5.603  18.725  0.00  0.00    +0.000 C 
ATOM     23  O   UNL     1       7.344   5.851  17.688  0.00  0.00    +0.000 OA
BRANCH  22  24
ATOM     24  O   UNL     1       7.343   5.479  19.935  0.00  0.00    +0.000 OA
ATOM     25  H   UNL     1       7.403   4.511  20.112  0.00  0.00    +0.000 HD
ENDBRANCH  22  24
ENDBRANCH   3  22
TORSDOF 4
ENDMDL
MODEL 9
REMARK VINA RESULT:      -7.9      2.548      4.059
REMARK  Name = 
REMARK  5 active torsions:
REMARK  status: ('A' for Active; 'I' for Inactive)
REMARK    1  A    between atoms: C_1  and  O_2
REMARK    2  A    between atoms: O_2  and  C_3
REMARK    3  A    between atoms: C_6  and  N_7
REMARK    4  A    between atoms: C_9  and  C_10
REMARK    5  A    between atoms: C_10  and  O_12
REMARK                            x       y       z     vdW  Elec       q    Type
REMARK                         _______ _______ _______ _____ _____    ______ ____
ROOT
ATOM      1  N   UNL     1       3.236   6.451  18.243  0.00  0.00    +0.000 N 
ATOM      2  N   UNL     1       4.395   6.785  17.572  0.00  0.00    +0.000 NA
ATOM      3  C   UNL     1       5.321   5.947  18.058  0.00  0.00    +0.000 A 
ATOM      4  C   UNL     1       4.709   4.850  18.668  0.00  0.00    +0.000 A 
ATOM      5  C   UNL     1       5.188   3.609  19.149  0.00  0.00    +0.000 A 
ATOM      6  C   UNL     1       4.312   2.534  19.349  0.00  0.00    +0.000 A 
ATOM      7  C   UNL     1       2.978   2.762  19.021  0.00  0.00    +0.000 A 
ATOM      8  N   UNL     1       1.918   1.917  18.851  0.00  0.00    +0.000 N 
ATOM      9  N   UNL     1       0.805   2.534  18.394  0.00  0.00    +0.000 NA
ATOM     10  C   UNL     1       1.168   3.825  18.270  0.00  0.00    +0.000 A 
ATOM     11  C   UNL     1       2.502   4.022  18.676  0.00  0.00    +0.000 A 
ATOM     12  C   UNL     1       3.332   5.109  18.563  0.00  0.00    +0.000 A 
ATOM     13  H   UNL     1       1.921   0.904  18.944  0.00  0.00    +0.000 HD
ENDROOT
BRANCH   1  17
ATOM     14  C   UNL     1       0.662   9.680  19.598  0.00  0.00    +0.000 A 
ATOM     15  C   UNL     1       1.131   8.675  20.425  0.00  0.00    +0.000 A 
ATOM     16  C   UNL     1       2.009   7.715  19.931  0.00  0.00    +0.000 A 
ATOM     17  C   UNL     1       2.433   7.636  18.567  0.00  0.00    +0.000 A 
ATOM     18  C   UNL     1       1.944   8.640  17.724  0.00  0.00    +0.000 A 
ATOM     19  C   UNL     1       1.078   9.673  18.261  0.00  0.00    +0.000 A 
BRANCH  14  21
ATOM     20  C   UNL     1      -0.287  10.495  21.637  0.00  0.00    +0.000 C 
ATOM     21  O   UNL     1      -0.246  10.482  20.223  0.00  0.00    +0.000 OA
ENDBRANCH  14  21
ENDBRANCH   1  17
BRANCH   3  22
ATOM     22  C   UNL     1       6.720   6.193  17.729  0.00  0.00    +0.000 C 
ATOM     23  O   UNL     1       7.657   6.122  18.522  0.00  0.00    +0.000 OA
BRANCH  22  24
ATOM     24  O   UNL     1       6.884   6.505  16.414  0.00  0.00    +0.000 OA
ATOM     25  H   UNL     1       7.109   7.465  16.388  0.00  0.00    +0.000 HD
ENDBRANCH  22  24
ENDBRANCH   3  22
TORSDOF 4
ENDMDL
