MODEL 1
REMARK VINA RESULT:      -8.6      0.000      0.000
REMARK  Name = 
REMARK  10 active torsions:
REMARK  status: ('A' for Active; 'I' for Inactive)
REMARK    1  A    between atoms: C_1  and  C_2
REMARK    2  A    between atoms: C_2  and  O_3
REMARK    3  A    between atoms: O_3  and  C_4
REMARK    4  A    between atoms: C_7  and  N_8
REMARK    5  A    between atoms: C_9  and  C_11
REMARK    6  A    between atoms: C_16  and  O_17
REMARK    7  A    between atoms: O_17  and  C_18
REMARK    8  A    between atoms: C_18  and  C_19
REMARK    9  A    between atoms: C_19  and  C_21
REMARK   10  A    between atoms: C_24  and  C_25
REMARK                            x       y       z     vdW  Elec       q    Type
REMARK                         _______ _______ _______ _____ _____    ______ ____
ROOT
ATOM      1  C   UNL     1       2.897   3.799  18.839  0.00  0.00    +0.000 A 
ATOM      2  C   UNL     1       3.303   2.792  19.736  0.00  0.00    +0.000 A 
ATOM      3  C   UNL     1       2.853   2.767  21.049  0.00  0.00    +0.000 A 
ATOM      4  C   UNL     1       2.073   3.811  21.511  0.00  0.00    +0.000 A 
ATOM      5  C   UNL     1       1.809   4.903  20.676  0.00  0.00    +0.000 A 
ATOM      6  C   UNL     1       2.259   4.939  19.352  0.00  0.00    +0.000 A 
ENDROOT
BRANCH   1   8
ATOM      7  N   UNL     1       4.127   4.311  16.713  0.00  0.00    +0.000 N 
ATOM      8  C   UNL     1       3.142   3.566  17.374  0.00  0.00    +0.000 C 
ATOM      9  O   UNL     1       2.420   2.811  16.732  0.00  0.00    +0.000 OA
ATOM     10  H   UNL     1       3.968   4.385  15.715  0.00  0.00    +0.000 HD
BRANCH   7  14
ATOM     11  C   UNL     1       7.290   6.688  18.115  0.00  0.00    +0.000 A 
ATOM     12  C   UNL     1       6.266   7.264  17.364  0.00  0.00    +0.000 A 
ATOM     13  C   UNL     1       5.169   6.506  16.960  0.00  0.00    +0.000 A 
ATOM     14  C   UNL     1       5.092   5.152  17.301  0.00  0.00    +0.000 A 
ATOM     15  C   UNL     1       6.077   4.588  18.122  0.00  0.00    +0.000 A 
ATOM     16  C   UNL     1       7.200   5.345  18.487  0.00  0.00    +0.000 A 
BRANCH  11  17
ATOM     17  O   UNL     1       8.338   7.521  18.383  0.00  0.00    +0.000 OA
BRANCH  17  19
ATOM     18  C   UNL     1       8.988   9.758  18.848  0.00  0.00    +0.000 C 
ATOM     19  C   UNL     1       8.244   8.853  17.882  0.00  0.00    +0.000 C 
ENDBRANCH  17  19
ENDBRANCH  11  17
ENDBRANCH   7  14
ENDBRANCH   1   8
BRANCH   6  20
ATOM     20  O   UNL     1       2.096   6.049  18.561  0.00  0.00    +0.000 OA
BRANCH  20  21
ATOM     21  C   UNL     1       2.619   7.262  19.103  0.00  0.00    +0.000 C 
BRANCH  21  22
ATOM     22  C   UNL     1       1.770   8.496  18.841  0.00  0.00    +0.000 C 
ATOM     23  O   UNL     1       1.632   8.955  17.706  0.00  0.00    +0.000 OA
BRANCH  22  24
ATOM     24  C   UNL     1       1.015   9.105  19.966  0.00  0.00    +0.000 A 
ATOM     25  C   UNL     1       0.217  10.223  19.697  0.00  0.00    +0.000 A 
ATOM     26  C   UNL     1      -0.511  10.827  20.723  0.00  0.00    +0.000 A 
ATOM     27  C   UNL     1      -0.459  10.313  22.023  0.00  0.00    +0.000 A 
ATOM     28  C   UNL     1      -1.234  10.959  23.136  0.00  0.00    +0.000 C 
ATOM     29  C   UNL     1       0.307   9.173  22.278  0.00  0.00    +0.000 A 
ATOM     30  C   UNL     1       1.046   8.570  21.257  0.00  0.00    +0.000 A 
ENDBRANCH  22  24
ENDBRANCH  21  22
ENDBRANCH  20  21
ENDBRANCH   6  20
TORSDOF 8
ENDMDL
MODEL 2
REMARK VINA RESULT:      -8.1      0.618      1.050
REMARK  Name = 
REMARK  10 active torsions:
REMARK  status: ('A' for Active; 'I' for Inactive)
REMARK    1  A    between atoms: C_1  and  C_2
REMARK    2  A    between atoms: C_2  and  O_3
REMARK    3  A    between atoms: O_3  and  C_4
REMARK    4  A    between atoms: C_7  and  N_8
REMARK    5  A    between atoms: C_9  and  C_11
REMARK    6  A    between atoms: C_16  and  O_17
REMARK    7  A    between atoms: O_17  and  C_18
REMARK    8  A    between atoms: C_18  and  C_19
REMARK    9  A    between atoms: C_19  and  C_21
REMARK   10  A    between atoms: C_24  and  C_25
REMARK                            x       y       z     vdW  Elec       q    Type
REMARK                         _______ _______ _______ _____ _____    ______ ____
ROOT
ATOM      1  C   UNL     1       2.825   3.571  18.912  0.00  0.00    +0.000 A 
ATOM      2  C   UNL     1       3.231   2.665  19.910  0.00  0.00    +0.000 A 
ATOM      3  C   UNL     1       2.950   2.890  21.252  0.00  0.00    +0.000 A 
ATOM      4  C   UNL     1       2.349   4.080  21.620  0.00  0.00    +0.000 A 
ATOM      5  C   UNL     1       2.101   5.061  20.654  0.00  0.00    +0.000 A 
ATOM      6  C   UNL     1       2.382   4.845  19.300  0.00  0.00    +0.000 A 
ENDROOT
BRANCH   1   8
ATOM      7  N   UNL     1       3.807   3.628  16.604  0.00  0.00    +0.000 N 
ATOM      8  C   UNL     1       2.858   3.096  17.486  0.00  0.00    +0.000 C 
ATOM      9  O   UNL     1       1.998   2.331  17.062  0.00  0.00    +0.000 OA
ATOM     10  H   UNL     1       3.527   3.566  15.633  0.00  0.00    +0.000 HD
BRANCH   7  14
ATOM     11  C   UNL     1       6.777   6.350  17.784  0.00  0.00    +0.000 A 
ATOM     12  C   UNL     1       6.535   5.208  18.548  0.00  0.00    +0.000 A 
ATOM     13  C   UNL     1       5.610   4.256  18.127  0.00  0.00    +0.000 A 
ATOM     14  C   UNL     1       4.908   4.444  16.933  0.00  0.00    +0.000 A 
ATOM     15  C   UNL     1       5.202   5.547  16.123  0.00  0.00    +0.000 A 
ATOM     16  C   UNL     1       6.102   6.525  16.574  0.00  0.00    +0.000 A 
BRANCH  11  17
ATOM     17  O   UNL     1       7.652   7.236  18.344  0.00  0.00    +0.000 OA
BRANCH  17  19
ATOM     18  C   UNL     1       8.686   9.365  18.553  0.00  0.00    +0.000 C 
ATOM     19  C   UNL     1       7.834   8.476  17.663  0.00  0.00    +0.000 C 
ENDBRANCH  17  19
ENDBRANCH  11  17
ENDBRANCH   7  14
ENDBRANCH   1   8
BRANCH   6  20
ATOM     20  O   UNL     1       2.240   5.838  18.363  0.00  0.00    +0.000 OA
BRANCH  20  21
ATOM     21  C   UNL     1       2.950   7.044  18.645  0.00  0.00    +0.000 C 
BRANCH  21  22
ATOM     22  C   UNL     1       2.140   8.319  18.463  0.00  0.00    +0.000 C 
ATOM     23  O   UNL     1       2.038   8.867  17.364  0.00  0.00    +0.000 OA
BRANCH  22  24
ATOM     24  C   UNL     1       1.377   8.861  19.617  0.00  0.00    +0.000 A 
ATOM     25  C   UNL     1       0.499   9.926  19.386  0.00  0.00    +0.000 A 
ATOM     26  C   UNL     1      -0.239  10.466  20.440  0.00  0.00    +0.000 A 
ATOM     27  C   UNL     1      -0.116   9.940  21.730  0.00  0.00    +0.000 A 
ATOM     28  C   UNL     1      -0.902  10.517  22.873  0.00  0.00    +0.000 C 
ATOM     29  C   UNL     1       0.730   8.851  21.948  0.00  0.00    +0.000 A 
ATOM     30  C   UNL     1       1.479   8.312  20.899  0.00  0.00    +0.000 A 
ENDBRANCH  22  24
ENDBRANCH  21  22
ENDBRANCH  20  21
ENDBRANCH   6  20
TORSDOF 8
ENDMDL
MODEL 3
REMARK VINA RESULT:      -7.9      1.926      6.459
REMARK  Name = 
REMARK  10 active torsions:
REMARK  status: ('A' for Active; 'I' for Inactive)
REMARK    1  A    between atoms: C_1  and  C_2
REMARK    2  A    between atoms: C_2  and  O_3
REMARK    3  A    between atoms: O_3  and  C_4
REMARK    4  A    between atoms: C_7  and  N_8
REMARK    5  A    between atoms: C_9  and  C_11
REMARK    6  A    between atoms: C_16  and  O_17
REMARK    7  A    between atoms: O_17  and  C_18
REMARK    8  A    between atoms: C_18  and  C_19
REMARK    9  A    between atoms: C_19  and  C_21
REMARK   10  A    between atoms: C_24  and  C_25
REMARK                            x       y       z     vdW  Elec       q    Type
REMARK                         _______ _______ _______ _____ _____    ______ ____
ROOT
ATOM      1  C   UNL     1       2.662   4.374  19.448  0.00  0.00    +0.000 A 
ATOM      2  C   UNL     1       1.737   4.194  20.494  0.00  0.00    +0.000 A 
ATOM      3  C   UNL     1       0.732   3.239  20.417  0.00  0.00    +0.000 A 
ATOM      4  C   UNL     1       0.577   2.522  19.245  0.00  0.00    +0.000 A 
ATOM      5  C   UNL     1       1.382   2.817  18.138  0.00  0.00    +0.000 A 
ATOM      6  C   UNL     1       2.396   3.779  18.205  0.00  0.00    +0.000 A 
ENDROOT
BRANCH   1   8
ATOM      7  N   UNL     1       3.915   6.546  19.506  0.00  0.00    +0.000 N 
ATOM      8  C   UNL     1       3.905   5.167  19.746  0.00  0.00    +0.000 C 
ATOM      9  O   UNL     1       4.937   4.603  20.095  0.00  0.00    +0.000 OA
ATOM     10  H   UNL     1       4.846   6.917  19.356  0.00  0.00    +0.000 HD
BRANCH   7  14
ATOM     11  C   UNL     1       0.894   9.340  18.680  0.00  0.00    +0.000 A 
ATOM     12  C   UNL     1       1.675   8.832  17.643  0.00  0.00    +0.000 A 
ATOM     13  C   UNL     1       2.626   7.845  17.888  0.00  0.00    +0.000 A 
ATOM     14  C   UNL     1       2.811   7.361  19.187  0.00  0.00    +0.000 A 
ATOM     15  C   UNL     1       1.977   7.810  20.219  0.00  0.00    +0.000 A 
ATOM     16  C   UNL     1       1.052   8.835  19.973  0.00  0.00    +0.000 A 
BRANCH  11  17
ATOM     17  O   UNL     1       0.051  10.352  18.317  0.00  0.00    +0.000 OA
BRANCH  17  19
ATOM     18  C   UNL     1      -1.609  11.978  18.809  0.00  0.00    +0.000 C 
ATOM     19  C   UNL     1      -1.043  10.621  19.191  0.00  0.00    +0.000 C 
ENDBRANCH  17  19
ENDBRANCH  11  17
ENDBRANCH   7  14
ENDBRANCH   1   8
BRANCH   6  20
ATOM     20  O   UNL     1       3.118   4.148  17.098  0.00  0.00    +0.000 OA
BRANCH  20  21
ATOM     21  C   UNL     1       4.225   3.303  16.786  0.00  0.00    +0.000 C 
BRANCH  21  22
ATOM     22  C   UNL     1       5.353   3.983  16.025  0.00  0.00    +0.000 C 
ATOM     23  O   UNL     1       5.571   3.736  14.837  0.00  0.00    +0.000 OA
BRANCH  22  24
ATOM     24  C   UNL     1       6.147   5.040  16.703  0.00  0.00    +0.000 A 
ATOM     25  C   UNL     1       5.821   6.377  16.449  0.00  0.00    +0.000 A 
ATOM     26  C   UNL     1       6.540   7.402  17.064  0.00  0.00    +0.000 A 
ATOM     27  C   UNL     1       7.582   7.102  17.948  0.00  0.00    +0.000 A 
ATOM     28  C   UNL     1       8.365   8.198  18.612  0.00  0.00    +0.000 C 
ATOM     29  C   UNL     1       7.877   5.767  18.230  0.00  0.00    +0.000 A 
ATOM     30  C   UNL     1       7.167   4.736  17.609  0.00  0.00    +0.000 A 
ENDBRANCH  22  24
ENDBRANCH  21  22
ENDBRANCH  20  21
ENDBRANCH   6  20
TORSDOF 8
ENDMDL
MODEL 4
REMARK VINA RESULT:      -7.8      1.927      6.548
REMARK  Name = 
REMARK  10 active torsions:
REMARK  status: ('A' for Active; 'I' for Inactive)
REMARK    1  A    between atoms: C_1  and  C_2
REMARK    2  A    between atoms: C_2  and  O_3
REMARK    3  A    between atoms: O_3  and  C_4
REMARK    4  A    between atoms: C_7  and  N_8
REMARK    5  A    between atoms: C_9  and  C_11
REMARK    6  A    between atoms: C_16  and  O_17
REMARK    7  A    between atoms: O_17  and  C_18
REMARK    8  A    between atoms: C_18  and  C_19
REMARK    9  A    between atoms: C_19  and  C_21
REMARK   10  A    between atoms: C_24  and  C_25
REMARK                            x       y       z     vdW  Elec       q    Type
REMARK                         _______ _______ _______ _____ _____    ______ ____
ROOT
ATOM      1  C   UNL     1       2.606   4.669  19.422  0.00  0.00    +0.000 A 
ATOM      2  C   UNL     1       1.702   4.525  20.492  0.00  0.00    +0.000 A 
ATOM      3  C   UNL     1       0.737   3.527  20.497  0.00  0.00    +0.000 A 
ATOM      4  C   UNL     1       0.597   2.724  19.380  0.00  0.00    +0.000 A 
ATOM      5  C   UNL     1       1.375   2.973  18.244  0.00  0.00    +0.000 A 
ATOM      6  C   UNL     1       2.349   3.978  18.228  0.00  0.00    +0.000 A 
ENDROOT
BRANCH   1   8
ATOM      7  N   UNL     1       3.726   6.913  19.440  0.00  0.00    +0.000 N 
ATOM      8  C   UNL     1       3.818   5.531  19.645  0.00  0.00    +0.000 C 
ATOM      9  O   UNL     1       4.906   5.025  19.899  0.00  0.00    +0.000 OA
ATOM     10  H   UNL     1       4.619   7.344  19.229  0.00  0.00    +0.000 HD
BRANCH   7  14
ATOM     11  C   UNL     1       0.484   9.530  18.930  0.00  0.00    +0.000 A 
ATOM     12  C   UNL     1       1.225   9.114  17.823  0.00  0.00    +0.000 A 
ATOM     13  C   UNL     1       2.252   8.185  17.965  0.00  0.00    +0.000 A 
ATOM     14  C   UNL     1       2.554   7.665  19.228  0.00  0.00    +0.000 A 
ATOM     15  C   UNL     1       1.763   8.018  20.329  0.00  0.00    +0.000 A 
ATOM     16  C   UNL     1       0.760   8.988  20.187  0.00  0.00    +0.000 A 
BRANCH  11  17
ATOM     17  O   UNL     1      -0.443  10.497  18.664  0.00  0.00    +0.000 OA
BRANCH  17  19
ATOM     18  C   UNL     1      -0.667  12.824  18.247  0.00  0.00    +0.000 C 
ATOM     19  C   UNL     1      -0.222  11.777  19.253  0.00  0.00    +0.000 C 
ENDBRANCH  17  19
ENDBRANCH  11  17
ENDBRANCH   7  14
ENDBRANCH   1   8
BRANCH   6  20
ATOM     20  O   UNL     1       3.041   4.298  17.086  0.00  0.00    +0.000 OA
BRANCH  20  21
ATOM     21  C   UNL     1       4.092   3.397  16.742  0.00  0.00    +0.000 C 
BRANCH  21  22
ATOM     22  C   UNL     1       5.258   4.030  15.997  0.00  0.00    +0.000 C 
ATOM     23  O   UNL     1       5.518   3.728  14.831  0.00  0.00    +0.000 OA
BRANCH  22  24
ATOM     24  C   UNL     1       6.039   5.106  16.660  0.00  0.00    +0.000 A 
ATOM     25  C   UNL     1       7.117   4.735  17.471  0.00  0.00    +0.000 A 
ATOM     26  C   UNL     1       7.880   5.712  18.112  0.00  0.00    +0.000 A 
ATOM     27  C   UNL     1       7.580   7.067  17.940  0.00  0.00    +0.000 A 
ATOM     28  C   UNL     1       8.391   8.127  18.630  0.00  0.00    +0.000 C 
ATOM     29  C   UNL     1       6.529   7.434  17.097  0.00  0.00    +0.000 A 
ATOM     30  C   UNL     1       5.755   6.460  16.460  0.00  0.00    +0.000 A 
ENDBRANCH  22  24
ENDBRANCH  21  22
ENDBRANCH  20  21
ENDBRANCH   6  20
TORSDOF 8
ENDMDL
MODEL 5
REMARK VINA RESULT:      -7.5      3.389      8.878
REMARK  Name = 
REMARK  10 active torsions:
REMARK  status: ('A' for Active; 'I' for Inactive)
REMARK    1  A    between atoms: C_1  and  C_2
REMARK    2  A    between atoms: C_2  and  O_3
REMARK    3  A    between atoms: O_3  and  C_4
REMARK    4  A    between atoms: C_7  and  N_8
REMARK    5  A    between atoms: C_9  and  C_11
REMARK    6  A    between atoms: C_16  and  O_17
REMARK    7  A    between atoms: O_17  and  C_18
REMARK    8  A    between atoms: C_18  and  C_19
REMARK    9  A    between atoms: C_19  and  C_21
REMARK   10  A    between atoms: C_24  and  C_25
REMARK                            x       y       z     vdW  Elec       q    Type
REMARK                         _______ _______ _______ _____ _____    ______ ____
ROOT
ATOM      1  C   UNL     1       0.367  11.019  21.071  0.00  0.00    +0.000 A 
ATOM      2  C   UNL     1      -0.522  11.444  22.076  0.00  0.00    +0.000 A 
ATOM      3  C   UNL     1      -0.849  10.625  23.149  0.00  0.00    +0.000 A 
ATOM      4  C   UNL     1      -0.370   9.329  23.173  0.00  0.00    +0.000 A 
ATOM      5  C   UNL     1       0.371   8.842  22.091  0.00  0.00    +0.000 A 
ATOM      6  C   UNL     1       0.705   9.658  21.004  0.00  0.00    +0.000 A 
ENDROOT
BRANCH   1   8
ATOM      7  N   UNL     1       0.298  12.320  18.928  0.00  0.00    +0.000 N 
ATOM      8  C   UNL     1       0.931  12.066  20.150  0.00  0.00    +0.000 C 
ATOM      9  O   UNL     1       1.994  12.620  20.411  0.00  0.00    +0.000 OA
ATOM     10  H   UNL     1       0.920  12.719  18.233  0.00  0.00    +0.000 HD
BRANCH   7  14
ATOM     11  C   UNL     1      -3.439  10.622  18.052  0.00  0.00    +0.000 A 
ATOM     12  C   UNL     1      -3.369  11.867  18.677  0.00  0.00    +0.000 A 
ATOM     13  C   UNL     1      -2.139  12.480  18.902  0.00  0.00    +0.000 A 
ATOM     14  C   UNL     1      -0.959  11.843  18.506  0.00  0.00    +0.000 A 
ATOM     15  C   UNL     1      -1.026  10.631  17.807  0.00  0.00    +0.000 A 
ATOM     16  C   UNL     1      -2.265   9.998  17.625  0.00  0.00    +0.000 A 
BRANCH  11  17
ATOM     17  O   UNL     1      -4.699  10.101  17.958  0.00  0.00    +0.000 OA
BRANCH  17  19
ATOM     18  C   UNL     1      -6.846  10.252  18.962  0.00  0.00    +0.000 C 
ATOM     19  C   UNL     1      -5.783  11.001  18.178  0.00  0.00    +0.000 C 
ENDBRANCH  17  19
ENDBRANCH  11  17
ENDBRANCH   7  14
ENDBRANCH   1   8
BRANCH   6  20
ATOM     20  O   UNL     1       1.340   9.161  19.893  0.00  0.00    +0.000 OA
BRANCH  20  21
ATOM     21  C   UNL     1       1.830   7.827  20.020  0.00  0.00    +0.000 C 
BRANCH  21  22
ATOM     22  C   UNL     1       2.500   7.271  18.773  0.00  0.00    +0.000 C 
ATOM     23  O   UNL     1       2.920   8.011  17.882  0.00  0.00    +0.000 OA
BRANCH  22  24
ATOM     24  C   UNL     1       2.738   5.807  18.673  0.00  0.00    +0.000 A 
ATOM     25  C   UNL     1       3.747   5.247  19.464  0.00  0.00    +0.000 A 
ATOM     26  C   UNL     1       4.005   3.877  19.404  0.00  0.00    +0.000 A 
ATOM     27  C   UNL     1       3.250   3.053  18.562  0.00  0.00    +0.000 A 
ATOM     28  C   UNL     1       3.523   1.578  18.484  0.00  0.00    +0.000 C 
ATOM     29  C   UNL     1       2.218   3.610  17.804  0.00  0.00    +0.000 A 
ATOM     30  C   UNL     1       1.961   4.983  17.853  0.00  0.00    +0.000 A 
ENDBRANCH  22  24
ENDBRANCH  21  22
ENDBRANCH  20  21
ENDBRANCH   6  20
TORSDOF 8
ENDMDL
MODEL 6
REMARK VINA RESULT:      -7.5      2.655      3.893
REMARK  Name = 
REMARK  10 active torsions:
REMARK  status: ('A' for Active; 'I' for Inactive)
REMARK    1  A    between atoms: C_1  and  C_2
REMARK    2  A    between atoms: C_2  and  O_3
REMARK    3  A    between atoms: O_3  and  C_4
REMARK    4  A    between atoms: C_7  and  N_8
REMARK    5  A    between atoms: C_9  and  C_11
REMARK    6  A    between atoms: C_16  and  O_17
REMARK    7  A    between atoms: O_17  and  C_18
REMARK    8  A    between atoms: C_18  and  C_19
REMARK    9  A    between atoms: C_19  and  C_21
REMARK   10  A    between atoms: C_24  and  C_25
REMARK                            x       y       z     vdW  Elec       q    Type
REMARK                         _______ _______ _______ _____ _____    ______ ____
ROOT
ATOM      1  C   UNL     1       4.372   4.299  18.605  0.00  0.00    +0.000 A 
ATOM      2  C   UNL     1       4.127   2.913  18.647  0.00  0.00    +0.000 A 
ATOM      3  C   UNL     1       2.988   2.360  18.078  0.00  0.00    +0.000 A 
ATOM      4  C   UNL     1       2.027   3.202  17.549  0.00  0.00    +0.000 A 
ATOM      5  C   UNL     1       2.181   4.588  17.660  0.00  0.00    +0.000 A 
ATOM      6  C   UNL     1       3.324   5.155  18.234  0.00  0.00    +0.000 A 
ENDROOT
BRANCH   1   8
ATOM      7  N   UNL     1       6.722   4.833  17.909  0.00  0.00    +0.000 N 
ATOM      8  C   UNL     1       5.763   4.771  18.927  0.00  0.00    +0.000 C 
ATOM      9  O   UNL     1       6.092   4.999  20.086  0.00  0.00    +0.000 OA
ATOM     10  H   UNL     1       7.673   4.775  18.254  0.00  0.00    +0.000 HD
BRANCH   7  14
ATOM     11  C   UNL     1       6.477   4.170  13.772  0.00  0.00    +0.000 A 
ATOM     12  C   UNL     1       5.785   3.339  14.653  0.00  0.00    +0.000 A 
ATOM     13  C   UNL     1       5.791   3.594  16.022  0.00  0.00    +0.000 A 
ATOM     14  C   UNL     1       6.502   4.688  16.525  0.00  0.00    +0.000 A 
ATOM     15  C   UNL     1       7.133   5.571  15.640  0.00  0.00    +0.000 A 
ATOM     16  C   UNL     1       7.160   5.283  14.267  0.00  0.00    +0.000 A 
BRANCH  11  17
ATOM     17  O   UNL     1       6.449   3.767  12.467  0.00  0.00    +0.000 OA
BRANCH  17  19
ATOM     18  C   UNL     1       5.634   1.842  11.340  0.00  0.00    +0.000 C 
ATOM     19  C   UNL     1       5.247   3.148  12.012  0.00  0.00    +0.000 C 
ENDBRANCH  17  19
ENDBRANCH  11  17
ENDBRANCH   7  14
ENDBRANCH   1   8
BRANCH   6  20
ATOM     20  O   UNL     1       3.436   6.508  18.441  0.00  0.00    +0.000 OA
BRANCH  20  21
ATOM     21  C   UNL     1       2.582   7.039  19.454  0.00  0.00    +0.000 C 
BRANCH  21  22
ATOM     22  C   UNL     1       1.832   8.302  19.058  0.00  0.00    +0.000 C 
ATOM     23  O   UNL     1       1.789   8.687  17.889  0.00  0.00    +0.000 OA
BRANCH  22  24
ATOM     24  C   UNL     1       1.054   9.034  20.092  0.00  0.00    +0.000 A 
ATOM     25  C   UNL     1       0.583  10.314  19.780  0.00  0.00    +0.000 A 
ATOM     26  C   UNL     1      -0.152  11.038  20.719  0.00  0.00    +0.000 A 
ATOM     27  C   UNL     1      -0.434  10.484  21.973  0.00  0.00    +0.000 A 
ATOM     28  C   UNL     1      -1.220  11.257  22.994  0.00  0.00    +0.000 C 
ATOM     29  C   UNL     1       0.003   9.191  22.265  0.00  0.00    +0.000 A 
ATOM     30  C   UNL     1       0.748   8.465  21.332  0.00  0.00    +0.000 A 
ENDBRANCH  22  24
ENDBRANCH  21  22
ENDBRANCH  20  21
ENDBRANCH   6  20
TORSDOF 8
ENDMDL
MODEL 7
REMARK VINA RESULT:      -7.5      3.459      9.147
REMARK  Name = 
REMARK  10 active torsions:
REMARK  status: ('A' for Active; 'I' for Inactive)
REMARK    1  A    between atoms: C_1  and  C_2
REMARK    2  A    between atoms: C_2  and  O_3
REMARK    3  A    between atoms: O_3  and  C_4
REMARK    4  A    between atoms: C_7  and  N_8
REMARK    5  A    between atoms: C_9  and  C_11
REMARK    6  A    between atoms: C_16  and  O_17
REMARK    7  A    between atoms: O_17  and  C_18
REMARK    8  A    between atoms: C_18  and  C_19
REMARK    9  A    between atoms: C_19  and  C_21
REMARK   10  A    between atoms: C_24  and  C_25
REMARK                            x       y       z     vdW  Elec       q    Type
REMARK                         _______ _______ _______ _____ _____    ______ ____
ROOT
ATOM      1  C   UNL     1       0.186  10.666  20.602  0.00  0.00    +0.000 A 
ATOM      2  C   UNL     1      -0.484  11.311  21.658  0.00  0.00    +0.000 A 
ATOM      3  C   UNL     1      -0.611  10.717  22.907  0.00  0.00    +0.000 A 
ATOM      4  C   UNL     1      -0.159   9.422  23.082  0.00  0.00    +0.000 A 
ATOM      5  C   UNL     1       0.351   8.711  21.990  0.00  0.00    +0.000 A 
ATOM      6  C   UNL     1       0.481   9.300  20.727  0.00  0.00    +0.000 A 
ENDROOT
BRANCH   1   8
ATOM      7  N   UNL     1      -0.328  11.664  18.358  0.00  0.00    +0.000 N 
ATOM      8  C   UNL     1       0.578  11.500  19.413  0.00  0.00    +0.000 C 
ATOM      9  O   UNL     1       1.715  11.947  19.312  0.00  0.00    +0.000 OA
ATOM     10  H   UNL     1       0.122  11.883  17.477  0.00  0.00    +0.000 HD
BRANCH   7  14
ATOM     11  C   UNL     1      -4.429  10.867  17.950  0.00  0.00    +0.000 A 
ATOM     12  C   UNL     1      -3.491  10.004  17.382  0.00  0.00    +0.000 A 
ATOM     13  C   UNL     1      -2.128  10.210  17.576  0.00  0.00    +0.000 A 
ATOM     14  C   UNL     1      -1.688  11.295  18.341  0.00  0.00    +0.000 A 
ATOM     15  C   UNL     1      -2.624  12.118  18.978  0.00  0.00    +0.000 A 
ATOM     16  C   UNL     1      -3.994  11.931  18.742  0.00  0.00    +0.000 A 
BRANCH  11  17
ATOM     17  O   UNL     1      -5.727  10.594  17.623  0.00  0.00    +0.000 OA
BRANCH  17  19
ATOM     18  C   UNL     1      -6.997   9.692  19.416  0.00  0.00    +0.000 C 
ATOM     19  C   UNL     1      -6.718  10.936  18.589  0.00  0.00    +0.000 C 
ENDBRANCH  17  19
ENDBRANCH  11  17
ENDBRANCH   7  14
ENDBRANCH   1   8
BRANCH   6  20
ATOM     20  O   UNL     1       0.880   8.579  19.629  0.00  0.00    +0.000 OA
BRANCH  20  21
ATOM     21  C   UNL     1       2.215   8.079  19.685  0.00  0.00    +0.000 C 
BRANCH  21  22
ATOM     22  C   UNL     1       2.336   6.566  19.586  0.00  0.00    +0.000 C 
ATOM     23  O   UNL     1       1.720   5.819  20.348  0.00  0.00    +0.000 OA
BRANCH  22  24
ATOM     24  C   UNL     1       3.139   5.976  18.484  0.00  0.00    +0.000 A 
ATOM     25  C   UNL     1       3.942   6.832  17.721  0.00  0.00    +0.000 A 
ATOM     26  C   UNL     1       4.714   6.322  16.677  0.00  0.00    +0.000 A 
ATOM     27  C   UNL     1       4.701   4.952  16.393  0.00  0.00    +0.000 A 
ATOM     28  C   UNL     1       5.524   4.393  15.268  0.00  0.00    +0.000 C 
ATOM     29  C   UNL     1       3.930   4.096  17.182  0.00  0.00    +0.000 A 
ATOM     30  C   UNL     1       3.147   4.603  18.223  0.00  0.00    +0.000 A 
ENDBRANCH  22  24
ENDBRANCH  21  22
ENDBRANCH  20  21
ENDBRANCH   6  20
TORSDOF 8
ENDMDL
MODEL 8
REMARK VINA RESULT:      -7.4      3.472      9.130
REMARK  Name = 
REMARK  10 active torsions:
REMARK  status: ('A' for Active; 'I' for Inactive)
REMARK    1  A    between atoms: C_1  and  C_2
REMARK    2  A    between atoms: C_2  and  O_3
REMARK    3  A    between atoms: O_3  and  C_4
REMARK    4  A    between atoms: C_7  and  N_8
REMARK    5  A    between atoms: C_9  and  C_11
REMARK    6  A    between atoms: C_16  and  O_17
REMARK    7  A    between atoms: O_17  and  C_18
REMARK    8  A    between atoms: C_18  and  C_19
REMARK    9  A    between atoms: C_19  and  C_21
REMARK   10  A    between atoms: C_24  and  C_25
REMARK                            x       y       z     vdW  Elec       q    Type
REMARK                         _______ _______ _______ _____ _____    ______ ____
ROOT
ATOM      1  C   UNL     1      -0.211  11.356  20.638  0.00  0.00    +0.000 A 
ATOM      2  C   UNL     1      -0.793  12.154  21.641  0.00  0.00    +0.000 A 
ATOM      3  C   UNL     1      -1.065  11.646  22.905  0.00  0.00    +0.000 A 
ATOM      4  C   UNL     1      -0.851  10.301  23.147  0.00  0.00    +0.000 A 
ATOM      5  C   UNL     1      -0.437   9.465  22.104  0.00  0.00    +0.000 A 
ATOM      6  C   UNL     1      -0.163   9.967  20.827  0.00  0.00    +0.000 A 
ENDROOT
BRANCH   1   8
ATOM      7  N   UNL     1      -0.354  12.055  18.233  0.00  0.00    +0.000 N 
ATOM      8  C   UNL     1       0.362  12.056  19.436  0.00  0.00    +0.000 C 
ATOM      9  O   UNL     1       1.491  12.534  19.470  0.00  0.00    +0.000 OA
ATOM     10  H   UNL     1       0.235  12.185  17.419  0.00  0.00    +0.000 HD
BRANCH   7  14
ATOM     11  C   UNL     1      -4.255  10.520  18.024  0.00  0.00    +0.000 A 
ATOM     12  C   UNL     1      -4.027  11.767  18.605  0.00  0.00    +0.000 A 
ATOM     13  C   UNL     1      -2.752  12.326  18.610  0.00  0.00    +0.000 A 
ATOM     14  C   UNL     1      -1.683  11.630  18.035  0.00  0.00    +0.000 A 
ATOM     15  C   UNL     1      -1.919  10.415  17.381  0.00  0.00    +0.000 A 
ATOM     16  C   UNL     1      -3.198   9.838  17.419  0.00  0.00    +0.000 A 
BRANCH  11  17
ATOM     17  O   UNL     1      -5.534  10.057  18.151  0.00  0.00    +0.000 OA
BRANCH  17  19
ATOM     18  C   UNL     1      -7.188   9.802  19.837  0.00  0.00    +0.000 C 
ATOM     19  C   UNL     1      -6.404  10.800  19.002  0.00  0.00    +0.000 C 
ENDBRANCH  17  19
ENDBRANCH  11  17
ENDBRANCH   7  14
ENDBRANCH   1   8
BRANCH   6  20
ATOM     20  O   UNL     1       0.141   9.139  19.774  0.00  0.00    +0.000 OA
BRANCH  20  21
ATOM     21  C   UNL     1       1.499   8.703  19.718  0.00  0.00    +0.000 C 
BRANCH  21  22
ATOM     22  C   UNL     1       2.080   8.604  18.316  0.00  0.00    +0.000 C 
ATOM     23  O   UNL     1       2.039   9.554  17.532  0.00  0.00    +0.000 OA
BRANCH  22  24
ATOM     24  C   UNL     1       2.798   7.366  17.918  0.00  0.00    +0.000 A 
ATOM     25  C   UNL     1       4.021   7.498  17.250  0.00  0.00    +0.000 A 
ATOM     26  C   UNL     1       4.732   6.363  16.858  0.00  0.00    +0.000 A 
ATOM     27  C   UNL     1       4.233   5.086  17.140  0.00  0.00    +0.000 A 
ATOM     28  C   UNL     1       4.987   3.857  16.718  0.00  0.00    +0.000 C 
ATOM     29  C   UNL     1       3.033   4.959  17.842  0.00  0.00    +0.000 A 
ATOM     30  C   UNL     1       2.312   6.093  18.228  0.00  0.00    +0.000 A 
ENDBRANCH  22  24
ENDBRANCH  21  22
ENDBRANCH  20  21
ENDBRANCH   6  20
TORSDOF 8
ENDMDL
MODEL 9
REMARK VINA RESULT:      -7.4      2.360      7.458
REMARK  Name = 
REMARK  10 active torsions:
REMARK  status: ('A' for Active; 'I' for Inactive)
REMARK    1  A    between atoms: C_1  and  C_2
REMARK    2  A    between atoms: C_2  and  O_3
REMARK    3  A    between atoms: O_3  and  C_4
REMARK    4  A    between atoms: C_7  and  N_8
REMARK    5  A    between atoms: C_9  and  C_11
REMARK    6  A    between atoms: C_16  and  O_17
REMARK    7  A    between atoms: O_17  and  C_18
REMARK    8  A    between atoms: C_18  and  C_19
REMARK    9  A    between atoms: C_19  and  C_21
REMARK   10  A    between atoms: C_24  and  C_25
REMARK                            x       y       z     vdW  Elec       q    Type
REMARK                         _______ _______ _______ _____ _____    ______ ____
ROOT
ATOM      1  C   UNL     1       3.059   5.848  18.250  0.00  0.00    +0.000 A 
ATOM      2  C   UNL     1       1.913   5.237  17.709  0.00  0.00    +0.000 A 
ATOM      3  C   UNL     1       1.279   4.184  18.355  0.00  0.00    +0.000 A 
ATOM      4  C   UNL     1       1.848   3.660  19.502  0.00  0.00    +0.000 A 
ATOM      5  C   UNL     1       3.081   4.148  19.949  0.00  0.00    +0.000 A 
ATOM      6  C   UNL     1       3.729   5.207  19.304  0.00  0.00    +0.000 A 
ENDROOT
BRANCH   1   8
ATOM      7  N   UNL     1       2.740   8.325  18.011  0.00  0.00    +0.000 N 
ATOM      8  C   UNL     1       3.473   7.178  17.683  0.00  0.00    +0.000 C 
ATOM      9  O   UNL     1       4.377   7.251  16.857  0.00  0.00    +0.000 OA
ATOM     10  H   UNL     1       2.824   9.062  17.321  0.00  0.00    +0.000 HD
BRANCH   7  14
ATOM     11  C   UNL     1       0.013   9.005  21.129  0.00  0.00    +0.000 A 
ATOM     12  C   UNL     1      -0.206   9.575  19.875  0.00  0.00    +0.000 A 
ATOM     13  C   UNL     1       0.645   9.294  18.809  0.00  0.00    +0.000 A 
ATOM     14  C   UNL     1       1.736   8.439  18.993  0.00  0.00    +0.000 A 
ATOM     15  C   UNL     1       1.917   7.803  20.228  0.00  0.00    +0.000 A 
ATOM     16  C   UNL     1       1.083   8.125  21.308  0.00  0.00    +0.000 A 
BRANCH  11  17
ATOM     17  O   UNL     1      -0.851   9.419  22.103  0.00  0.00    +0.000 OA
BRANCH  17  19
ATOM     18  C   UNL     1      -1.012  11.706  22.722  0.00  0.00    +0.000 C 
ATOM     19  C   UNL     1      -0.354  10.374  23.037  0.00  0.00    +0.000 C 
ENDBRANCH  17  19
ENDBRANCH  11  17
ENDBRANCH   7  14
ENDBRANCH   1   8
BRANCH   6  20
ATOM     20  O   UNL     1       4.985   5.621  19.673  0.00  0.00    +0.000 OA
BRANCH  20  21
ATOM     21  C   UNL     1       6.047   4.743  19.301  0.00  0.00    +0.000 C 
BRANCH  21  22
ATOM     22  C   UNL     1       6.914   5.240  18.155  0.00  0.00    +0.000 C 
ATOM     23  O   UNL     1       7.908   5.940  18.355  0.00  0.00    +0.000 OA
BRANCH  22  24
ATOM     24  C   UNL     1       6.610   4.791  16.771  0.00  0.00    +0.000 A 
ATOM     25  C   UNL     1       7.411   5.273  15.730  0.00  0.00    +0.000 A 
ATOM     26  C   UNL     1       7.163   4.878  14.415  0.00  0.00    +0.000 A 
ATOM     27  C   UNL     1       6.120   3.989  14.130  0.00  0.00    +0.000 A 
ATOM     28  C   UNL     1       5.841   3.561  12.717  0.00  0.00    +0.000 C 
ATOM     29  C   UNL     1       5.349   3.479  15.176  0.00  0.00    +0.000 A 
ATOM     30  C   UNL     1       5.587   3.879  16.494  0.00  0.00    +0.000 A 
ENDBRANCH  22  24
ENDBRANCH  21  22
ENDBRANCH  20  21
ENDBRANCH   6  20
TORSDOF 8
ENDMDL
