MODEL 1
REMARK VINA RESULT:      -6.8      0.000      0.000
REMARK  Name = 
REMARK  10 active torsions:
REMARK  status: ('A' for Active; 'I' for Inactive)
REMARK    1  A    between atoms: C_1  and  O_2
REMARK    2  A    between atoms: O_2  and  C_3
REMARK    3  A    between atoms: C_8  and  C_9
REMARK    4  A    between atoms: C_12  and  N_13
REMARK    5  A    between atoms: N_13  and  C_14
REMARK    6  A    between atoms: C_17  and  C_18
REMARK    7  A    between atoms: C_24  and  N_25
REMARK    8  A    between atoms: N_29  and  C_30
REMARK    9  A    between atoms: C_30  and  C_31
REMARK   10  A    between atoms: C_31  and  O_32
REMARK                            x       y       z     vdW  Elec       q    Type
REMARK                         _______ _______ _______ _____ _____    ______ ____
ROOT
ATOM      1  C   UNL     1      -1.628  14.207  23.228  0.00  0.00    +0.000 A 
ATOM      2  C   UNL     1      -2.832  13.692  23.733  0.00  0.00    +0.000 A 
ATOM      3  C   UNL     1      -3.839  13.225  22.909  0.00  0.00    +0.000 A 
ATOM      4  N   UNL     1      -4.931  12.695  23.480  0.00  0.00    +0.000 NA
ATOM      5  N   UNL     1      -5.945  12.223  22.721  0.00  0.00    +0.000 NA
ATOM      6  C   UNL     1      -5.866  12.325  21.370  0.00  0.00    +0.000 A 
ATOM      7  C   UNL     1      -4.768  12.886  20.700  0.00  0.00    +0.000 A 
ATOM      8  C   UNL     1      -3.698  13.332  21.520  0.00  0.00    +0.000 A 
ATOM      9  C   UNL     1      -2.490  13.888  21.027  0.00  0.00    +0.000 A 
ATOM     10  C   UNL     1      -1.397  14.242  21.836  0.00  0.00    +0.000 A 
ENDROOT
BRANCH  10  11
ATOM     11  N   UNL     1      -0.184  14.562  21.225  0.00  0.00    +0.000 N 
ATOM     12  C   UNL     1       0.957  13.651  21.269  0.00  0.00    +0.000 C 
ATOM     13  C   UNL     1       1.208  12.932  19.949  0.00  0.00    +0.000 C 
ATOM     14  C   UNL     1       1.435  13.723  18.658  0.00  0.00    +0.000 C 
ATOM     15  N   UNL     1       1.591  15.175  18.669  0.00  0.00    +0.000 NA
ATOM     16  C   UNL     1       0.352  15.842  19.118  0.00  0.00    +0.000 C 
ATOM     17  C   UNL     1       0.041  15.891  20.633  0.00  0.00    +0.000 C 
BRANCH  15  18
ATOM     18  C   UNL     1       2.805  15.692  19.322  0.00  0.00    +0.000 C 
BRANCH  18  19
ATOM     19  C   UNL     1       4.092  15.457  18.515  0.00  0.00    +0.000 C 
BRANCH  19  20
ATOM     20  O   UNL     1       3.800  15.360  17.125  0.00  0.00    +0.000 OA
ATOM     21  H   UNL     1       4.349  14.621  16.800  0.00  0.00    +0.000 HD
ENDBRANCH  19  20
ENDBRANCH  18  19
ENDBRANCH  15  18
ENDBRANCH  10  11
BRANCH   6  22
ATOM     22  C   UNL     1      -7.058  11.782  20.662  0.00  0.00    +0.000 C 
ATOM     23  N   UNL     1      -7.543  10.574  21.116  0.00  0.00    +0.000 N 
ATOM     24  O   UNL     1      -7.594  12.377  19.733  0.00  0.00    +0.000 OA
ATOM     25  H   UNL     1      -7.101  10.104  21.901  0.00  0.00    +0.000 HD
ATOM     26  H   UNL     1      -8.351  10.168  20.683  0.00  0.00    +0.000 HD
ENDBRANCH   6  22
BRANCH   1  28
ATOM     27  C   UNL     1      -0.827  15.999  24.609  0.00  0.00    +0.000 C 
ATOM     28  O   UNL     1      -0.650  14.702  24.056  0.00  0.00    +0.000 OA
ENDBRANCH   1  28
BRANCH   7  29
ATOM     29  N   UNL     1      -4.718  12.964  19.281  0.00  0.00    +0.000 N 
ATOM     30  H   UNL     1      -5.473  13.542  18.894  0.00  0.00    +0.000 HD
BRANCH  29  31
ATOM     31  C   UNL     1      -4.203  12.060  18.317  0.00  0.00    +0.000 A 
ATOM     32  C   UNL     1      -4.917  11.910  17.118  0.00  0.00    +0.000 A 
ATOM     33  C   UNL     1      -4.441  11.095  16.080  0.00  0.00    +0.000 A 
ATOM     34  C   UNL     1      -3.235  10.403  16.218  0.00  0.00    +0.000 A 
ATOM     35  C   UNL     1      -2.744   9.476  15.144  0.00  0.00    +0.000 C 
ATOM     36  C   UNL     1      -2.490  10.579  17.386  0.00  0.00    +0.000 A 
ATOM     37  C   UNL     1      -2.976  11.385  18.421  0.00  0.00    +0.000 A 
ATOM     38  F   UNL     1      -2.229  11.483  19.530  0.00  0.00    +0.000 F 
ENDBRANCH  29  31
ENDBRANCH   7  29
TORSDOF 8
ENDMDL
MODEL 2
REMARK VINA RESULT:      -6.8      0.956      1.017
REMARK  Name = 
REMARK  10 active torsions:
REMARK  status: ('A' for Active; 'I' for Inactive)
REMARK    1  A    between atoms: C_1  and  O_2
REMARK    2  A    between atoms: O_2  and  C_3
REMARK    3  A    between atoms: C_8  and  C_9
REMARK    4  A    between atoms: C_12  and  N_13
REMARK    5  A    between atoms: N_13  and  C_14
REMARK    6  A    between atoms: C_17  and  C_18
REMARK    7  A    between atoms: C_24  and  N_25
REMARK    8  A    between atoms: N_29  and  C_30
REMARK    9  A    between atoms: C_30  and  C_31
REMARK   10  A    between atoms: C_31  and  O_32
REMARK                            x       y       z     vdW  Elec       q    Type
REMARK                         _______ _______ _______ _____ _____    ______ ____
ROOT
ATOM      1  C   UNL     1      -1.863  14.309  23.744  0.00  0.00    +0.000 A 
ATOM      2  C   UNL     1      -3.072  13.735  24.167  0.00  0.00    +0.000 A 
ATOM      3  C   UNL     1      -4.022  13.270  23.276  0.00  0.00    +0.000 A 
ATOM      4  N   UNL     1      -5.121  12.682  23.770  0.00  0.00    +0.000 NA
ATOM      5  N   UNL     1      -6.080  12.209  22.943  0.00  0.00    +0.000 NA
ATOM      6  C   UNL     1      -5.938  12.368  21.603  0.00  0.00    +0.000 A 
ATOM      7  C   UNL     1      -4.829  12.991  21.011  0.00  0.00    +0.000 A 
ATOM      8  C   UNL     1      -3.816  13.438  21.901  0.00  0.00    +0.000 A 
ATOM      9  C   UNL     1      -2.605  14.052  21.492  0.00  0.00    +0.000 A 
ATOM     10  C   UNL     1      -1.566  14.408  22.367  0.00  0.00    +0.000 A 
ENDROOT
BRANCH  10  11
ATOM     11  N   UNL     1      -0.336  14.791  21.831  0.00  0.00    +0.000 N 
ATOM     12  C   UNL     1       0.717  13.815  21.560  0.00  0.00    +0.000 C 
ATOM     13  C   UNL     1       0.884  13.503  20.077  0.00  0.00    +0.000 C 
ATOM     14  C   UNL     1       1.167  14.620  19.070  0.00  0.00    +0.000 C 
ATOM     15  N   UNL     1       1.457  15.985  19.503  0.00  0.00    +0.000 NA
ATOM     16  C   UNL     1       0.291  16.590  20.177  0.00  0.00    +0.000 C 
ATOM     17  C   UNL     1       0.003  16.212  21.649  0.00  0.00    +0.000 C 
BRANCH  15  18
ATOM     18  C   UNL     1       2.721  16.179  20.231  0.00  0.00    +0.000 C 
BRANCH  18  19
ATOM     19  C   UNL     1       3.145  17.651  20.359  0.00  0.00    +0.000 C 
BRANCH  19  20
ATOM     20  O   UNL     1       4.487  17.824  19.919  0.00  0.00    +0.000 OA
ATOM     21  H   UNL     1       4.544  18.756  19.633  0.00  0.00    +0.000 HD
ENDBRANCH  19  20
ENDBRANCH  18  19
ENDBRANCH  15  18
ENDBRANCH  10  11
BRANCH   6  22
ATOM     22  C   UNL     1      -7.075  11.816  20.816  0.00  0.00    +0.000 C 
ATOM     23  N   UNL     1      -7.495  10.547  21.152  0.00  0.00    +0.000 N 
ATOM     24  O   UNL     1      -7.623  12.455  19.923  0.00  0.00    +0.000 OA
ATOM     25  H   UNL     1      -7.045  10.040  21.908  0.00  0.00    +0.000 HD
ATOM     26  H   UNL     1      -8.264  10.131  20.662  0.00  0.00    +0.000 HD
ENDBRANCH   6  22
BRANCH   1  28
ATOM     27  C   UNL     1      -1.302  15.934  25.418  0.00  0.00    +0.000 C 
ATOM     28  O   UNL     1      -0.944  14.801  24.639  0.00  0.00    +0.000 OA
ENDBRANCH   1  28
BRANCH   7  29
ATOM     29  N   UNL     1      -4.712  13.129  19.601  0.00  0.00    +0.000 N 
ATOM     30  H   UNL     1      -5.405  13.778  19.212  0.00  0.00    +0.000 HD
BRANCH  29  31
ATOM     31  C   UNL     1      -4.223  12.232  18.617  0.00  0.00    +0.000 A 
ATOM     32  C   UNL     1      -5.020  12.016  17.481  0.00  0.00    +0.000 A 
ATOM     33  C   UNL     1      -4.581  11.205  16.424  0.00  0.00    +0.000 A 
ATOM     34  C   UNL     1      -3.330  10.583  16.478  0.00  0.00    +0.000 A 
ATOM     35  C   UNL     1      -2.872   9.661  15.386  0.00  0.00    +0.000 C 
ATOM     36  C   UNL     1      -2.508  10.827  17.580  0.00  0.00    +0.000 A 
ATOM     37  C   UNL     1      -2.956  11.628  18.635  0.00  0.00    +0.000 A 
ATOM     38  F   UNL     1      -2.132  11.792  19.680  0.00  0.00    +0.000 F 
ENDBRANCH  29  31
ENDBRANCH   7  29
TORSDOF 8
ENDMDL
MODEL 3
REMARK VINA RESULT:      -6.7      1.176      1.435
REMARK  Name = 
REMARK  10 active torsions:
REMARK  status: ('A' for Active; 'I' for Inactive)
REMARK    1  A    between atoms: C_1  and  O_2
REMARK    2  A    between atoms: O_2  and  C_3
REMARK    3  A    between atoms: C_8  and  C_9
REMARK    4  A    between atoms: C_12  and  N_13
REMARK    5  A    between atoms: N_13  and  C_14
REMARK    6  A    between atoms: C_17  and  C_18
REMARK    7  A    between atoms: C_24  and  N_25
REMARK    8  A    between atoms: N_29  and  C_30
REMARK    9  A    between atoms: C_30  and  C_31
REMARK   10  A    between atoms: C_31  and  O_32
REMARK                            x       y       z     vdW  Elec       q    Type
REMARK                         _______ _______ _______ _____ _____    ______ ____
ROOT
ATOM      1  C   UNL     1      -1.904  14.302  23.693  0.00  0.00    +0.000 A 
ATOM      2  C   UNL     1      -3.101  13.707  24.122  0.00  0.00    +0.000 A 
ATOM      3  C   UNL     1      -4.063  13.261  23.234  0.00  0.00    +0.000 A 
ATOM      4  N   UNL     1      -5.149  12.650  23.732  0.00  0.00    +0.000 NA
ATOM      5  N   UNL     1      -6.120  12.196  22.909  0.00  0.00    +0.000 NA
ATOM      6  C   UNL     1      -6.005  12.396  21.571  0.00  0.00    +0.000 A 
ATOM      7  C   UNL     1      -4.911  13.045  20.978  0.00  0.00    +0.000 A 
ATOM      8  C   UNL     1      -3.885  13.472  21.862  0.00  0.00    +0.000 A 
ATOM      9  C   UNL     1      -2.687  14.108  21.449  0.00  0.00    +0.000 A 
ATOM     10  C   UNL     1      -1.633  14.446  22.316  0.00  0.00    +0.000 A 
ENDROOT
BRANCH  10  11
ATOM     11  N   UNL     1      -0.417  14.854  21.768  0.00  0.00    +0.000 N 
ATOM     12  C   UNL     1       0.663  13.904  21.511  0.00  0.00    +0.000 C 
ATOM     13  C   UNL     1       0.835  13.570  20.034  0.00  0.00    +0.000 C 
ATOM     14  C   UNL     1       1.083  14.676  19.006  0.00  0.00    +0.000 C 
ATOM     15  N   UNL     1       1.334  16.056  19.413  0.00  0.00    +0.000 NA
ATOM     16  C   UNL     1       0.153  16.640  20.080  0.00  0.00    +0.000 C 
ATOM     17  C   UNL     1      -0.119  16.281  21.560  0.00  0.00    +0.000 C 
BRANCH  15  18
ATOM     18  C   UNL     1       2.594  16.300  20.133  0.00  0.00    +0.000 C 
BRANCH  18  19
ATOM     19  C   UNL     1       3.837  15.750  19.415  0.00  0.00    +0.000 C 
BRANCH  19  20
ATOM     20  O   UNL     1       4.429  14.701  20.174  0.00  0.00    +0.000 OA
ATOM     21  H   UNL     1       3.746  14.436  20.819  0.00  0.00    +0.000 HD
ENDBRANCH  19  20
ENDBRANCH  18  19
ENDBRANCH  15  18
ENDBRANCH  10  11
BRANCH   6  22
ATOM     22  C   UNL     1      -7.152  11.860  20.789  0.00  0.00    +0.000 C 
ATOM     23  N   UNL     1      -7.528  10.562  21.063  0.00  0.00    +0.000 N 
ATOM     24  O   UNL     1      -7.746  12.533  19.953  0.00  0.00    +0.000 OA
ATOM     25  H   UNL     1      -7.040  10.024  21.774  0.00  0.00    +0.000 HD
ATOM     26  H   UNL     1      -8.302  10.153  20.574  0.00  0.00    +0.000 HD
ENDBRANCH   6  22
BRANCH   1  28
ATOM     27  C   UNL     1      -1.421  15.577  25.669  0.00  0.00    +0.000 C 
ATOM     28  O   UNL     1      -0.972  14.774  24.586  0.00  0.00    +0.000 OA
ENDBRANCH   1  28
BRANCH   7  29
ATOM     29  N   UNL     1      -4.822  13.226  19.570  0.00  0.00    +0.000 N 
ATOM     30  H   UNL     1      -5.534  13.873  19.213  0.00  0.00    +0.000 HD
BRANCH  29  31
ATOM     31  C   UNL     1      -4.334  12.368  18.552  0.00  0.00    +0.000 A 
ATOM     32  C   UNL     1      -3.090  11.752  18.762  0.00  0.00    +0.000 A 
ATOM     33  C   UNL     1      -2.567  10.830  17.843  0.00  0.00    +0.000 A 
ATOM     34  C   UNL     1      -3.275  10.503  16.683  0.00  0.00    +0.000 A 
ATOM     35  C   UNL     1      -2.701   9.570  15.659  0.00  0.00    +0.000 C 
ATOM     36  C   UNL     1      -4.534  11.073  16.484  0.00  0.00    +0.000 A 
ATOM     37  C   UNL     1      -5.045  11.999  17.399  0.00  0.00    +0.000 A 
ATOM     38  F   UNL     1      -6.245  12.536  17.131  0.00  0.00    +0.000 F 
ENDBRANCH  29  31
ENDBRANCH   7  29
TORSDOF 8
ENDMDL
MODEL 4
REMARK VINA RESULT:      -6.7      1.952      2.503
REMARK  Name = 
REMARK  10 active torsions:
REMARK  status: ('A' for Active; 'I' for Inactive)
REMARK    1  A    between atoms: C_1  and  O_2
REMARK    2  A    between atoms: O_2  and  C_3
REMARK    3  A    between atoms: C_8  and  C_9
REMARK    4  A    between atoms: C_12  and  N_13
REMARK    5  A    between atoms: N_13  and  C_14
REMARK    6  A    between atoms: C_17  and  C_18
REMARK    7  A    between atoms: C_24  and  N_25
REMARK    8  A    between atoms: N_29  and  C_30
REMARK    9  A    between atoms: C_30  and  C_31
REMARK   10  A    between atoms: C_31  and  O_32
REMARK                            x       y       z     vdW  Elec       q    Type
REMARK                         _______ _______ _______ _____ _____    ______ ____
ROOT
ATOM      1  C   UNL     1      -3.817  14.891  23.353  0.00  0.00    +0.000 A 
ATOM      2  C   UNL     1      -4.995  14.128  23.382  0.00  0.00    +0.000 A 
ATOM      3  C   UNL     1      -5.361  13.295  22.340  0.00  0.00    +0.000 A 
ATOM      4  N   UNL     1      -6.473  12.558  22.480  0.00  0.00    +0.000 NA
ATOM      5  N   UNL     1      -6.876  11.727  21.492  0.00  0.00    +0.000 NA
ATOM      6  C   UNL     1      -6.164  11.672  20.339  0.00  0.00    +0.000 A 
ATOM      7  C   UNL     1      -5.003  12.427  20.110  0.00  0.00    +0.000 A 
ATOM      8  C   UNL     1      -4.578  13.257  21.181  0.00  0.00    +0.000 A 
ATOM      9  C   UNL     1      -3.410  14.061  21.155  0.00  0.00    +0.000 A 
ATOM     10  C   UNL     1      -2.943  14.810  22.249  0.00  0.00    +0.000 A 
ENDROOT
BRANCH  10  11
ATOM     11  N   UNL     1      -1.669  15.375  22.181  0.00  0.00    +0.000 N 
ATOM     12  C   UNL     1      -0.506  14.710  22.765  0.00  0.00    +0.000 C 
ATOM     13  C   UNL     1       0.412  14.077  21.726  0.00  0.00    +0.000 C 
ATOM     14  C   UNL     1       1.013  14.918  20.597  0.00  0.00    +0.000 C 
ATOM     15  N   UNL     1       0.874  16.371  20.569  0.00  0.00    +0.000 NA
ATOM     16  C   UNL     1      -0.539  16.770  20.409  0.00  0.00    +0.000 C 
ATOM     17  C   UNL     1      -1.468  16.731  21.645  0.00  0.00    +0.000 C 
BRANCH  15  18
ATOM     18  C   UNL     1       1.574  17.110  21.632  0.00  0.00    +0.000 C 
BRANCH  18  19
ATOM     19  C   UNL     1       2.891  17.757  21.175  0.00  0.00    +0.000 C 
BRANCH  19  20
ATOM     20  O   UNL     1       2.921  17.883  19.758  0.00  0.00    +0.000 OA
ATOM     21  H   UNL     1       3.698  18.442  19.567  0.00  0.00    +0.000 HD
ENDBRANCH  19  20
ENDBRANCH  18  19
ENDBRANCH  15  18
ENDBRANCH  10  11
BRANCH   6  22
ATOM     22  C   UNL     1      -6.730  10.730  19.335  0.00  0.00    +0.000 C 
ATOM     23  N   UNL     1      -7.339   9.597  19.832  0.00  0.00    +0.000 N 
ATOM     24  O   UNL     1      -6.674  10.948  18.129  0.00  0.00    +0.000 OA
ATOM     25  H   UNL     1      -7.397   9.442  20.834  0.00  0.00    +0.000 HD
ATOM     26  H   UNL     1      -7.748   8.934  19.201  0.00  0.00    +0.000 HD
ENDBRANCH   6  22
BRANCH   1  28
ATOM     27  C   UNL     1      -4.485  16.614  24.884  0.00  0.00    +0.000 C 
ATOM     28  O   UNL     1      -3.483  15.743  24.378  0.00  0.00    +0.000 OA
ENDBRANCH   1  28
BRANCH   7  29
ATOM     29  N   UNL     1      -4.277  12.332  18.891  0.00  0.00    +0.000 N 
ATOM     30  H   UNL     1      -4.880  12.440  18.067  0.00  0.00    +0.000 HD
BRANCH  29  31
ATOM     31  C   UNL     1      -3.074  11.650  18.575  0.00  0.00    +0.000 A 
ATOM     32  C   UNL     1      -1.962  11.878  19.401  0.00  0.00    +0.000 A 
ATOM     33  C   UNL     1      -0.756  11.189  19.209  0.00  0.00    +0.000 A 
ATOM     34  C   UNL     1      -0.629  10.253  18.179  0.00  0.00    +0.000 A 
ATOM     35  C   UNL     1       0.673   9.554  17.918  0.00  0.00    +0.000 C 
ATOM     36  C   UNL     1      -1.742   9.981  17.380  0.00  0.00    +0.000 A 
ATOM     37  C   UNL     1      -2.938  10.680  17.570  0.00  0.00    +0.000 A 
ATOM     38  F   UNL     1      -3.957  10.397  16.745  0.00  0.00    +0.000 F 
ENDBRANCH  29  31
ENDBRANCH   7  29
TORSDOF 8
ENDMDL
MODEL 5
REMARK VINA RESULT:      -6.7      2.524      4.790
REMARK  Name = 
REMARK  10 active torsions:
REMARK  status: ('A' for Active; 'I' for Inactive)
REMARK    1  A    between atoms: C_1  and  O_2
REMARK    2  A    between atoms: O_2  and  C_3
REMARK    3  A    between atoms: C_8  and  C_9
REMARK    4  A    between atoms: C_12  and  N_13
REMARK    5  A    between atoms: N_13  and  C_14
REMARK    6  A    between atoms: C_17  and  C_18
REMARK    7  A    between atoms: C_24  and  N_25
REMARK    8  A    between atoms: N_29  and  C_30
REMARK    9  A    between atoms: C_30  and  C_31
REMARK   10  A    between atoms: C_31  and  O_32
REMARK                            x       y       z     vdW  Elec       q    Type
REMARK                         _______ _______ _______ _____ _____    ______ ____
ROOT
ATOM      1  C   UNL     1       0.011  11.415  18.762  0.00  0.00    +0.000 A 
ATOM      2  C   UNL     1      -0.911  10.489  18.249  0.00  0.00    +0.000 A 
ATOM      3  C   UNL     1      -2.275  10.718  18.266  0.00  0.00    +0.000 A 
ATOM      4  N   UNL     1      -3.077   9.804  17.700  0.00  0.00    +0.000 NA
ATOM      5  N   UNL     1      -4.418   9.978  17.688  0.00  0.00    +0.000 NA
ATOM      6  C   UNL     1      -4.951  11.072  18.290  0.00  0.00    +0.000 A 
ATOM      7  C   UNL     1      -4.180  12.059  18.922  0.00  0.00    +0.000 A 
ATOM      8  C   UNL     1      -2.772  11.874  18.879  0.00  0.00    +0.000 A 
ATOM      9  C   UNL     1      -1.829  12.781  19.424  0.00  0.00    +0.000 A 
ATOM     10  C   UNL     1      -0.436  12.642  19.299  0.00  0.00    +0.000 A 
ENDROOT
BRANCH  10  11
ATOM     11  N   UNL     1       0.383  13.707  19.672  0.00  0.00    +0.000 N 
ATOM     12  C   UNL     1       0.956  13.798  21.013  0.00  0.00    +0.000 C 
ATOM     13  C   UNL     1       2.443  13.467  21.058  0.00  0.00    +0.000 C 
ATOM     14  C   UNL     1       3.443  14.238  20.192  0.00  0.00    +0.000 C 
ATOM     15  N   UNL     1       3.043  15.418  19.429  0.00  0.00    +0.000 NA
ATOM     16  C   UNL     1       2.067  15.069  18.377  0.00  0.00    +0.000 C 
ATOM     17  C   UNL     1       0.587  14.858  18.776  0.00  0.00    +0.000 C 
BRANCH  15  18
ATOM     18  C   UNL     1       2.658  16.599  20.219  0.00  0.00    +0.000 C 
BRANCH  18  19
ATOM     19  C   UNL     1       3.851  17.415  20.740  0.00  0.00    +0.000 C 
BRANCH  19  20
ATOM     20  O   UNL     1       4.712  17.782  19.667  0.00  0.00    +0.000 OA
ATOM     21  H   UNL     1       5.297  18.473  20.033  0.00  0.00    +0.000 HD
ENDBRANCH  19  20
ENDBRANCH  18  19
ENDBRANCH  15  18
ENDBRANCH  10  11
BRANCH   6  22
ATOM     22  C   UNL     1      -6.436  11.126  18.216  0.00  0.00    +0.000 C 
ATOM     23  N   UNL     1      -7.119  10.097  18.829  0.00  0.00    +0.000 N 
ATOM     24  O   UNL     1      -7.030  12.040  17.654  0.00  0.00    +0.000 OA
ATOM     25  H   UNL     1      -6.613   9.359  19.310  0.00  0.00    +0.000 HD
ATOM     26  H   UNL     1      -8.121  10.089  18.821  0.00  0.00    +0.000 HD
ENDBRANCH   6  22
BRANCH   1  28
ATOM     27  C   UNL     1       1.829   9.983  18.130  0.00  0.00    +0.000 C 
ATOM     28  O   UNL     1       1.361  11.161  18.772  0.00  0.00    +0.000 OA
ENDBRANCH   1  28
BRANCH   7  29
ATOM     29  N   UNL     1      -4.775  13.197  19.532  0.00  0.00    +0.000 N 
ATOM     30  H   UNL     1      -4.335  14.075  19.234  0.00  0.00    +0.000 HD
BRANCH  29  31
ATOM     31  C   UNL     1      -5.451  13.341  20.771  0.00  0.00    +0.000 A 
ATOM     32  C   UNL     1      -6.746  13.882  20.746  0.00  0.00    +0.000 A 
ATOM     33  C   UNL     1      -7.516  13.990  21.913  0.00  0.00    +0.000 A 
ATOM     34  C   UNL     1      -7.006  13.562  23.142  0.00  0.00    +0.000 A 
ATOM     35  C   UNL     1      -7.790  13.730  24.410  0.00  0.00    +0.000 C 
ATOM     36  C   UNL     1      -5.738  12.978  23.174  0.00  0.00    +0.000 A 
ATOM     37  C   UNL     1      -4.972  12.884  22.008  0.00  0.00    +0.000 A 
ATOM     38  F   UNL     1      -3.747  12.346  22.114  0.00  0.00    +0.000 F 
ENDBRANCH  29  31
ENDBRANCH   7  29
TORSDOF 8
ENDMDL
MODEL 6
REMARK VINA RESULT:      -6.6      2.477      5.078
REMARK  Name = 
REMARK  10 active torsions:
REMARK  status: ('A' for Active; 'I' for Inactive)
REMARK    1  A    between atoms: C_1  and  O_2
REMARK    2  A    between atoms: O_2  and  C_3
REMARK    3  A    between atoms: C_8  and  C_9
REMARK    4  A    between atoms: C_12  and  N_13
REMARK    5  A    between atoms: N_13  and  C_14
REMARK    6  A    between atoms: C_17  and  C_18
REMARK    7  A    between atoms: C_24  and  N_25
REMARK    8  A    between atoms: N_29  and  C_30
REMARK    9  A    between atoms: C_30  and  C_31
REMARK   10  A    between atoms: C_31  and  O_32
REMARK                            x       y       z     vdW  Elec       q    Type
REMARK                         _______ _______ _______ _____ _____    ______ ____
ROOT
ATOM      1  C   UNL     1       0.141  11.054  18.774  0.00  0.00    +0.000 A 
ATOM      2  C   UNL     1      -0.835  10.234  18.186  0.00  0.00    +0.000 A 
ATOM      3  C   UNL     1      -2.177  10.569  18.182  0.00  0.00    +0.000 A 
ATOM      4  N   UNL     1      -3.031   9.755  17.545  0.00  0.00    +0.000 NA
ATOM      5  N   UNL     1      -4.353  10.036  17.509  0.00  0.00    +0.000 NA
ATOM      6  C   UNL     1      -4.816  11.134  18.159  0.00  0.00    +0.000 A 
ATOM      7  C   UNL     1      -3.989  12.021  18.865  0.00  0.00    +0.000 A 
ATOM      8  C   UNL     1      -2.600  11.726  18.847  0.00  0.00    +0.000 A 
ATOM      9  C   UNL     1      -1.604  12.524  19.467  0.00  0.00    +0.000 A 
ATOM     10  C   UNL     1      -0.224  12.281  19.369  0.00  0.00    +0.000 A 
ENDROOT
BRANCH  10  11
ATOM     11  N   UNL     1       0.665  13.256  19.823  0.00  0.00    +0.000 N 
ATOM     12  C   UNL     1       1.349  14.156  18.899  0.00  0.00    +0.000 C 
ATOM     13  C   UNL     1       0.785  15.572  18.905  0.00  0.00    +0.000 C 
ATOM     14  C   UNL     1       0.716  16.380  20.203  0.00  0.00    +0.000 C 
ATOM     15  N   UNL     1       1.337  15.903  21.435  0.00  0.00    +0.000 NA
ATOM     16  C   UNL     1       0.690  14.665  21.915  0.00  0.00    +0.000 C 
ATOM     17  C   UNL     1       1.058  13.323  21.240  0.00  0.00    +0.000 C 
BRANCH  15  18
ATOM     18  C   UNL     1       2.808  15.833  21.434  0.00  0.00    +0.000 C 
BRANCH  18  19
ATOM     19  C   UNL     1       3.459  16.443  22.686  0.00  0.00    +0.000 C 
BRANCH  19  20
ATOM     20  O   UNL     1       3.872  15.418  23.584  0.00  0.00    +0.000 OA
ATOM     21  H   UNL     1       4.848  15.428  23.552  0.00  0.00    +0.000 HD
ENDBRANCH  19  20
ENDBRANCH  18  19
ENDBRANCH  15  18
ENDBRANCH  10  11
BRANCH   6  22
ATOM     22  C   UNL     1      -6.290  11.311  18.051  0.00  0.00    +0.000 C 
ATOM     23  N   UNL     1      -6.736  12.145  17.047  0.00  0.00    +0.000 N 
ATOM     24  O   UNL     1      -7.074  10.740  18.801  0.00  0.00    +0.000 OA
ATOM     25  H   UNL     1      -6.074  12.594  16.420  0.00  0.00    +0.000 HD
ATOM     26  H   UNL     1      -7.719  12.291  16.921  0.00  0.00    +0.000 HD
ENDBRANCH   6  22
BRANCH   1  28
ATOM     27  C   UNL     1       1.900   9.652  17.938  0.00  0.00    +0.000 C 
ATOM     28  O   UNL     1       1.466  10.692  18.804  0.00  0.00    +0.000 OA
ENDBRANCH   1  28
BRANCH   7  29
ATOM     29  N   UNL     1      -4.511  13.168  19.524  0.00  0.00    +0.000 N 
ATOM     30  H   UNL     1      -3.986  14.021  19.299  0.00  0.00    +0.000 HD
BRANCH  29  31
ATOM     31  C   UNL     1      -5.224  13.296  20.744  0.00  0.00    +0.000 A 
ATOM     32  C   UNL     1      -6.519  13.835  20.687  0.00  0.00    +0.000 A 
ATOM     33  C   UNL     1      -7.323  13.927  21.832  0.00  0.00    +0.000 A 
ATOM     34  C   UNL     1      -6.849  13.484  23.070  0.00  0.00    +0.000 A 
ATOM     35  C   UNL     1      -7.671  13.635  24.316  0.00  0.00    +0.000 C 
ATOM     36  C   UNL     1      -5.581  12.902  23.133  0.00  0.00    +0.000 A 
ATOM     37  C   UNL     1      -4.781  12.823  21.989  0.00  0.00    +0.000 A 
ATOM     38  F   UNL     1      -3.559  12.286  22.125  0.00  0.00    +0.000 F 
ENDBRANCH  29  31
ENDBRANCH   7  29
TORSDOF 8
ENDMDL
MODEL 7
REMARK VINA RESULT:      -6.5      2.594      5.088
REMARK  Name = 
REMARK  10 active torsions:
REMARK  status: ('A' for Active; 'I' for Inactive)
REMARK    1  A    between atoms: C_1  and  O_2
REMARK    2  A    between atoms: O_2  and  C_3
REMARK    3  A    between atoms: C_8  and  C_9
REMARK    4  A    between atoms: C_12  and  N_13
REMARK    5  A    between atoms: N_13  and  C_14
REMARK    6  A    between atoms: C_17  and  C_18
REMARK    7  A    between atoms: C_24  and  N_25
REMARK    8  A    between atoms: N_29  and  C_30
REMARK    9  A    between atoms: C_30  and  C_31
REMARK   10  A    between atoms: C_31  and  O_32
REMARK                            x       y       z     vdW  Elec       q    Type
REMARK                         _______ _______ _______ _____ _____    ______ ____
ROOT
ATOM      1  C   UNL     1      -0.015  11.127  18.691  0.00  0.00    +0.000 A 
ATOM      2  C   UNL     1      -0.984  10.269  18.148  0.00  0.00    +0.000 A 
ATOM      3  C   UNL     1      -2.334  10.569  18.174  0.00  0.00    +0.000 A 
ATOM      4  N   UNL     1      -3.183   9.718  17.577  0.00  0.00    +0.000 NA
ATOM      5  N   UNL     1      -4.512   9.963  17.573  0.00  0.00    +0.000 NA
ATOM      6  C   UNL     1      -4.987  11.062  18.211  0.00  0.00    +0.000 A 
ATOM      7  C   UNL     1      -4.166  11.986  18.875  0.00  0.00    +0.000 A 
ATOM      8  C   UNL     1      -2.770  11.728  18.826  0.00  0.00    +0.000 A 
ATOM      9  C   UNL     1      -1.780  12.566  19.400  0.00  0.00    +0.000 A 
ATOM     10  C   UNL     1      -0.397  12.357  19.270  0.00  0.00    +0.000 A 
ENDROOT
BRANCH  10  11
ATOM     11  N   UNL     1       0.477  13.365  19.678  0.00  0.00    +0.000 N 
ATOM     12  C   UNL     1       0.940  14.396  18.753  0.00  0.00    +0.000 C 
ATOM     13  C   UNL     1       0.281  15.751  18.978  0.00  0.00    +0.000 C 
ATOM     14  C   UNL     1       0.354  16.440  20.343  0.00  0.00    +0.000 C 
ATOM     15  N   UNL     1       1.193  15.918  21.418  0.00  0.00    +0.000 NA
ATOM     16  C   UNL     1       0.722  14.592  21.869  0.00  0.00    +0.000 C 
ATOM     17  C   UNL     1       1.080  13.349  21.021  0.00  0.00    +0.000 C 
BRANCH  15  18
ATOM     18  C   UNL     1       2.647  15.978  21.193  0.00  0.00    +0.000 C 
BRANCH  18  19
ATOM     19  C   UNL     1       3.222  17.403  21.223  0.00  0.00    +0.000 C 
BRANCH  19  20
ATOM     20  O   UNL     1       3.509  17.854  19.904  0.00  0.00    +0.000 OA
ATOM     21  H   UNL     1       2.850  18.552  19.724  0.00  0.00    +0.000 HD
ENDBRANCH  19  20
ENDBRANCH  18  19
ENDBRANCH  15  18
ENDBRANCH  10  11
BRANCH   6  22
ATOM     22  C   UNL     1      -6.468  11.198  18.140  0.00  0.00    +0.000 C 
ATOM     23  N   UNL     1      -7.204  10.240  18.805  0.00  0.00    +0.000 N 
ATOM     24  O   UNL     1      -7.013  12.116  17.536  0.00  0.00    +0.000 OA
ATOM     25  H   UNL     1      -6.737   9.499  19.320  0.00  0.00    +0.000 HD
ATOM     26  H   UNL     1      -8.205  10.289  18.801  0.00  0.00    +0.000 HD
ENDBRANCH   6  22
BRANCH   1  28
ATOM     27  C   UNL     1       1.693   9.488  18.299  0.00  0.00    +0.000 C 
ATOM     28  O   UNL     1       1.320  10.802  18.692  0.00  0.00    +0.000 OA
ENDBRANCH   1  28
BRANCH   7  29
ATOM     29  N   UNL     1      -4.701  13.133  19.524  0.00  0.00    +0.000 N 
ATOM     30  H   UNL     1      -4.134  13.973  19.363  0.00  0.00    +0.000 HD
BRANCH  29  31
ATOM     31  C   UNL     1      -5.501  13.254  20.689  0.00  0.00    +0.000 A 
ATOM     32  C   UNL     1      -4.939  12.847  21.909  0.00  0.00    +0.000 A 
ATOM     33  C   UNL     1      -5.630  13.002  23.120  0.00  0.00    +0.000 A 
ATOM     34  C   UNL     1      -6.909  13.565  23.141  0.00  0.00    +0.000 A 
ATOM     35  C   UNL     1      -7.688  13.678  24.418  0.00  0.00    +0.000 C 
ATOM     36  C   UNL     1      -7.461  14.017  21.941  0.00  0.00    +0.000 A 
ATOM     37  C   UNL     1      -6.771  13.850  20.736  0.00  0.00    +0.000 A 
ATOM     38  F   UNL     1      -7.374  14.273  19.614  0.00  0.00    +0.000 F 
ENDBRANCH  29  31
ENDBRANCH   7  29
TORSDOF 8
ENDMDL
MODEL 8
REMARK VINA RESULT:      -6.4      2.525      5.289
REMARK  Name = 
REMARK  10 active torsions:
REMARK  status: ('A' for Active; 'I' for Inactive)
REMARK    1  A    between atoms: C_1  and  O_2
REMARK    2  A    between atoms: O_2  and  C_3
REMARK    3  A    between atoms: C_8  and  C_9
REMARK    4  A    between atoms: C_12  and  N_13
REMARK    5  A    between atoms: N_13  and  C_14
REMARK    6  A    between atoms: C_17  and  C_18
REMARK    7  A    between atoms: C_24  and  N_25
REMARK    8  A    between atoms: N_29  and  C_30
REMARK    9  A    between atoms: C_30  and  C_31
REMARK   10  A    between atoms: C_31  and  O_32
REMARK                            x       y       z     vdW  Elec       q    Type
REMARK                         _______ _______ _______ _____ _____    ______ ____
ROOT
ATOM      1  C   UNL     1       0.390  10.401  18.330  0.00  0.00    +0.000 A 
ATOM      2  C   UNL     1      -0.775   9.791  17.836  0.00  0.00    +0.000 A 
ATOM      3  C   UNL     1      -2.028  10.355  17.995  0.00  0.00    +0.000 A 
ATOM      4  N   UNL     1      -3.077   9.732  17.438  0.00  0.00    +0.000 NA
ATOM      5  N   UNL     1      -4.324  10.240  17.562  0.00  0.00    +0.000 NA
ATOM      6  C   UNL     1      -4.511  11.370  18.290  0.00  0.00    +0.000 A 
ATOM      7  C   UNL     1      -3.467  12.066  18.920  0.00  0.00    +0.000 A 
ATOM      8  C   UNL     1      -2.163  11.535  18.735  0.00  0.00    +0.000 A 
ATOM      9  C   UNL     1      -0.981  12.118  19.258  0.00  0.00    +0.000 A 
ATOM     10  C   UNL     1       0.316  11.643  18.996  0.00  0.00    +0.000 A 
ENDROOT
BRANCH  10  11
ATOM     11  N   UNL     1       1.407  12.426  19.372  0.00  0.00    +0.000 N 
ATOM     12  C   UNL     1       2.363  12.928  18.387  0.00  0.00    +0.000 C 
ATOM     13  C   UNL     1       2.204  14.415  18.094  0.00  0.00    +0.000 C 
ATOM     14  C   UNL     1       2.281  15.447  19.222  0.00  0.00    +0.000 C 
ATOM     15  N   UNL     1       2.677  15.071  20.576  0.00  0.00    +0.000 NA
ATOM     16  C   UNL     1       1.692  14.155  21.187  0.00  0.00    +0.000 C 
ATOM     17  C   UNL     1       1.722  12.660  20.791  0.00  0.00    +0.000 C 
BRANCH  15  18
ATOM     18  C   UNL     1       4.071  14.628  20.745  0.00  0.00    +0.000 C 
BRANCH  18  19
ATOM     19  C   UNL     1       4.561  14.657  22.201  0.00  0.00    +0.000 C 
BRANCH  19  20
ATOM     20  O   UNL     1       4.798  13.336  22.675  0.00  0.00    +0.000 OA
ATOM     21  H   UNL     1       3.951  12.866  22.555  0.00  0.00    +0.000 HD
ENDBRANCH  19  20
ENDBRANCH  18  19
ENDBRANCH  15  18
ENDBRANCH  10  11
BRANCH   6  22
ATOM     22  C   UNL     1      -5.933  11.806  18.356  0.00  0.00    +0.000 C 
ATOM     23  N   UNL     1      -6.877  10.805  18.441  0.00  0.00    +0.000 N 
ATOM     24  O   UNL     1      -6.255  12.989  18.350  0.00  0.00    +0.000 OA
ATOM     25  H   UNL     1      -6.592   9.830  18.469  0.00  0.00    +0.000 HD
ATOM     26  H   UNL     1      -7.849  11.042  18.501  0.00  0.00    +0.000 HD
ENDBRANCH   6  22
BRANCH   1  28
ATOM     27  C   UNL     1       1.824   8.529  18.773  0.00  0.00    +0.000 C 
ATOM     28  O   UNL     1       1.624   9.813  18.198  0.00  0.00    +0.000 OA
ENDBRANCH   1  28
BRANCH   7  29
ATOM     29  N   UNL     1      -3.703  13.254  19.665  0.00  0.00    +0.000 N 
ATOM     30  H   UNL     1      -3.549  14.102  19.108  0.00  0.00    +0.000 HD
BRANCH  29  31
ATOM     31  C   UNL     1      -3.604  13.514  21.056  0.00  0.00    +0.000 A 
ATOM     32  C   UNL     1      -2.609  14.409  21.481  0.00  0.00    +0.000 A 
ATOM     33  C   UNL     1      -2.489  14.782  22.828  0.00  0.00    +0.000 A 
ATOM     34  C   UNL     1      -3.361  14.264  23.789  0.00  0.00    +0.000 A 
ATOM     35  C   UNL     1      -3.206  14.602  25.243  0.00  0.00    +0.000 C 
ATOM     36  C   UNL     1      -4.385  13.410  23.374  0.00  0.00    +0.000 A 
ATOM     37  C   UNL     1      -4.493  13.034  22.031  0.00  0.00    +0.000 A 
ATOM     38  F   UNL     1      -5.476  12.182  21.705  0.00  0.00    +0.000 F 
ENDBRANCH  29  31
ENDBRANCH   7  29
TORSDOF 8
ENDMDL
MODEL 9
REMARK VINA RESULT:      -6.3      2.991      6.242
REMARK  Name = 
REMARK  10 active torsions:
REMARK  status: ('A' for Active; 'I' for Inactive)
REMARK    1  A    between atoms: C_1  and  O_2
REMARK    2  A    between atoms: O_2  and  C_3
REMARK    3  A    between atoms: C_8  and  C_9
REMARK    4  A    between atoms: C_12  and  N_13
REMARK    5  A    between atoms: N_13  and  C_14
REMARK    6  A    between atoms: C_17  and  C_18
REMARK    7  A    between atoms: C_24  and  N_25
REMARK    8  A    between atoms: N_29  and  C_30
REMARK    9  A    between atoms: C_30  and  C_31
REMARK   10  A    between atoms: C_31  and  O_32
REMARK                            x       y       z     vdW  Elec       q    Type
REMARK                         _______ _______ _______ _____ _____    ______ ____
ROOT
ATOM      1  C   UNL     1      -5.368  12.854  19.857  0.00  0.00    +0.000 A 
ATOM      2  C   UNL     1      -5.686  13.517  21.053  0.00  0.00    +0.000 A 
ATOM      3  C   UNL     1      -4.730  13.828  22.003  0.00  0.00    +0.000 A 
ATOM      4  N   UNL     1      -5.116  14.516  23.088  0.00  0.00    +0.000 NA
ATOM      5  N   UNL     1      -4.222  14.846  24.047  0.00  0.00    +0.000 NA
ATOM      6  C   UNL     1      -2.932  14.443  23.919  0.00  0.00    +0.000 A 
ATOM      7  C   UNL     1      -2.458  13.703  22.826  0.00  0.00    +0.000 A 
ATOM      8  C   UNL     1      -3.408  13.409  21.812  0.00  0.00    +0.000 A 
ATOM      9  C   UNL     1      -3.111  12.709  20.615  0.00  0.00    +0.000 A 
ATOM     10  C   UNL     1      -4.031  12.500  19.574  0.00  0.00    +0.000 A 
ENDROOT
BRANCH  10  11
ATOM     11  N   UNL     1      -3.566  12.005  18.355  0.00  0.00    +0.000 N 
ATOM     12  C   UNL     1      -2.159  12.103  17.977  0.00  0.00    +0.000 C 
ATOM     13  C   UNL     1      -1.412  10.779  18.077  0.00  0.00    +0.000 C 
ATOM     14  C   UNL     1      -1.899   9.546  17.313  0.00  0.00    +0.000 C 
ATOM     15  N   UNL     1      -2.981   9.631  16.335  0.00  0.00    +0.000 NA
ATOM     16  C   UNL     1      -4.256  10.006  16.980  0.00  0.00    +0.000 C 
ATOM     17  C   UNL     1      -4.499  11.490  17.340  0.00  0.00    +0.000 C 
BRANCH  15  18
ATOM     18  C   UNL     1      -2.692  10.402  15.115  0.00  0.00    +0.000 C 
BRANCH  18  19
ATOM     19  C   UNL     1      -3.593  10.039  13.923  0.00  0.00    +0.000 C 
BRANCH  19  20
ATOM     20  O   UNL     1      -2.805   9.743  12.774  0.00  0.00    +0.000 OA
ATOM     21  H   UNL     1      -1.992  10.273  12.879  0.00  0.00    +0.000 HD
ENDBRANCH  19  20
ENDBRANCH  18  19
ENDBRANCH  15  18
ENDBRANCH  10  11
BRANCH   6  22
ATOM     22  C   UNL     1      -2.064  14.862  25.054  0.00  0.00    +0.000 C 
ATOM     23  N   UNL     1      -2.670  14.954  26.289  0.00  0.00    +0.000 N 
ATOM     24  O   UNL     1      -0.870  15.101  24.910  0.00  0.00    +0.000 OA
ATOM     25  H   UNL     1      -3.656  14.730  26.396  0.00  0.00    +0.000 HD
ATOM     26  H   UNL     1      -2.130  15.220  27.090  0.00  0.00    +0.000 HD
ENDBRANCH   6  22
BRANCH   1  28
ATOM     27  C   UNL     1      -7.553  11.968  19.414  0.00  0.00    +0.000 C 
ATOM     28  O   UNL     1      -6.332  12.518  18.938  0.00  0.00    +0.000 OA
ENDBRANCH   1  28
BRANCH   7  29
ATOM     29  N   UNL     1      -1.095  13.309  22.724  0.00  0.00    +0.000 N 
ATOM     30  H   UNL     1      -0.474  14.099  22.518  0.00  0.00    +0.000 HD
BRANCH  29  31
ATOM     31  C   UNL     1      -0.511  12.070  22.352  0.00  0.00    +0.000 A 
ATOM     32  C   UNL     1      -0.913  10.925  23.057  0.00  0.00    +0.000 A 
ATOM     33  C   UNL     1      -0.445   9.650  22.708  0.00  0.00    +0.000 A 
ATOM     34  C   UNL     1       0.446   9.488  21.642  0.00  0.00    +0.000 A 
ATOM     35  C   UNL     1       1.007   8.140  21.296  0.00  0.00    +0.000 C 
ATOM     36  C   UNL     1       0.817  10.612  20.902  0.00  0.00    +0.000 A 
ATOM     37  C   UNL     1       0.354  11.882  21.263  0.00  0.00    +0.000 A 
ATOM     38  F   UNL     1       0.777  12.925  20.534  0.00  0.00    +0.000 F 
ENDBRANCH  29  31
ENDBRANCH   7  29
TORSDOF 8
ENDMDL
