MODEL 1
REMARK VINA RESULT:      -7.1      0.000      0.000
REMARK  Name = 
REMARK  6 active torsions:
REMARK  status: ('A' for Active; 'I' for Inactive)
REMARK    1  A    between atoms: C_2  and  O_3
REMARK    2  A    between atoms: C_2  and  C_4
REMARK    3  A    between atoms: C_7  and  C_8
REMARK    4  A    between atoms: C_8  and  N_9
REMARK    5  A    between atoms: N_9  and  C_10
REMARK    6  A    between atoms: C_10  and  C_11
REMARK                            x       y       z     vdW  Elec       q    Type
REMARK                         _______ _______ _______ _____ _____    ______ ____
ROOT
ATOM      1  C   UNL     1       2.564   3.398  19.832  0.00  0.00    +0.000 A 
ATOM      2  C   UNL     1       3.384   2.451  19.209  0.00  0.00    +0.000 A 
ATOM      3  C   UNL     1       4.023   2.765  18.008  0.00  0.00    +0.000 A 
ATOM      4  C   UNL     1       3.855   4.028  17.416  0.00  0.00    +0.000 A 
ATOM      5  C   UNL     1       3.050   4.977  18.059  0.00  0.00    +0.000 A 
ATOM      6  C   UNL     1       2.416   4.670  19.266  0.00  0.00    +0.000 A 
ENDROOT
BRANCH   1   8
ATOM      7  O   UNL     1       2.515   2.829  22.143  0.00  0.00    +0.000 OA
ATOM      8  C   UNL     1       1.904   3.026  21.107  0.00  0.00    +0.000 C 
BRANCH   8   9
ATOM      9  O   UNL     1       0.565   2.884  21.001  0.00  0.00    +0.000 OA
ATOM     10  H   UNL     1       0.164   3.348  20.243  0.00  0.00    +0.000 HD
ENDBRANCH   8   9
ENDBRANCH   1   8
BRANCH   4  11
ATOM     11  C   UNL     1       4.551   4.359  16.114  0.00  0.00    +0.000 C 
BRANCH  11  12
ATOM     12  N   UNL     1       5.720   3.505  15.926  0.00  0.00    +0.000 NA
ATOM     13  H   UNL     1       5.538   2.856  15.162  0.00  0.00    +0.000 HD
BRANCH  12  14
ATOM     14  C   UNL     1       6.905   4.299  15.575  0.00  0.00    +0.000 C 
BRANCH  14  15
ATOM     15  C   UNL     1       7.298   5.253  16.686  0.00  0.00    +0.000 A 
ATOM     16  C   UNL     1       7.588   4.762  17.960  0.00  0.00    +0.000 A 
ATOM     17  C   UNL     1       7.938   5.657  18.965  0.00  0.00    +0.000 A 
ATOM     18  C   UNL     1       7.991   7.015  18.677  0.00  0.00    +0.000 A 
ATOM     19  C   UNL     1       7.694   7.422  17.387  0.00  0.00    +0.000 A 
ATOM     20  N   UNL     1       7.353   6.576  16.388  0.00  0.00    +0.000 NA
ENDBRANCH  14  15
ENDBRANCH  12  14
ENDBRANCH  11  12
ENDBRANCH   4  11
TORSDOF 6
ENDMDL
MODEL 2
REMARK VINA RESULT:      -6.9      3.614      6.009
REMARK  Name = 
REMARK  6 active torsions:
REMARK  status: ('A' for Active; 'I' for Inactive)
REMARK    1  A    between atoms: C_2  and  O_3
REMARK    2  A    between atoms: C_2  and  C_4
REMARK    3  A    between atoms: C_7  and  C_8
REMARK    4  A    between atoms: C_8  and  N_9
REMARK    5  A    between atoms: N_9  and  C_10
REMARK    6  A    between atoms: C_10  and  C_11
REMARK                            x       y       z     vdW  Elec       q    Type
REMARK                         _______ _______ _______ _____ _____    ______ ____
ROOT
ATOM      1  C   UNL     1       6.017   5.445  17.289  0.00  0.00    +0.000 A 
ATOM      2  C   UNL     1       6.029   5.326  18.683  0.00  0.00    +0.000 A 
ATOM      3  C   UNL     1       4.906   5.698  19.423  0.00  0.00    +0.000 A 
ATOM      4  C   UNL     1       3.757   6.192  18.784  0.00  0.00    +0.000 A 
ATOM      5  C   UNL     1       3.746   6.287  17.386  0.00  0.00    +0.000 A 
ATOM      6  C   UNL     1       4.865   5.906  16.640  0.00  0.00    +0.000 A 
ENDROOT
BRANCH   1   8
ATOM      7  O   UNL     1       7.488   5.441  15.417  0.00  0.00    +0.000 OA
ATOM      8  C   UNL     1       7.229   5.037  16.538  0.00  0.00    +0.000 C 
BRANCH   8   9
ATOM      9  O   UNL     1       7.998   4.142  17.197  0.00  0.00    +0.000 OA
ATOM     10  H   UNL     1       7.695   3.931  18.099  0.00  0.00    +0.000 HD
ENDBRANCH   8   9
ENDBRANCH   1   8
BRANCH   4  11
ATOM     11  C   UNL     1       2.545   6.595  19.595  0.00  0.00    +0.000 C 
BRANCH  11  12
ATOM     12  N   UNL     1       2.374   5.703  20.739  0.00  0.00    +0.000 NA
ATOM     13  H   UNL     1       1.950   6.224  21.506  0.00  0.00    +0.000 HD
BRANCH  12  14
ATOM     14  C   UNL     1       1.488   4.580  20.407  0.00  0.00    +0.000 C 
BRANCH  14  15
ATOM     15  C   UNL     1       2.207   3.504  19.617  0.00  0.00    +0.000 A 
ATOM     16  C   UNL     1       1.790   3.188  18.323  0.00  0.00    +0.000 A 
ATOM     17  C   UNL     1       2.460   2.192  17.622  0.00  0.00    +0.000 A 
ATOM     18  C   UNL     1       3.526   1.536  18.225  0.00  0.00    +0.000 A 
ATOM     19  C   UNL     1       3.881   1.911  19.510  0.00  0.00    +0.000 A 
ATOM     20  N   UNL     1       3.251   2.878  20.216  0.00  0.00    +0.000 NA
ENDBRANCH  14  15
ENDBRANCH  12  14
ENDBRANCH  11  12
ENDBRANCH   4  11
TORSDOF 6
ENDMDL
MODEL 3
REMARK VINA RESULT:      -6.9      0.861      1.244
REMARK  Name = 
REMARK  6 active torsions:
REMARK  status: ('A' for Active; 'I' for Inactive)
REMARK    1  A    between atoms: C_2  and  O_3
REMARK    2  A    between atoms: C_2  and  C_4
REMARK    3  A    between atoms: C_7  and  C_8
REMARK    4  A    between atoms: C_8  and  N_9
REMARK    5  A    between atoms: N_9  and  C_10
REMARK    6  A    between atoms: C_10  and  C_11
REMARK                            x       y       z     vdW  Elec       q    Type
REMARK                         _______ _______ _______ _____ _____    ______ ____
ROOT
ATOM      1  C   UNL     1       2.634   3.211  19.856  0.00  0.00    +0.000 A 
ATOM      2  C   UNL     1       2.532   2.296  18.803  0.00  0.00    +0.000 A 
ATOM      3  C   UNL     1       3.155   2.564  17.583  0.00  0.00    +0.000 A 
ATOM      4  C   UNL     1       3.889   3.748  17.398  0.00  0.00    +0.000 A 
ATOM      5  C   UNL     1       4.005   4.648  18.466  0.00  0.00    +0.000 A 
ATOM      6  C   UNL     1       3.390   4.379  19.692  0.00  0.00    +0.000 A 
ENDROOT
BRANCH   1   8
ATOM      7  O   UNL     1       2.564   2.639  22.166  0.00  0.00    +0.000 OA
ATOM      8  C   UNL     1       1.959   2.889  21.137  0.00  0.00    +0.000 C 
BRANCH   8   9
ATOM      9  O   UNL     1       0.612   2.855  21.045  0.00  0.00    +0.000 OA
ATOM     10  H   UNL     1       0.230   3.506  20.428  0.00  0.00    +0.000 HD
ENDBRANCH   8   9
ENDBRANCH   1   8
BRANCH   4  11
ATOM     11  C   UNL     1       4.560   4.031  16.072  0.00  0.00    +0.000 C 
BRANCH  11  12
ATOM     12  N   UNL     1       5.847   3.345  15.992  0.00  0.00    +0.000 NA
ATOM     13  H   UNL     1       5.801   2.637  15.261  0.00  0.00    +0.000 HD
BRANCH  12  14
ATOM     14  C   UNL     1       6.925   4.282  15.650  0.00  0.00    +0.000 C 
BRANCH  14  15
ATOM     15  C   UNL     1       7.301   5.167  16.823  0.00  0.00    +0.000 A 
ATOM     16  C   UNL     1       7.263   6.555  16.693  0.00  0.00    +0.000 A 
ATOM     17  C   UNL     1       7.620   7.346  17.780  0.00  0.00    +0.000 A 
ATOM     18  C   UNL     1       8.007   6.734  18.966  0.00  0.00    +0.000 A 
ATOM     19  C   UNL     1       8.013   5.351  19.016  0.00  0.00    +0.000 A 
ATOM     20  N   UNL     1       7.669   4.555  17.977  0.00  0.00    +0.000 NA
ENDBRANCH  14  15
ENDBRANCH  12  14
ENDBRANCH  11  12
ENDBRANCH   4  11
TORSDOF 6
ENDMDL
MODEL 4
REMARK VINA RESULT:      -6.9      3.633      6.060
REMARK  Name = 
REMARK  6 active torsions:
REMARK  status: ('A' for Active; 'I' for Inactive)
REMARK    1  A    between atoms: C_2  and  O_3
REMARK    2  A    between atoms: C_2  and  C_4
REMARK    3  A    between atoms: C_7  and  C_8
REMARK    4  A    between atoms: C_8  and  N_9
REMARK    5  A    between atoms: N_9  and  C_10
REMARK    6  A    between atoms: C_10  and  C_11
REMARK                            x       y       z     vdW  Elec       q    Type
REMARK                         _______ _______ _______ _____ _____    ______ ____
ROOT
ATOM      1  C   UNL     1       6.015   5.421  17.318  0.00  0.00    +0.000 A 
ATOM      2  C   UNL     1       4.894   5.934  16.656  0.00  0.00    +0.000 A 
ATOM      3  C   UNL     1       3.765   6.309  17.386  0.00  0.00    +0.000 A 
ATOM      4  C   UNL     1       3.740   6.178  18.784  0.00  0.00    +0.000 A 
ATOM      5  C   UNL     1       4.875   5.685  19.440  0.00  0.00    +0.000 A 
ATOM      6  C   UNL     1       6.012   5.317  18.714  0.00  0.00    +0.000 A 
ENDROOT
BRANCH   1   8
ATOM      7  O   UNL     1       7.398   5.456  15.380  0.00  0.00    +0.000 OA
ATOM      8  C   UNL     1       7.195   5.035  16.506  0.00  0.00    +0.000 C 
BRANCH   8   9
ATOM      9  O   UNL     1       8.003   4.141  17.117  0.00  0.00    +0.000 OA
ATOM     10  H   UNL     1       8.585   3.641  16.516  0.00  0.00    +0.000 HD
ENDBRANCH   8   9
ENDBRANCH   1   8
BRANCH   4  11
ATOM     11  C   UNL     1       2.511   6.586  19.567  0.00  0.00    +0.000 C 
BRANCH  11  12
ATOM     12  N   UNL     1       2.334   5.721  20.730  0.00  0.00    +0.000 NA
ATOM     13  H   UNL     1       1.900   6.257  21.481  0.00  0.00    +0.000 HD
BRANCH  12  14
ATOM     14  C   UNL     1       1.457   4.585  20.417  0.00  0.00    +0.000 C 
BRANCH  14  15
ATOM     15  C   UNL     1       2.181   3.510  19.628  0.00  0.00    +0.000 A 
ATOM     16  C   UNL     1       1.774   3.201  18.330  0.00  0.00    +0.000 A 
ATOM     17  C   UNL     1       2.447   2.207  17.630  0.00  0.00    +0.000 A 
ATOM     18  C   UNL     1       3.507   1.546  18.240  0.00  0.00    +0.000 A 
ATOM     19  C   UNL     1       3.852   1.914  19.528  0.00  0.00    +0.000 A 
ATOM     20  N   UNL     1       3.218   2.879  20.234  0.00  0.00    +0.000 NA
ENDBRANCH  14  15
ENDBRANCH  12  14
ENDBRANCH  11  12
ENDBRANCH   4  11
TORSDOF 6
ENDMDL
MODEL 5
REMARK VINA RESULT:      -6.8      1.996      3.425
REMARK  Name = 
REMARK  6 active torsions:
REMARK  status: ('A' for Active; 'I' for Inactive)
REMARK    1  A    between atoms: C_2  and  O_3
REMARK    2  A    between atoms: C_2  and  C_4
REMARK    3  A    between atoms: C_7  and  C_8
REMARK    4  A    between atoms: C_8  and  N_9
REMARK    5  A    between atoms: N_9  and  C_10
REMARK    6  A    between atoms: C_10  and  C_11
REMARK                            x       y       z     vdW  Elec       q    Type
REMARK                         _______ _______ _______ _____ _____    ______ ____
ROOT
ATOM      1  C   UNL     1       2.086   3.745  19.107  0.00  0.00    +0.000 A 
ATOM      2  C   UNL     1       2.493   3.727  17.769  0.00  0.00    +0.000 A 
ATOM      3  C   UNL     1       3.569   4.515  17.358  0.00  0.00    +0.000 A 
ATOM      4  C   UNL     1       4.253   5.329  18.276  0.00  0.00    +0.000 A 
ATOM      5  C   UNL     1       3.853   5.323  19.618  0.00  0.00    +0.000 A 
ATOM      6  C   UNL     1       2.782   4.528  20.036  0.00  0.00    +0.000 A 
ENDROOT
BRANCH   1   8
ATOM      7  O   UNL     1       0.299   2.222  18.713  0.00  0.00    +0.000 OA
ATOM      8  C   UNL     1       0.939   2.892  19.505  0.00  0.00    +0.000 C 
BRANCH   8   9
ATOM      9  O   UNL     1       0.645   2.961  20.822  0.00  0.00    +0.000 OA
ATOM     10  H   UNL     1       0.404   3.851  21.139  0.00  0.00    +0.000 HD
ENDBRANCH   8   9
ENDBRANCH   1   8
BRANCH   4  11
ATOM     11  C   UNL     1       5.418   6.181  17.821  0.00  0.00    +0.000 C 
BRANCH  11  12
ATOM     12  N   UNL     1       5.611   6.058  16.378  0.00  0.00    +0.000 NA
ATOM     13  H   UNL     1       5.719   6.989  15.977  0.00  0.00    +0.000 HD
BRANCH  12  14
ATOM     14  C   UNL     1       6.822   5.287  16.070  0.00  0.00    +0.000 C 
BRANCH  14  15
ATOM     15  C   UNL     1       6.872   4.868  14.613  0.00  0.00    +0.000 A 
ATOM     16  C   UNL     1       6.006   3.882  14.138  0.00  0.00    +0.000 A 
ATOM     17  C   UNL     1       6.076   3.509  12.800  0.00  0.00    +0.000 A 
ATOM     18  C   UNL     1       7.005   4.125  11.971  0.00  0.00    +0.000 A 
ATOM     19  C   UNL     1       7.825   5.098  12.518  0.00  0.00    +0.000 A 
ATOM     20  N   UNL     1       7.778   5.484  13.814  0.00  0.00    +0.000 NA
ENDBRANCH  14  15
ENDBRANCH  12  14
ENDBRANCH  11  12
ENDBRANCH   4  11
TORSDOF 6
ENDMDL
MODEL 6
REMARK VINA RESULT:      -6.7      3.563      5.889
REMARK  Name = 
REMARK  6 active torsions:
REMARK  status: ('A' for Active; 'I' for Inactive)
REMARK    1  A    between atoms: C_2  and  O_3
REMARK    2  A    between atoms: C_2  and  C_4
REMARK    3  A    between atoms: C_7  and  C_8
REMARK    4  A    between atoms: C_8  and  N_9
REMARK    5  A    between atoms: N_9  and  C_10
REMARK    6  A    between atoms: C_10  and  C_11
REMARK                            x       y       z     vdW  Elec       q    Type
REMARK                         _______ _______ _______ _____ _____    ______ ____
ROOT
ATOM      1  C   UNL     1       6.087   5.131  17.442  0.00  0.00    +0.000 A 
ATOM      2  C   UNL     1       6.069   5.195  18.840  0.00  0.00    +0.000 A 
ATOM      3  C   UNL     1       4.927   5.653  19.501  0.00  0.00    +0.000 A 
ATOM      4  C   UNL     1       3.791   6.052  18.777  0.00  0.00    +0.000 A 
ATOM      5  C   UNL     1       3.812   5.963  17.379  0.00  0.00    +0.000 A 
ATOM      6  C   UNL     1       4.949   5.496  16.713  0.00  0.00    +0.000 A 
ENDROOT
BRANCH   1   8
ATOM      7  O   UNL     1       7.506   4.716  15.576  0.00  0.00    +0.000 OA
ATOM      8  C   UNL     1       7.318   4.637  16.778  0.00  0.00    +0.000 C 
BRANCH   8   9
ATOM      9  O   UNL     1       8.193   4.053  17.625  0.00  0.00    +0.000 OA
ATOM     10  H   UNL     1       8.483   3.161  17.360  0.00  0.00    +0.000 HD
ENDBRANCH   8   9
ENDBRANCH   1   8
BRANCH   4  11
ATOM     11  C   UNL     1       2.559   6.548  19.501  0.00  0.00    +0.000 C 
BRANCH  11  12
ATOM     12  N   UNL     1       2.307   5.743  20.694  0.00  0.00    +0.000 NA
ATOM     13  H   UNL     1       1.841   6.321  21.392  0.00  0.00    +0.000 HD
BRANCH  12  14
ATOM     14  C   UNL     1       1.431   4.605  20.388  0.00  0.00    +0.000 C 
BRANCH  14  15
ATOM     15  C   UNL     1       2.165   3.511  19.635  0.00  0.00    +0.000 A 
ATOM     16  C   UNL     1       3.254   2.867  20.222  0.00  0.00    +0.000 A 
ATOM     17  C   UNL     1       3.916   1.873  19.508  0.00  0.00    +0.000 A 
ATOM     18  C   UNL     1       3.476   1.548  18.231  0.00  0.00    +0.000 A 
ATOM     19  C   UNL     1       2.385   2.230  17.722  0.00  0.00    +0.000 A 
ATOM     20  N   UNL     1       1.719   3.199  18.392  0.00  0.00    +0.000 NA
ENDBRANCH  14  15
ENDBRANCH  12  14
ENDBRANCH  11  12
ENDBRANCH   4  11
TORSDOF 6
ENDMDL
MODEL 7
REMARK VINA RESULT:      -6.7      4.054      6.760
REMARK  Name = 
REMARK  6 active torsions:
REMARK  status: ('A' for Active; 'I' for Inactive)
REMARK    1  A    between atoms: C_2  and  O_3
REMARK    2  A    between atoms: C_2  and  C_4
REMARK    3  A    between atoms: C_7  and  C_8
REMARK    4  A    between atoms: C_8  and  N_9
REMARK    5  A    between atoms: N_9  and  C_10
REMARK    6  A    between atoms: C_10  and  C_11
REMARK                            x       y       z     vdW  Elec       q    Type
REMARK                         _______ _______ _______ _____ _____    ______ ____
ROOT
ATOM      1  C   UNL     1       6.677   4.676  15.023  0.00  0.00    +0.000 A 
ATOM      2  C   UNL     1       7.466   4.989  16.134  0.00  0.00    +0.000 A 
ATOM      3  C   UNL     1       6.959   4.807  17.422  0.00  0.00    +0.000 A 
ATOM      4  C   UNL     1       5.660   4.310  17.618  0.00  0.00    +0.000 A 
ATOM      5  C   UNL     1       4.885   3.978  16.499  0.00  0.00    +0.000 A 
ATOM      6  C   UNL     1       5.392   4.150  15.207  0.00  0.00    +0.000 A 
ENDROOT
BRANCH   1   8
ATOM      7  O   UNL     1       8.111   5.713  13.431  0.00  0.00    +0.000 OA
ATOM      8  C   UNL     1       7.252   4.882  13.671  0.00  0.00    +0.000 C 
BRANCH   8   9
ATOM      9  O   UNL     1       6.704   4.090  12.724  0.00  0.00    +0.000 OA
ATOM     10  H   UNL     1       5.924   4.469  12.277  0.00  0.00    +0.000 HD
ENDBRANCH   8   9
ENDBRANCH   1   8
BRANCH   4  11
ATOM     11  C   UNL     1       5.119   4.117  19.017  0.00  0.00    +0.000 C 
BRANCH  11  12
ATOM     12  N   UNL     1       5.280   2.729  19.442  0.00  0.00    +0.000 NA
ATOM     13  H   UNL     1       6.223   2.601  19.809  0.00  0.00    +0.000 HD
BRANCH  12  14
ATOM     14  C   UNL     1       4.328   2.388  20.507  0.00  0.00    +0.000 C 
BRANCH  14  15
ATOM     15  C   UNL     1       2.894   2.663  20.095  0.00  0.00    +0.000 A 
ATOM     16  C   UNL     1       2.123   3.578  20.813  0.00  0.00    +0.000 A 
ATOM     17  C   UNL     1       0.809   3.808  20.422  0.00  0.00    +0.000 A 
ATOM     18  C   UNL     1       0.296   3.121  19.328  0.00  0.00    +0.000 A 
ATOM     19  C   UNL     1       1.127   2.233  18.666  0.00  0.00    +0.000 A 
ATOM     20  N   UNL     1       2.410   1.991  19.021  0.00  0.00    +0.000 NA
ENDBRANCH  14  15
ENDBRANCH  12  14
ENDBRANCH  11  12
ENDBRANCH   4  11
TORSDOF 6
ENDMDL
MODEL 8
REMARK VINA RESULT:      -6.6      4.076      6.738
REMARK  Name = 
REMARK  6 active torsions:
REMARK  status: ('A' for Active; 'I' for Inactive)
REMARK    1  A    between atoms: C_2  and  O_3
REMARK    2  A    between atoms: C_2  and  C_4
REMARK    3  A    between atoms: C_7  and  C_8
REMARK    4  A    between atoms: C_8  and  N_9
REMARK    5  A    between atoms: N_9  and  C_10
REMARK    6  A    between atoms: C_10  and  C_11
REMARK                            x       y       z     vdW  Elec       q    Type
REMARK                         _______ _______ _______ _____ _____    ______ ____
ROOT
ATOM      1  C   UNL     1       6.632   4.636  14.903  0.00  0.00    +0.000 A 
ATOM      2  C   UNL     1       5.273   4.346  15.060  0.00  0.00    +0.000 A 
ATOM      3  C   UNL     1       4.723   4.256  16.340  0.00  0.00    +0.000 A 
ATOM      4  C   UNL     1       5.521   4.455  17.479  0.00  0.00    +0.000 A 
ATOM      5  C   UNL     1       6.876   4.768  17.311  0.00  0.00    +0.000 A 
ATOM      6  C   UNL     1       7.429   4.868  16.031  0.00  0.00    +0.000 A 
ENDROOT
BRANCH   1   8
ATOM      7  O   UNL     1       6.794   4.019  12.609  0.00  0.00    +0.000 OA
ATOM      8  C   UNL     1       7.178   4.724  13.527  0.00  0.00    +0.000 C 
BRANCH   8   9
ATOM      9  O   UNL     1       8.171   5.631  13.396  0.00  0.00    +0.000 OA
ATOM     10  H   UNL     1       8.108   6.394  14.001  0.00  0.00    +0.000 HD
ENDBRANCH   8   9
ENDBRANCH   1   8
BRANCH   4  11
ATOM     11  C   UNL     1       4.917   4.355  18.862  0.00  0.00    +0.000 C 
BRANCH  11  12
ATOM     12  N   UNL     1       5.382   3.147  19.538  0.00  0.00    +0.000 NA
ATOM     13  H   UNL     1       5.440   3.328  20.540  0.00  0.00    +0.000 HD
BRANCH  12  14
ATOM     14  C   UNL     1       4.450   2.032  19.331  0.00  0.00    +0.000 C 
BRANCH  14  15
ATOM     15  C   UNL     1       3.018   2.424  19.641  0.00  0.00    +0.000 A 
ATOM     16  C   UNL     1       2.659   2.795  20.937  0.00  0.00    +0.000 A 
ATOM     17  C   UNL     1       1.338   3.143  21.199  0.00  0.00    +0.000 A 
ATOM     18  C   UNL     1       0.410   3.112  20.164  0.00  0.00    +0.000 A 
ATOM     19  C   UNL     1       0.847   2.739  18.905  0.00  0.00    +0.000 A 
ATOM     20  N   UNL     1       2.125   2.398  18.619  0.00  0.00    +0.000 NA
ENDBRANCH  14  15
ENDBRANCH  12  14
ENDBRANCH  11  12
ENDBRANCH   4  11
TORSDOF 6
ENDMDL
MODEL 9
REMARK VINA RESULT:      -6.6      4.069      6.693
REMARK  Name = 
REMARK  6 active torsions:
REMARK  status: ('A' for Active; 'I' for Inactive)
REMARK    1  A    between atoms: C_2  and  O_3
REMARK    2  A    between atoms: C_2  and  C_4
REMARK    3  A    between atoms: C_7  and  C_8
REMARK    4  A    between atoms: C_8  and  N_9
REMARK    5  A    between atoms: N_9  and  C_10
REMARK    6  A    between atoms: C_10  and  C_11
REMARK                            x       y       z     vdW  Elec       q    Type
REMARK                         _______ _______ _______ _____ _____    ______ ____
ROOT
ATOM      1  C   UNL     1       6.587   4.637  15.177  0.00  0.00    +0.000 A 
ATOM      2  C   UNL     1       7.422   4.839  16.281  0.00  0.00    +0.000 A 
ATOM      3  C   UNL     1       6.926   4.654  17.573  0.00  0.00    +0.000 A 
ATOM      4  C   UNL     1       5.592   4.265  17.779  0.00  0.00    +0.000 A 
ATOM      5  C   UNL     1       4.770   4.043  16.666  0.00  0.00    +0.000 A 
ATOM      6  C   UNL     1       5.266   4.217  15.370  0.00  0.00    +0.000 A 
ENDROOT
BRANCH   1   8
ATOM      7  O   UNL     1       7.998   5.685  13.570  0.00  0.00    +0.000 OA
ATOM      8  C   UNL     1       7.153   4.842  13.821  0.00  0.00    +0.000 C 
BRANCH   8   9
ATOM      9  O   UNL     1       6.613   4.035  12.882  0.00  0.00    +0.000 OA
ATOM     10  H   UNL     1       6.668   3.082  13.083  0.00  0.00    +0.000 HD
ENDBRANCH   8   9
ENDBRANCH   1   8
BRANCH   4  11
ATOM     11  C   UNL     1       5.062   4.068  19.182  0.00  0.00    +0.000 C 
BRANCH  11  12
ATOM     12  N   UNL     1       5.254   2.686  19.614  0.00  0.00    +0.000 NA
ATOM     13  H   UNL     1       6.177   2.596  20.038  0.00  0.00    +0.000 HD
BRANCH  12  14
ATOM     14  C   UNL     1       4.254   2.301  20.617  0.00  0.00    +0.000 C 
BRANCH  14  15
ATOM     15  C   UNL     1       2.846   2.658  20.180  0.00  0.00    +0.000 A 
ATOM     16  C   UNL     1       2.267   2.011  19.088  0.00  0.00    +0.000 A 
ATOM     17  C   UNL     1       0.978   2.361  18.701  0.00  0.00    +0.000 A 
ATOM     18  C   UNL     1       0.300   3.345  19.411  0.00  0.00    +0.000 A 
ATOM     19  C   UNL     1       0.942   3.935  20.486  0.00  0.00    +0.000 A 
ATOM     20  N   UNL     1       2.193   3.614  20.888  0.00  0.00    +0.000 NA
ENDBRANCH  14  15
ENDBRANCH  12  14
ENDBRANCH  11  12
ENDBRANCH   4  11
TORSDOF 6
ENDMDL
