MODEL 1
REMARK VINA RESULT:      -6.7      0.000      0.000
REMARK  Name = 
REMARK  10 active torsions:
REMARK  status: ('A' for Active; 'I' for Inactive)
REMARK    1  A    between atoms: C_1  and  C_2
REMARK    2  A    between atoms: C_2  and  C_3
REMARK    3  A    between atoms: C_2  and  N_17
REMARK    4  A    between atoms: C_3  and  C_4
REMARK    5  A    between atoms: C_6  and  C_7
REMARK    6  A    between atoms: C_7  and  C_8
REMARK    7  A    between atoms: N_12  and  C_13
REMARK    8  A    between atoms: C_13  and  C_14
REMARK    9  A    between atoms: C_13  and  C_15
REMARK   10  A    between atoms: C_13  and  C_16
REMARK                            x       y       z     vdW  Elec       q    Type
REMARK                         _______ _______ _______ _____ _____    ______ ____
ROOT
ATOM      1  C   UNL     1       3.329   5.269  19.572  0.00  0.00    +0.000 A 
ATOM      2  N   UNL     1       3.069   6.562  19.688  0.00  0.00    +0.000 NA
ATOM      3  C   UNL     1       1.892   6.604  20.397  0.00  0.00    +0.000 A 
ATOM      4  N   UNL     1       1.412   5.401  20.710  0.00  0.00    +0.000 NA
ATOM      5  N   UNL     1       2.330   4.552  20.202  0.00  0.00    +0.000 N 
ENDROOT
BRANCH   5   6
ATOM      6  C   UNL     1       2.154   3.102  20.408  0.00  0.00    +0.000 C 
ATOM      7  C   UNL     1       1.479   2.812  21.776  0.00  0.00    +0.000 C 
ATOM      8  C   UNL     1       1.233   2.513  19.325  0.00  0.00    +0.000 C 
ATOM      9  C   UNL     1       3.506   2.360  20.437  0.00  0.00    +0.000 C 
ENDBRANCH   5   6
BRANCH   1  10
ATOM     10  C   UNL     1       4.579   4.689  18.993  0.00  0.00    +0.000 C 
BRANCH  10  12
ATOM     11  C   UNL     1       3.442   3.770  16.920  0.00  0.00    +0.000 C 
ATOM     12  C   UNL     1       4.638   4.588  17.446  0.00  0.00    +0.000 C 
BRANCH  12  13
ATOM     13  N   UNL     1       5.931   3.950  17.028  0.00  0.00    +0.000 NA
ATOM     14  C   UNL     1       7.138   4.682  17.501  0.00  0.00    +0.000 C 
ATOM     15  C   UNL     1       7.325   6.041  16.808  0.00  0.00    +0.000 C 
ATOM     16  O   UNL     1       7.428   5.885  15.386  0.00  0.00    +0.000 OA
ATOM     17  C   UNL     1       6.302   5.176  14.852  0.00  0.00    +0.000 C 
ATOM     18  C   UNL     1       6.097   3.825  15.558  0.00  0.00    +0.000 C 
ENDBRANCH  12  13
ENDBRANCH  10  12
ENDBRANCH   1  10
BRANCH   3  19
ATOM     19  C   UNL     1       1.236   7.838  20.911  0.00  0.00    +0.000 C 
BRANCH  19  20
ATOM     20  C   UNL     1       1.195   9.047  20.001  0.00  0.00    +0.000 C 
ATOM     21  N   UNL     1       1.582   8.923  18.707  0.00  0.00    +0.000 N 
ATOM     22  O   UNL     1       0.820  10.147  20.416  0.00  0.00    +0.000 OA
ATOM     23  H   UNL     1       2.094   8.096  18.405  0.00  0.00    +0.000 HD
ATOM     24  H   UNL     1       1.636   9.763  18.150  0.00  0.00    +0.000 HD
ENDBRANCH  19  20
ENDBRANCH   3  19
TORSDOF 6
ENDMDL
MODEL 2
REMARK VINA RESULT:      -6.7      0.959      1.645
REMARK  Name = 
REMARK  10 active torsions:
REMARK  status: ('A' for Active; 'I' for Inactive)
REMARK    1  A    between atoms: C_1  and  C_2
REMARK    2  A    between atoms: C_2  and  C_3
REMARK    3  A    between atoms: C_2  and  N_17
REMARK    4  A    between atoms: C_3  and  C_4
REMARK    5  A    between atoms: C_6  and  C_7
REMARK    6  A    between atoms: C_7  and  C_8
REMARK    7  A    between atoms: N_12  and  C_13
REMARK    8  A    between atoms: C_13  and  C_14
REMARK    9  A    between atoms: C_13  and  C_15
REMARK   10  A    between atoms: C_13  and  C_16
REMARK                            x       y       z     vdW  Elec       q    Type
REMARK                         _______ _______ _______ _____ _____    ______ ____
ROOT
ATOM      1  C   UNL     1       2.461   5.314  18.836  0.00  0.00    +0.000 A 
ATOM      2  N   UNL     1       2.358   6.611  19.084  0.00  0.00    +0.000 NA
ATOM      3  C   UNL     1       1.769   6.667  20.325  0.00  0.00    +0.000 A 
ATOM      4  N   UNL     1       1.494   5.471  20.843  0.00  0.00    +0.000 NA
ATOM      5  N   UNL     1       1.948   4.610  19.907  0.00  0.00    +0.000 N 
ENDROOT
BRANCH   5   6
ATOM      6  C   UNL     1       1.858   3.160  20.167  0.00  0.00    +0.000 C 
ATOM      7  C   UNL     1       1.302   2.883  21.589  0.00  0.00    +0.000 C 
ATOM      8  C   UNL     1       0.888   2.495  19.174  0.00  0.00    +0.000 C 
ATOM      9  C   UNL     1       3.243   2.483  20.114  0.00  0.00    +0.000 C 
ENDBRANCH   5   6
BRANCH   1  10
ATOM     10  C   UNL     1       3.162   4.714  17.659  0.00  0.00    +0.000 C 
BRANCH  10  12
ATOM     11  C   UNL     1       5.275   5.191  18.978  0.00  0.00    +0.000 C 
ATOM     12  C   UNL     1       4.691   4.958  17.571  0.00  0.00    +0.000 C 
BRANCH  12  13
ATOM     13  N   UNL     1       4.965   6.143  16.690  0.00  0.00    +0.000 NA
ATOM     14  C   UNL     1       5.275   5.779  15.281  0.00  0.00    +0.000 C 
ATOM     15  C   UNL     1       6.629   5.069  15.128  0.00  0.00    +0.000 C 
ATOM     16  O   UNL     1       7.699   5.886  15.621  0.00  0.00    +0.000 OA
ATOM     17  C   UNL     1       7.469   6.289  16.978  0.00  0.00    +0.000 C 
ATOM     18  C   UNL     1       6.105   6.981  17.141  0.00  0.00    +0.000 C 
ENDBRANCH  12  13
ENDBRANCH  10  12
ENDBRANCH   1  10
BRANCH   3  19
ATOM     19  C   UNL     1       1.554   7.905  21.123  0.00  0.00    +0.000 C 
BRANCH  19  20
ATOM     20  C   UNL     1       0.745   9.020  20.494  0.00  0.00    +0.000 C 
ATOM     21  N   UNL     1       1.135   9.537  19.301  0.00  0.00    +0.000 N 
ATOM     22  O   UNL     1      -0.260   9.473  21.047  0.00  0.00    +0.000 OA
ATOM     23  H   UNL     1       2.065   9.338  18.939  0.00  0.00    +0.000 HD
ATOM     24  H   UNL     1       0.636  10.341  18.952  0.00  0.00    +0.000 HD
ENDBRANCH  19  20
ENDBRANCH   3  19
TORSDOF 6
ENDMDL
MODEL 3
REMARK VINA RESULT:      -6.6      1.471      2.046
REMARK  Name = 
REMARK  10 active torsions:
REMARK  status: ('A' for Active; 'I' for Inactive)
REMARK    1  A    between atoms: C_1  and  C_2
REMARK    2  A    between atoms: C_2  and  C_3
REMARK    3  A    between atoms: C_2  and  N_17
REMARK    4  A    between atoms: C_3  and  C_4
REMARK    5  A    between atoms: C_6  and  C_7
REMARK    6  A    between atoms: C_7  and  C_8
REMARK    7  A    between atoms: N_12  and  C_13
REMARK    8  A    between atoms: C_13  and  C_14
REMARK    9  A    between atoms: C_13  and  C_15
REMARK   10  A    between atoms: C_13  and  C_16
REMARK                            x       y       z     vdW  Elec       q    Type
REMARK                         _______ _______ _______ _____ _____    ______ ____
ROOT
ATOM      1  C   UNL     1       2.725   5.783  18.757  0.00  0.00    +0.000 A 
ATOM      2  N   UNL     1       2.519   7.044  19.106  0.00  0.00    +0.000 NA
ATOM      3  C   UNL     1       1.805   6.954  20.277  0.00  0.00    +0.000 A 
ATOM      4  N   UNL     1       1.552   5.701  20.656  0.00  0.00    +0.000 NA
ATOM      5  N   UNL     1       2.149   4.956  19.701  0.00  0.00    +0.000 N 
ENDROOT
BRANCH   5   6
ATOM      6  C   UNL     1       2.121   3.486  19.822  0.00  0.00    +0.000 C 
ATOM      7  C   UNL     1       3.555   2.912  19.978  0.00  0.00    +0.000 C 
ATOM      8  C   UNL     1       1.335   3.065  21.077  0.00  0.00    +0.000 C 
ATOM      9  C   UNL     1       1.532   2.820  18.561  0.00  0.00    +0.000 C 
ENDBRANCH   5   6
BRANCH   1  10
ATOM     10  C   UNL     1       3.577   5.332  17.614  0.00  0.00    +0.000 C 
BRANCH  10  12
ATOM     11  C   UNL     1       4.540   7.024  15.988  0.00  0.00    +0.000 C 
ATOM     12  C   UNL     1       4.803   6.220  17.277  0.00  0.00    +0.000 C 
BRANCH  12  13
ATOM     13  N   UNL     1       6.023   5.360  17.115  0.00  0.00    +0.000 NA
ATOM     14  C   UNL     1       6.374   4.587  18.337  0.00  0.00    +0.000 C 
ATOM     15  C   UNL     1       6.878   5.477  19.485  0.00  0.00    +0.000 C 
ATOM     16  O   UNL     1       8.033   6.227  19.086  0.00  0.00    +0.000 OA
ATOM     17  C   UNL     1       7.778   6.995  17.902  0.00  0.00    +0.000 C 
ATOM     18  C   UNL     1       7.252   6.113  16.757  0.00  0.00    +0.000 C 
ENDBRANCH  12  13
ENDBRANCH  10  12
ENDBRANCH   1  10
BRANCH   3  19
ATOM     19  C   UNL     1       1.436   8.099  21.154  0.00  0.00    +0.000 C 
BRANCH  19  20
ATOM     20  C   UNL     1       0.696   9.260  20.524  0.00  0.00    +0.000 C 
ATOM     21  N   UNL     1       1.002   9.640  19.258  0.00  0.00    +0.000 N 
ATOM     22  O   UNL     1      -0.178   9.873  21.143  0.00  0.00    +0.000 OA
ATOM     23  H   UNL     1       1.854   9.300  18.815  0.00  0.00    +0.000 HD
ATOM     24  H   UNL     1       0.563  10.474  18.899  0.00  0.00    +0.000 HD
ENDBRANCH  19  20
ENDBRANCH   3  19
TORSDOF 6
ENDMDL
MODEL 4
REMARK VINA RESULT:      -6.5      1.437      2.045
REMARK  Name = 
REMARK  10 active torsions:
REMARK  status: ('A' for Active; 'I' for Inactive)
REMARK    1  A    between atoms: C_1  and  C_2
REMARK    2  A    between atoms: C_2  and  C_3
REMARK    3  A    between atoms: C_2  and  N_17
REMARK    4  A    between atoms: C_3  and  C_4
REMARK    5  A    between atoms: C_6  and  C_7
REMARK    6  A    between atoms: C_7  and  C_8
REMARK    7  A    between atoms: N_12  and  C_13
REMARK    8  A    between atoms: C_13  and  C_14
REMARK    9  A    between atoms: C_13  and  C_15
REMARK   10  A    between atoms: C_13  and  C_16
REMARK                            x       y       z     vdW  Elec       q    Type
REMARK                         _______ _______ _______ _____ _____    ______ ____
ROOT
ATOM      1  C   UNL     1       2.666   5.735  18.895  0.00  0.00    +0.000 A 
ATOM      2  N   UNL     1       2.433   6.993  19.239  0.00  0.00    +0.000 NA
ATOM      3  C   UNL     1       1.684   6.891  20.387  0.00  0.00    +0.000 A 
ATOM      4  N   UNL     1       1.436   5.635  20.757  0.00  0.00    +0.000 NA
ATOM      5  N   UNL     1       2.072   4.899  19.820  0.00  0.00    +0.000 N 
ENDROOT
BRANCH   5   6
ATOM      6  C   UNL     1       2.060   3.429  19.938  0.00  0.00    +0.000 C 
ATOM      7  C   UNL     1       1.289   2.782  18.757  0.00  0.00    +0.000 C 
ATOM      8  C   UNL     1       3.495   2.874  19.889  0.00  0.00    +0.000 C 
ATOM      9  C   UNL     1       1.339   2.964  21.221  0.00  0.00    +0.000 C 
ENDBRANCH   5   6
BRANCH   1  10
ATOM     10  C   UNL     1       3.558   5.297  17.778  0.00  0.00    +0.000 C 
BRANCH  10  12
ATOM     11  C   UNL     1       4.436   7.097  16.221  0.00  0.00    +0.000 C 
ATOM     12  C   UNL     1       4.758   6.225  17.451  0.00  0.00    +0.000 C 
BRANCH  12  13
ATOM     13  N   UNL     1       5.984   5.398  17.198  0.00  0.00    +0.000 NA
ATOM     14  C   UNL     1       6.434   4.620  18.385  0.00  0.00    +0.000 C 
ATOM     15  C   UNL     1       6.991   5.508  19.509  0.00  0.00    +0.000 C 
ATOM     16  O   UNL     1       8.098   6.292  19.045  0.00  0.00    +0.000 OA
ATOM     17  C   UNL     1       7.747   7.067  17.891  0.00  0.00    +0.000 C 
ATOM     18  C   UNL     1       7.169   6.185  16.771  0.00  0.00    +0.000 C 
ENDBRANCH  12  13
ENDBRANCH  10  12
ENDBRANCH   1  10
BRANCH   3  19
ATOM     19  C   UNL     1       1.272   8.030  21.254  0.00  0.00    +0.000 C 
BRANCH  19  20
ATOM     20  C   UNL     1       1.037   9.371  20.592  0.00  0.00    +0.000 C 
ATOM     21  N   UNL     1       0.856   9.432  19.249  0.00  0.00    +0.000 N 
ATOM     22  O   UNL     1       1.013  10.414  21.251  0.00  0.00    +0.000 OA
ATOM     23  H   UNL     1       1.088   8.629  18.667  0.00  0.00    +0.000 HD
ATOM     24  H   UNL     1       0.798  10.344  18.823  0.00  0.00    +0.000 HD
ENDBRANCH  19  20
ENDBRANCH   3  19
TORSDOF 6
ENDMDL
MODEL 5
REMARK VINA RESULT:      -6.4      0.952      1.848
REMARK  Name = 
REMARK  10 active torsions:
REMARK  status: ('A' for Active; 'I' for Inactive)
REMARK    1  A    between atoms: C_1  and  C_2
REMARK    2  A    between atoms: C_2  and  C_3
REMARK    3  A    between atoms: C_2  and  N_17
REMARK    4  A    between atoms: C_3  and  C_4
REMARK    5  A    between atoms: C_6  and  C_7
REMARK    6  A    between atoms: C_7  and  C_8
REMARK    7  A    between atoms: N_12  and  C_13
REMARK    8  A    between atoms: C_13  and  C_14
REMARK    9  A    between atoms: C_13  and  C_15
REMARK   10  A    between atoms: C_13  and  C_16
REMARK                            x       y       z     vdW  Elec       q    Type
REMARK                         _______ _______ _______ _____ _____    ______ ____
ROOT
ATOM      1  C   UNL     1       2.625   5.426  18.794  0.00  0.00    +0.000 A 
ATOM      2  N   UNL     1       2.521   6.714  19.085  0.00  0.00    +0.000 NA
ATOM      3  C   UNL     1       1.826   6.733  20.271  0.00  0.00    +0.000 A 
ATOM      4  N   UNL     1       1.488   5.522  20.714  0.00  0.00    +0.000 NA
ATOM      5  N   UNL     1       2.008   4.690  19.788  0.00  0.00    +0.000 N 
ENDROOT
BRANCH   5   6
ATOM      6  C   UNL     1       1.874   3.234  19.980  0.00  0.00    +0.000 C 
ATOM      7  C   UNL     1       0.961   2.610  18.891  0.00  0.00    +0.000 C 
ATOM      8  C   UNL     1       3.246   2.546  19.856  0.00  0.00    +0.000 C 
ATOM      9  C   UNL     1       1.213   2.894  21.332  0.00  0.00    +0.000 C 
ENDBRANCH   5   6
BRANCH   1  10
ATOM     10  C   UNL     1       3.417   4.858  17.660  0.00  0.00    +0.000 C 
BRANCH  10  12
ATOM     11  C   UNL     1       5.349   5.180  19.273  0.00  0.00    +0.000 C 
ATOM     12  C   UNL     1       4.961   4.912  17.805  0.00  0.00    +0.000 C 
BRANCH  12  13
ATOM     13  N   UNL     1       5.516   5.985  16.914  0.00  0.00    +0.000 NA
ATOM     14  C   UNL     1       5.189   5.795  15.475  0.00  0.00    +0.000 C 
ATOM     15  C   UNL     1       5.909   4.589  14.850  0.00  0.00    +0.000 C 
ATOM     16  O   UNL     1       7.332   4.721  14.968  0.00  0.00    +0.000 OA
ATOM     17  C   UNL     1       7.730   4.919  16.331  0.00  0.00    +0.000 C 
ATOM     18  C   UNL     1       6.995   6.111  16.968  0.00  0.00    +0.000 C 
ENDBRANCH  12  13
ENDBRANCH  10  12
ENDBRANCH   1  10
BRANCH   3  19
ATOM     19  C   UNL     1       1.560   7.943  21.097  0.00  0.00    +0.000 C 
BRANCH  19  20
ATOM     20  C   UNL     1       0.750   9.060  20.473  0.00  0.00    +0.000 C 
ATOM     21  N   UNL     1       1.138   9.582  19.282  0.00  0.00    +0.000 N 
ATOM     22  O   UNL     1      -0.255   9.510  21.030  0.00  0.00    +0.000 OA
ATOM     23  H   UNL     1       2.068   9.384  18.917  0.00  0.00    +0.000 HD
ATOM     24  H   UNL     1       0.638  10.387  18.937  0.00  0.00    +0.000 HD
ENDBRANCH  19  20
ENDBRANCH   3  19
TORSDOF 6
ENDMDL
MODEL 6
REMARK VINA RESULT:      -6.4      1.592      1.977
REMARK  Name = 
REMARK  10 active torsions:
REMARK  status: ('A' for Active; 'I' for Inactive)
REMARK    1  A    between atoms: C_1  and  C_2
REMARK    2  A    between atoms: C_2  and  C_3
REMARK    3  A    between atoms: C_2  and  N_17
REMARK    4  A    between atoms: C_3  and  C_4
REMARK    5  A    between atoms: C_6  and  C_7
REMARK    6  A    between atoms: C_7  and  C_8
REMARK    7  A    between atoms: N_12  and  C_13
REMARK    8  A    between atoms: C_13  and  C_14
REMARK    9  A    between atoms: C_13  and  C_15
REMARK   10  A    between atoms: C_13  and  C_16
REMARK                            x       y       z     vdW  Elec       q    Type
REMARK                         _______ _______ _______ _____ _____    ______ ____
ROOT
ATOM      1  C   UNL     1       2.714   5.804  18.743  0.00  0.00    +0.000 A 
ATOM      2  N   UNL     1       2.543   7.066  19.107  0.00  0.00    +0.000 NA
ATOM      3  C   UNL     1       1.816   6.982  20.270  0.00  0.00    +0.000 A 
ATOM      4  N   UNL     1       1.522   5.733  20.630  0.00  0.00    +0.000 NA
ATOM      5  N   UNL     1       2.105   4.982  19.671  0.00  0.00    +0.000 N 
ENDROOT
BRANCH   5   6
ATOM      6  C   UNL     1       2.032   3.512  19.772  0.00  0.00    +0.000 C 
ATOM      7  C   UNL     1       1.290   3.079  21.064  0.00  0.00    +0.000 C 
ATOM      8  C   UNL     1       1.237   2.932  18.588  0.00  0.00    +0.000 C 
ATOM      9  C   UNL     1       3.434   2.874  19.853  0.00  0.00    +0.000 C 
ENDBRANCH   5   6
BRANCH   1  10
ATOM     10  C   UNL     1       3.562   5.343  17.601  0.00  0.00    +0.000 C 
BRANCH  10  12
ATOM     11  C   UNL     1       4.552   7.012  15.967  0.00  0.00    +0.000 C 
ATOM     12  C   UNL     1       4.799   6.216  17.265  0.00  0.00    +0.000 C 
BRANCH  12  13
ATOM     13  N   UNL     1       6.011   5.344  17.119  0.00  0.00    +0.000 NA
ATOM     14  C   UNL     1       6.337   4.566  18.345  0.00  0.00    +0.000 C 
ATOM     15  C   UNL     1       6.834   5.448  19.501  0.00  0.00    +0.000 C 
ATOM     16  O   UNL     1       8.002   6.187  19.121  0.00  0.00    +0.000 OA
ATOM     17  C   UNL     1       7.772   6.960  17.935  0.00  0.00    +0.000 C 
ATOM     18  C   UNL     1       7.253   6.084  16.780  0.00  0.00    +0.000 C 
ENDBRANCH  12  13
ENDBRANCH  10  12
ENDBRANCH   1  10
BRANCH   3  19
ATOM     19  C   UNL     1       1.473   8.126  21.159  0.00  0.00    +0.000 C 
BRANCH  19  20
ATOM     20  C   UNL     1       0.639   9.247  20.577  0.00  0.00    +0.000 C 
ATOM     21  N   UNL     1      -0.367   9.783  21.312  0.00  0.00    +0.000 N 
ATOM     22  O   UNL     1       0.852   9.680  19.441  0.00  0.00    +0.000 OA
ATOM     23  H   UNL     1      -0.699   9.304  22.148  0.00  0.00    +0.000 HD
ATOM     24  H   UNL     1      -0.967  10.460  20.865  0.00  0.00    +0.000 HD
ENDBRANCH  19  20
ENDBRANCH   3  19
TORSDOF 6
ENDMDL
MODEL 7
REMARK VINA RESULT:      -6.4      0.679      1.156
REMARK  Name = 
REMARK  10 active torsions:
REMARK  status: ('A' for Active; 'I' for Inactive)
REMARK    1  A    between atoms: C_1  and  C_2
REMARK    2  A    between atoms: C_2  and  C_3
REMARK    3  A    between atoms: C_2  and  N_17
REMARK    4  A    between atoms: C_3  and  C_4
REMARK    5  A    between atoms: C_6  and  C_7
REMARK    6  A    between atoms: C_7  and  C_8
REMARK    7  A    between atoms: N_12  and  C_13
REMARK    8  A    between atoms: C_13  and  C_14
REMARK    9  A    between atoms: C_13  and  C_15
REMARK   10  A    between atoms: C_13  and  C_16
REMARK                            x       y       z     vdW  Elec       q    Type
REMARK                         _______ _______ _______ _____ _____    ______ ____
ROOT
ATOM      1  C   UNL     1       3.371   5.200  19.544  0.00  0.00    +0.000 A 
ATOM      2  N   UNL     1       3.150   6.502  19.644  0.00  0.00    +0.000 NA
ATOM      3  C   UNL     1       1.985   6.587  20.369  0.00  0.00    +0.000 A 
ATOM      4  N   UNL     1       1.475   5.403  20.706  0.00  0.00    +0.000 NA
ATOM      5  N   UNL     1       2.362   4.521  20.198  0.00  0.00    +0.000 N 
ENDROOT
BRANCH   5   6
ATOM      6  C   UNL     1       2.147   3.080  20.428  0.00  0.00    +0.000 C 
ATOM      7  C   UNL     1       1.308   2.452  19.283  0.00  0.00    +0.000 C 
ATOM      8  C   UNL     1       3.493   2.333  20.452  0.00  0.00    +0.000 C 
ATOM      9  C   UNL     1       1.355   2.819  21.726  0.00  0.00    +0.000 C 
ENDBRANCH   5   6
BRANCH   1  10
ATOM     10  C   UNL     1       4.596   4.576  18.956  0.00  0.00    +0.000 C 
BRANCH  10  12
ATOM     11  C   UNL     1       3.477   3.718  16.848  0.00  0.00    +0.000 C 
ATOM     12  C   UNL     1       4.666   4.524  17.407  0.00  0.00    +0.000 C 
BRANCH  12  13
ATOM     13  N   UNL     1       5.964   3.904  16.978  0.00  0.00    +0.000 NA
ATOM     14  C   UNL     1       7.164   4.636  17.466  0.00  0.00    +0.000 C 
ATOM     15  C   UNL     1       7.341   6.010  16.800  0.00  0.00    +0.000 C 
ATOM     16  O   UNL     1       7.447   5.883  15.376  0.00  0.00    +0.000 OA
ATOM     17  C   UNL     1       6.327   5.175  14.827  0.00  0.00    +0.000 C 
ATOM     18  C   UNL     1       6.132   3.809  15.506  0.00  0.00    +0.000 C 
ENDBRANCH  12  13
ENDBRANCH  10  12
ENDBRANCH   1  10
BRANCH   3  19
ATOM     19  C   UNL     1       1.372   7.847  20.874  0.00  0.00    +0.000 C 
BRANCH  19  20
ATOM     20  C   UNL     1       1.187   8.985  19.893  0.00  0.00    +0.000 C 
ATOM     21  N   UNL     1       0.593  10.133  20.305  0.00  0.00    +0.000 N 
ATOM     22  O   UNL     1       1.562   8.887  18.721  0.00  0.00    +0.000 OA
ATOM     23  H   UNL     1       0.087  10.156  21.188  0.00  0.00    +0.000 HD
ATOM     24  H   UNL     1       0.396  10.836  19.609  0.00  0.00    +0.000 HD
ENDBRANCH  19  20
ENDBRANCH   3  19
TORSDOF 6
ENDMDL
MODEL 8
REMARK VINA RESULT:      -6.3      3.319      7.052
REMARK  Name = 
REMARK  10 active torsions:
REMARK  status: ('A' for Active; 'I' for Inactive)
REMARK    1  A    between atoms: C_1  and  C_2
REMARK    2  A    between atoms: C_2  and  C_3
REMARK    3  A    between atoms: C_2  and  N_17
REMARK    4  A    between atoms: C_3  and  C_4
REMARK    5  A    between atoms: C_6  and  C_7
REMARK    6  A    between atoms: C_7  and  C_8
REMARK    7  A    between atoms: N_12  and  C_13
REMARK    8  A    between atoms: C_13  and  C_14
REMARK    9  A    between atoms: C_13  and  C_15
REMARK   10  A    between atoms: C_13  and  C_16
REMARK                            x       y       z     vdW  Elec       q    Type
REMARK                         _______ _______ _______ _____ _____    ______ ____
ROOT
ATOM      1  C   UNL     1       5.111   4.201  16.403  0.00  0.00    +0.000 A 
ATOM      2  N   UNL     1       5.232   3.631  15.214  0.00  0.00    +0.000 NA
ATOM      3  C   UNL     1       6.168   4.403  14.568  0.00  0.00    +0.000 A 
ATOM      4  N   UNL     1       6.617   5.424  15.296  0.00  0.00    +0.000 NA
ATOM      5  N   UNL     1       5.960   5.289  16.468  0.00  0.00    +0.000 N 
ENDROOT
BRANCH   5   6
ATOM      6  C   UNL     1       6.250   6.235  17.562  0.00  0.00    +0.000 C 
ATOM      7  C   UNL     1       7.441   7.161  17.197  0.00  0.00    +0.000 C 
ATOM      8  C   UNL     1       5.038   7.150  17.816  0.00  0.00    +0.000 C 
ATOM      9  C   UNL     1       6.662   5.503  18.856  0.00  0.00    +0.000 C 
ENDBRANCH   5   6
BRANCH   1  10
ATOM     10  C   UNL     1       4.305   3.662  17.541  0.00  0.00    +0.000 C 
BRANCH  10  12
ATOM     11  C   UNL     1       2.039   4.760  17.848  0.00  0.00    +0.000 C 
ATOM     12  C   UNL     1       2.779   3.524  17.298  0.00  0.00    +0.000 C 
BRANCH  12  13
ATOM     13  N   UNL     1       2.271   2.276  17.960  0.00  0.00    +0.000 NA
ATOM     14  C   UNL     1       0.981   2.464  18.678  0.00  0.00    +0.000 C 
ATOM     15  C   UNL     1       1.115   3.343  19.932  0.00  0.00    +0.000 C 
ATOM     16  O   UNL     1       2.060   2.785  20.854  0.00  0.00    +0.000 OA
ATOM     17  C   UNL     1       3.333   2.563  20.232  0.00  0.00    +0.000 C 
ATOM     18  C   UNL     1       3.202   1.702  18.965  0.00  0.00    +0.000 C 
ENDBRANCH  12  13
ENDBRANCH  10  12
ENDBRANCH   1  10
BRANCH   3  19
ATOM     19  C   UNL     1       6.763   4.104  13.236  0.00  0.00    +0.000 C 
BRANCH  19  20
ATOM     20  C   UNL     1       5.953   3.262  12.273  0.00  0.00    +0.000 C 
ATOM     21  N   UNL     1       6.479   2.111  11.785  0.00  0.00    +0.000 N 
ATOM     22  O   UNL     1       4.822   3.606  11.918  0.00  0.00    +0.000 OA
ATOM     23  H   UNL     1       7.475   1.922  11.887  0.00  0.00    +0.000 HD
ATOM     24  H   UNL     1       5.958   1.621  11.073  0.00  0.00    +0.000 HD
ENDBRANCH  19  20
ENDBRANCH   3  19
TORSDOF 6
ENDMDL
MODEL 9
REMARK VINA RESULT:      -6.3      1.906      5.983
REMARK  Name = 
REMARK  10 active torsions:
REMARK  status: ('A' for Active; 'I' for Inactive)
REMARK    1  A    between atoms: C_1  and  C_2
REMARK    2  A    between atoms: C_2  and  C_3
REMARK    3  A    between atoms: C_2  and  N_17
REMARK    4  A    between atoms: C_3  and  C_4
REMARK    5  A    between atoms: C_6  and  C_7
REMARK    6  A    between atoms: C_7  and  C_8
REMARK    7  A    between atoms: N_12  and  C_13
REMARK    8  A    between atoms: C_13  and  C_14
REMARK    9  A    between atoms: C_13  and  C_15
REMARK   10  A    between atoms: C_13  and  C_16
REMARK                            x       y       z     vdW  Elec       q    Type
REMARK                         _______ _______ _______ _____ _____    ______ ____
ROOT
ATOM      1  C   UNL     1       3.544   5.291  19.674  0.00  0.00    +0.000 A 
ATOM      2  N   UNL     1       4.746   5.823  19.507  0.00  0.00    +0.000 NA
ATOM      3  C   UNL     1       5.444   4.859  18.820  0.00  0.00    +0.000 A 
ATOM      4  N   UNL     1       4.735   3.759  18.568  0.00  0.00    +0.000 NA
ATOM      5  N   UNL     1       3.524   4.037  19.095  0.00  0.00    +0.000 N 
ENDROOT
BRANCH   5   6
ATOM      6  C   UNL     1       2.440   3.046  18.955  0.00  0.00    +0.000 C 
ATOM      7  C   UNL     1       1.297   3.593  18.059  0.00  0.00    +0.000 C 
ATOM      8  C   UNL     1       2.965   1.769  18.274  0.00  0.00    +0.000 C 
ATOM      9  C   UNL     1       1.791   2.713  20.314  0.00  0.00    +0.000 C 
ENDBRANCH   5   6
BRANCH   1  10
ATOM     10  C   UNL     1       2.361   5.997  20.254  0.00  0.00    +0.000 C 
BRANCH  10  12
ATOM     11  C   UNL     1       2.444   7.208  18.027  0.00  0.00    +0.000 C 
ATOM     12  C   UNL     1       1.778   7.166  19.417  0.00  0.00    +0.000 C 
BRANCH  12  13
ATOM     13  N   UNL     1       1.996   8.464  20.138  0.00  0.00    +0.000 NA
ATOM     14  C   UNL     1       1.356   8.515  21.481  0.00  0.00    +0.000 C 
ATOM     15  C   UNL     1      -0.179   8.550  21.414  0.00  0.00    +0.000 C 
ATOM     16  O   UNL     1      -0.636   9.682  20.661  0.00  0.00    +0.000 OA
ATOM     17  C   UNL     1      -0.053   9.712  19.351  0.00  0.00    +0.000 C 
ATOM     18  C   UNL     1       1.483   9.654  19.413  0.00  0.00    +0.000 C 
ENDBRANCH  12  13
ENDBRANCH  10  12
ENDBRANCH   1  10
BRANCH   3  19
ATOM     19  C   UNL     1       6.817   5.018  18.265  0.00  0.00    +0.000 C 
BRANCH  19  20
ATOM     20  C   UNL     1       7.799   5.868  19.043  0.00  0.00    +0.000 C 
ATOM     21  N   UNL     1       8.300   5.406  20.216  0.00  0.00    +0.000 N 
ATOM     22  O   UNL     1       8.149   6.978  18.634  0.00  0.00    +0.000 OA
ATOM     23  H   UNL     1       7.866   4.606  20.676  0.00  0.00    +0.000 HD
ATOM     24  H   UNL     1       8.875   6.030  20.760  0.00  0.00    +0.000 HD
ENDBRANCH  19  20
ENDBRANCH   3  19
TORSDOF 6
ENDMDL
