MODEL 1
REMARK VINA RESULT:      -8.0      0.000      0.000
REMARK  Name = 
REMARK  8 active torsions:
REMARK  status: ('A' for Active; 'I' for Inactive)
REMARK    1  A    between atoms: C_1  and  C_2
REMARK    2  A    between atoms: C_6  and  C_7
REMARK    3  A    between atoms: N_9  and  C_10
REMARK    4  A    between atoms: C_12  and  C_13
REMARK    5  A    between atoms: C_13  and  C_14
REMARK    6  A    between atoms: C_13  and  C_15
REMARK    7  A    between atoms: C_13  and  C_16
REMARK    8  A    between atoms: N_18  and  C_19
REMARK                            x       y       z     vdW  Elec       q    Type
REMARK                         _______ _______ _______ _____ _____    ______ ____
ROOT
ATOM      1  C   UNL     1       3.487   6.682  18.440  0.00  0.00    +0.000 A 
ATOM      2  C   UNL     1       4.567   7.041  17.673  0.00  0.00    +0.000 A 
ATOM      3  C   UNL     1       5.335   5.851  17.535  0.00  0.00    +0.000 A 
ATOM      4  N   UNL     1       4.786   4.841  18.232  0.00  0.00    +0.000 NA
ATOM      5  N   UNL     1       3.583   5.313  18.632  0.00  0.00    +0.000 N 
ENDROOT
BRANCH   5   6
ATOM      6  C   UNL     1       2.558   4.448  19.100  0.00  0.00    +0.000 A 
ATOM      7  C   UNL     1       2.225   4.428  20.458  0.00  0.00    +0.000 A 
ATOM      8  C   UNL     1       1.218   3.568  20.910  0.00  0.00    +0.000 A 
ATOM      9  C   UNL     1       0.571   2.708  20.021  0.00  0.00    +0.000 A 
ATOM     10  C   UNL     1       0.922   2.698  18.676  0.00  0.00    +0.000 A 
ATOM     11  C   UNL     1       1.912   3.568  18.213  0.00  0.00    +0.000 A 
ENDBRANCH   5   6
BRANCH   1  14
ATOM     12  C   UNL     1       2.009   8.685  18.347  0.00  0.00    +0.000 C 
ATOM     13  O   UNL     1       2.406   8.985  17.230  0.00  0.00    +0.000 OA
ATOM     14  N   UNL     1       2.528   7.517  18.996  0.00  0.00    +0.000 N 
ATOM     15  H   UNL     1       2.048   7.190  19.827  0.00  0.00    +0.000 HD
BRANCH  12  21
ATOM     16  C   UNL     1       1.394   8.487  21.474  0.00  0.00    +0.000 C 
ATOM     17  C   UNL     1       0.631   9.258  20.447  0.00  0.00    +0.000 A 
ATOM     18  C   UNL     1      -0.531  10.036  20.763  0.00  0.00    +0.000 A 
ATOM     19  C   UNL     1      -1.062  10.677  19.669  0.00  0.00    +0.000 A 
ATOM     20  S   UNL     1      -0.172  10.358  18.258  0.00  0.00    +0.000 S 
ATOM     21  C   UNL     1       0.933   9.329  19.089  0.00  0.00    +0.000 A 
ENDBRANCH  12  21
ENDBRANCH   1  14
BRANCH   3  22
ATOM     22  C   UNL     1       6.639   5.647  16.769  0.00  0.00    +0.000 C 
ATOM     23  C   UNL     1       6.351   5.228  15.316  0.00  0.00    +0.000 C 
ATOM     24  C   UNL     1       7.479   6.943  16.752  0.00  0.00    +0.000 C 
ATOM     25  C   UNL     1       7.501   4.550  17.432  0.00  0.00    +0.000 C 
ENDBRANCH   3  22
TORSDOF 4
ENDMDL
MODEL 2
REMARK VINA RESULT:      -8.0      0.896      1.326
REMARK  Name = 
REMARK  8 active torsions:
REMARK  status: ('A' for Active; 'I' for Inactive)
REMARK    1  A    between atoms: C_1  and  C_2
REMARK    2  A    between atoms: C_6  and  C_7
REMARK    3  A    between atoms: N_9  and  C_10
REMARK    4  A    between atoms: C_12  and  C_13
REMARK    5  A    between atoms: C_13  and  C_14
REMARK    6  A    between atoms: C_13  and  C_15
REMARK    7  A    between atoms: C_13  and  C_16
REMARK    8  A    between atoms: N_18  and  C_19
REMARK                            x       y       z     vdW  Elec       q    Type
REMARK                         _______ _______ _______ _____ _____    ______ ____
ROOT
ATOM      1  C   UNL     1       3.407   6.722  18.476  0.00  0.00    +0.000 A 
ATOM      2  C   UNL     1       4.440   7.086  17.648  0.00  0.00    +0.000 A 
ATOM      3  C   UNL     1       5.169   5.886  17.418  0.00  0.00    +0.000 A 
ATOM      4  N   UNL     1       4.648   4.864  18.117  0.00  0.00    +0.000 NA
ATOM      5  N   UNL     1       3.486   5.345  18.615  0.00  0.00    +0.000 N 
ENDROOT
BRANCH   5   6
ATOM      6  C   UNL     1       2.477   4.485  19.125  0.00  0.00    +0.000 A 
ATOM      7  C   UNL     1       2.314   4.338  20.506  0.00  0.00    +0.000 A 
ATOM      8  C   UNL     1       1.321   3.483  20.998  0.00  0.00    +0.000 A 
ATOM      9  C   UNL     1       0.518   2.753  20.120  0.00  0.00    +0.000 A 
ATOM     10  C   UNL     1       0.698   2.869  18.746  0.00  0.00    +0.000 A 
ATOM     11  C   UNL     1       1.673   3.736  18.247  0.00  0.00    +0.000 A 
ENDBRANCH   5   6
BRANCH   1  14
ATOM     12  C   UNL     1       1.849   8.665  18.500  0.00  0.00    +0.000 C 
ATOM     13  O   UNL     1       2.063   8.911  17.321  0.00  0.00    +0.000 OA
ATOM     14  N   UNL     1       2.508   7.556  19.125  0.00  0.00    +0.000 N 
ATOM     15  H   UNL     1       2.170   7.263  20.035  0.00  0.00    +0.000 HD
BRANCH  12  21
ATOM     16  C   UNL     1      -0.834  10.162  17.630  0.00  0.00    +0.000 C 
ATOM     17  C   UNL     1      -0.303   9.983  19.016  0.00  0.00    +0.000 A 
ATOM     18  C   UNL     1      -0.972  10.494  20.177  0.00  0.00    +0.000 A 
ATOM     19  C   UNL     1      -0.317  10.196  21.348  0.00  0.00    +0.000 A 
ATOM     20  S   UNL     1       1.098   9.299  21.068  0.00  0.00    +0.000 S 
ATOM     21  C   UNL     1       0.869   9.315  19.360  0.00  0.00    +0.000 A 
ENDBRANCH  12  21
ENDBRANCH   1  14
BRANCH   3  22
ATOM     22  C   UNL     1       6.413   5.682  16.557  0.00  0.00    +0.000 C 
ATOM     23  C   UNL     1       6.020   5.483  15.081  0.00  0.00    +0.000 C 
ATOM     24  C   UNL     1       7.359   6.900  16.655  0.00  0.00    +0.000 C 
ATOM     25  C   UNL     1       7.209   4.444  17.023  0.00  0.00    +0.000 C 
ENDBRANCH   3  22
TORSDOF 4
ENDMDL
MODEL 3
REMARK VINA RESULT:      -8.0      0.137      1.323
REMARK  Name = 
REMARK  8 active torsions:
REMARK  status: ('A' for Active; 'I' for Inactive)
REMARK    1  A    between atoms: C_1  and  C_2
REMARK    2  A    between atoms: C_6  and  C_7
REMARK    3  A    between atoms: N_9  and  C_10
REMARK    4  A    between atoms: C_12  and  C_13
REMARK    5  A    between atoms: C_13  and  C_14
REMARK    6  A    between atoms: C_13  and  C_15
REMARK    7  A    between atoms: C_13  and  C_16
REMARK    8  A    between atoms: N_18  and  C_19
REMARK                            x       y       z     vdW  Elec       q    Type
REMARK                         _______ _______ _______ _____ _____    ______ ____
ROOT
ATOM      1  C   UNL     1       3.463   6.686  18.450  0.00  0.00    +0.000 A 
ATOM      2  C   UNL     1       4.548   7.053  17.693  0.00  0.00    +0.000 A 
ATOM      3  C   UNL     1       5.349   5.881  17.602  0.00  0.00    +0.000 A 
ATOM      4  N   UNL     1       4.815   4.876  18.317  0.00  0.00    +0.000 NA
ATOM      5  N   UNL     1       3.592   5.326  18.682  0.00  0.00    +0.000 N 
ENDROOT
BRANCH   5   6
ATOM      6  C   UNL     1       2.582   4.446  19.156  0.00  0.00    +0.000 A 
ATOM      7  C   UNL     1       1.797   3.728  18.248  0.00  0.00    +0.000 A 
ATOM      8  C   UNL     1       0.801   2.869  18.726  0.00  0.00    +0.000 A 
ATOM      9  C   UNL     1       0.566   2.751  20.096  0.00  0.00    +0.000 A 
ATOM     10  C   UNL     1       1.320   3.489  21.002  0.00  0.00    +0.000 A 
ATOM     11  C   UNL     1       2.329   4.334  20.535  0.00  0.00    +0.000 A 
ENDBRANCH   5   6
BRANCH   1  14
ATOM     12  C   UNL     1       2.011   8.706  18.325  0.00  0.00    +0.000 C 
ATOM     13  O   UNL     1       2.492   9.043  17.253  0.00  0.00    +0.000 OA
ATOM     14  N   UNL     1       2.472   7.510  18.966  0.00  0.00    +0.000 N 
ATOM     15  H   UNL     1       1.929   7.157  19.746  0.00  0.00    +0.000 HD
BRANCH  12  21
ATOM     16  C   UNL     1       1.356   8.672  21.450  0.00  0.00    +0.000 C 
ATOM     17  C   UNL     1       0.568   9.332  20.365  0.00  0.00    +0.000 A 
ATOM     18  C   UNL     1      -0.642  10.061  20.615  0.00  0.00    +0.000 A 
ATOM     19  C   UNL     1      -1.189  10.599  19.475  0.00  0.00    +0.000 A 
ATOM     20  S   UNL     1      -0.259  10.242  18.099  0.00  0.00    +0.000 S 
ATOM     21  C   UNL     1       0.888   9.333  19.010  0.00  0.00    +0.000 A 
ENDBRANCH  12  21
ENDBRANCH   1  14
BRANCH   3  22
ATOM     22  C   UNL     1       6.672   5.691  16.866  0.00  0.00    +0.000 C 
ATOM     23  C   UNL     1       7.496   4.566  17.518  0.00  0.00    +0.000 C 
ATOM     24  C   UNL     1       6.433   5.332  15.383  0.00  0.00    +0.000 C 
ATOM     25  C   UNL     1       7.509   6.989  16.894  0.00  0.00    +0.000 C 
ENDBRANCH   3  22
TORSDOF 4
ENDMDL
MODEL 4
REMARK VINA RESULT:      -8.0      0.906      1.882
REMARK  Name = 
REMARK  8 active torsions:
REMARK  status: ('A' for Active; 'I' for Inactive)
REMARK    1  A    between atoms: C_1  and  C_2
REMARK    2  A    between atoms: C_6  and  C_7
REMARK    3  A    between atoms: N_9  and  C_10
REMARK    4  A    between atoms: C_12  and  C_13
REMARK    5  A    between atoms: C_13  and  C_14
REMARK    6  A    between atoms: C_13  and  C_15
REMARK    7  A    between atoms: C_13  and  C_16
REMARK    8  A    between atoms: N_18  and  C_19
REMARK                            x       y       z     vdW  Elec       q    Type
REMARK                         _______ _______ _______ _____ _____    ______ ____
ROOT
ATOM      1  C   UNL     1       3.439   6.707  18.513  0.00  0.00    +0.000 A 
ATOM      2  C   UNL     1       4.453   7.081  17.667  0.00  0.00    +0.000 A 
ATOM      3  C   UNL     1       5.200   5.892  17.436  0.00  0.00    +0.000 A 
ATOM      4  N   UNL     1       4.707   4.868  18.152  0.00  0.00    +0.000 NA
ATOM      5  N   UNL     1       3.544   5.333  18.663  0.00  0.00    +0.000 N 
ENDROOT
BRANCH   5   6
ATOM      6  C   UNL     1       2.558   4.460  19.195  0.00  0.00    +0.000 A 
ATOM      7  C   UNL     1       1.685   3.784  18.337  0.00  0.00    +0.000 A 
ATOM      8  C   UNL     1       0.713   2.931  18.871  0.00  0.00    +0.000 A 
ATOM      9  C   UNL     1       0.590   2.777  20.253  0.00  0.00    +0.000 A 
ATOM     10  C   UNL     1       1.433   3.473  21.113  0.00  0.00    +0.000 A 
ATOM     11  C   UNL     1       2.419   4.311  20.586  0.00  0.00    +0.000 A 
ENDBRANCH   5   6
BRANCH   1  14
ATOM     12  C   UNL     1       1.889   8.655  18.559  0.00  0.00    +0.000 C 
ATOM     13  O   UNL     1       2.117   8.925  17.388  0.00  0.00    +0.000 OA
ATOM     14  N   UNL     1       2.536   7.531  19.169  0.00  0.00    +0.000 N 
ATOM     15  H   UNL     1       2.186   7.221  20.069  0.00  0.00    +0.000 HD
BRANCH  12  21
ATOM     16  C   UNL     1      -0.764  10.204  17.688  0.00  0.00    +0.000 C 
ATOM     17  C   UNL     1      -0.259   9.980  19.076  0.00  0.00    +0.000 A 
ATOM     18  C   UNL     1      -0.942  10.466  20.240  0.00  0.00    +0.000 A 
ATOM     19  C   UNL     1      -0.310  10.129  21.413  0.00  0.00    +0.000 A 
ATOM     20  S   UNL     1       1.101   9.225  21.132  0.00  0.00    +0.000 S 
ATOM     21  C   UNL     1       0.901   9.292  19.421  0.00  0.00    +0.000 A 
ENDBRANCH  12  21
ENDBRANCH   1  14
BRANCH   3  22
ATOM     22  C   UNL     1       6.434   5.703  16.558  0.00  0.00    +0.000 C 
ATOM     23  C   UNL     1       7.338   6.948  16.622  0.00  0.00    +0.000 C 
ATOM     24  C   UNL     1       7.254   4.475  17.013  0.00  0.00    +0.000 C 
ATOM     25  C   UNL     1       6.031   5.466  15.086  0.00  0.00    +0.000 C 
ENDBRANCH   3  22
TORSDOF 4
ENDMDL
MODEL 5
REMARK VINA RESULT:      -7.9      3.382      5.809
REMARK  Name = 
REMARK  8 active torsions:
REMARK  status: ('A' for Active; 'I' for Inactive)
REMARK    1  A    between atoms: C_1  and  C_2
REMARK    2  A    between atoms: C_6  and  C_7
REMARK    3  A    between atoms: N_9  and  C_10
REMARK    4  A    between atoms: C_12  and  C_13
REMARK    5  A    between atoms: C_13  and  C_14
REMARK    6  A    between atoms: C_13  and  C_15
REMARK    7  A    between atoms: C_13  and  C_16
REMARK    8  A    between atoms: N_18  and  C_19
REMARK                            x       y       z     vdW  Elec       q    Type
REMARK                         _______ _______ _______ _____ _____    ______ ____
ROOT
ATOM      1  C   UNL     1       4.835   4.495  15.855  0.00  0.00    +0.000 A 
ATOM      2  C   UNL     1       4.641   3.821  14.675  0.00  0.00    +0.000 A 
ATOM      3  C   UNL     1       5.750   4.179  13.858  0.00  0.00    +0.000 A 
ATOM      4  N   UNL     1       6.539   5.071  14.482  0.00  0.00    +0.000 NA
ATOM      5  N   UNL     1       6.067   5.121  15.749  0.00  0.00    +0.000 N 
ENDROOT
BRANCH   5   6
ATOM      6  C   UNL     1       6.828   5.682  16.809  0.00  0.00    +0.000 A 
ATOM      7  C   UNL     1       7.249   4.876  17.872  0.00  0.00    +0.000 A 
ATOM      8  C   UNL     1       7.993   5.441  18.914  0.00  0.00    +0.000 A 
ATOM      9  C   UNL     1       8.286   6.805  18.915  0.00  0.00    +0.000 A 
ATOM     10  C   UNL     1       7.841   7.618  17.879  0.00  0.00    +0.000 A 
ATOM     11  C   UNL     1       7.115   7.059  16.824  0.00  0.00    +0.000 A 
ENDBRANCH   5   6
BRANCH   1  14
ATOM     12  C   UNL     1       3.572   3.525  17.770  0.00  0.00    +0.000 C 
ATOM     13  O   UNL     1       4.047   2.414  17.582  0.00  0.00    +0.000 OA
ATOM     14  N   UNL     1       3.951   4.614  16.918  0.00  0.00    +0.000 N 
ATOM     15  H   UNL     1       3.694   5.550  17.212  0.00  0.00    +0.000 HD
BRANCH  12  21
ATOM     16  C   UNL     1       0.799   2.231  18.682  0.00  0.00    +0.000 C 
ATOM     17  C   UNL     1       1.503   3.395  19.300  0.00  0.00    +0.000 A 
ATOM     18  C   UNL     1       0.985   4.107  20.432  0.00  0.00    +0.000 A 
ATOM     19  C   UNL     1       1.805   5.128  20.846  0.00  0.00    +0.000 A 
ATOM     20  S   UNL     1       3.204   5.241  19.887  0.00  0.00    +0.000 S 
ATOM     21  C   UNL     1       2.718   3.930  18.880  0.00  0.00    +0.000 A 
ENDBRANCH  12  21
ENDBRANCH   1  14
BRANCH   3  22
ATOM     22  C   UNL     1       6.072   3.716  12.440  0.00  0.00    +0.000 C 
ATOM     23  C   UNL     1       4.823   3.810  11.546  0.00  0.00    +0.000 C 
ATOM     24  C   UNL     1       7.191   4.581  11.817  0.00  0.00    +0.000 C 
ATOM     25  C   UNL     1       6.568   2.254  12.437  0.00  0.00    +0.000 C 
ENDBRANCH   3  22
TORSDOF 4
ENDMDL
MODEL 6
REMARK VINA RESULT:      -7.9      3.103      5.826
REMARK  Name = 
REMARK  8 active torsions:
REMARK  status: ('A' for Active; 'I' for Inactive)
REMARK    1  A    between atoms: C_1  and  C_2
REMARK    2  A    between atoms: C_6  and  C_7
REMARK    3  A    between atoms: N_9  and  C_10
REMARK    4  A    between atoms: C_12  and  C_13
REMARK    5  A    between atoms: C_13  and  C_14
REMARK    6  A    between atoms: C_13  and  C_15
REMARK    7  A    between atoms: C_13  and  C_16
REMARK    8  A    between atoms: N_18  and  C_19
REMARK                            x       y       z     vdW  Elec       q    Type
REMARK                         _______ _______ _______ _____ _____    ______ ____
ROOT
ATOM      1  C   UNL     1       5.272   3.945  16.107  0.00  0.00    +0.000 A 
ATOM      2  C   UNL     1       5.111   3.295  14.909  0.00  0.00    +0.000 A 
ATOM      3  C   UNL     1       5.910   4.024  13.983  0.00  0.00    +0.000 A 
ATOM      4  N   UNL     1       6.473   5.093  14.571  0.00  0.00    +0.000 NA
ATOM      5  N   UNL     1       6.217   4.935  15.890  0.00  0.00    +0.000 N 
ENDROOT
BRANCH   5   6
ATOM      6  C   UNL     1       6.925   5.665  16.882  0.00  0.00    +0.000 A 
ATOM      7  C   UNL     1       7.430   5.007  18.008  0.00  0.00    +0.000 A 
ATOM      8  C   UNL     1       8.120   5.736  18.982  0.00  0.00    +0.000 A 
ATOM      9  C   UNL     1       8.278   7.117  18.853  0.00  0.00    +0.000 A 
ATOM     10  C   UNL     1       7.749   7.782  17.753  0.00  0.00    +0.000 A 
ATOM     11  C   UNL     1       7.075   7.058  16.766  0.00  0.00    +0.000 A 
ENDBRANCH   5   6
BRANCH   1  14
ATOM     12  C   UNL     1       3.663   4.673  17.863  0.00  0.00    +0.000 C 
ATOM     13  O   UNL     1       3.456   5.738  17.299  0.00  0.00    +0.000 OA
ATOM     14  N   UNL     1       4.576   3.729  17.288  0.00  0.00    +0.000 N 
ATOM     15  H   UNL     1       4.581   2.789  17.670  0.00  0.00    +0.000 HD
BRANCH  12  21
ATOM     16  C   UNL     1       2.151   6.350  20.121  0.00  0.00    +0.000 C 
ATOM     17  C   UNL     1       2.314   4.866  20.049  0.00  0.00    +0.000 A 
ATOM     18  C   UNL     1       1.785   3.977  21.042  0.00  0.00    +0.000 A 
ATOM     19  C   UNL     1       2.035   2.654  20.766  0.00  0.00    +0.000 A 
ATOM     20  S   UNL     1       2.899   2.465  19.315  0.00  0.00    +0.000 S 
ATOM     21  C   UNL     1       2.974   4.166  19.043  0.00  0.00    +0.000 A 
ENDBRANCH  12  21
ENDBRANCH   1  14
BRANCH   3  22
ATOM     22  C   UNL     1       6.129   3.749  12.498  0.00  0.00    +0.000 C 
ATOM     23  C   UNL     1       7.204   4.693  11.928  0.00  0.00    +0.000 C 
ATOM     24  C   UNL     1       6.582   2.290  12.266  0.00  0.00    +0.000 C 
ATOM     25  C   UNL     1       4.823   3.957  11.701  0.00  0.00    +0.000 C 
ENDBRANCH   3  22
TORSDOF 4
ENDMDL
MODEL 7
REMARK VINA RESULT:      -7.8      0.975      1.398
REMARK  Name = 
REMARK  8 active torsions:
REMARK  status: ('A' for Active; 'I' for Inactive)
REMARK    1  A    between atoms: C_1  and  C_2
REMARK    2  A    between atoms: C_6  and  C_7
REMARK    3  A    between atoms: N_9  and  C_10
REMARK    4  A    between atoms: C_12  and  C_13
REMARK    5  A    between atoms: C_13  and  C_14
REMARK    6  A    between atoms: C_13  and  C_15
REMARK    7  A    between atoms: C_13  and  C_16
REMARK    8  A    between atoms: N_18  and  C_19
REMARK                            x       y       z     vdW  Elec       q    Type
REMARK                         _______ _______ _______ _____ _____    ______ ____
ROOT
ATOM      1  C   UNL     1       3.404   6.823  18.062  0.00  0.00    +0.000 A 
ATOM      2  C   UNL     1       4.577   7.148  17.427  0.00  0.00    +0.000 A 
ATOM      3  C   UNL     1       5.443   6.043  17.662  0.00  0.00    +0.000 A 
ATOM      4  N   UNL     1       4.853   5.128  18.449  0.00  0.00    +0.000 NA
ATOM      5  N   UNL     1       3.565   5.533  18.541  0.00  0.00    +0.000 N 
ENDROOT
BRANCH   5   6
ATOM      6  C   UNL     1       2.539   4.664  19.000  0.00  0.00    +0.000 A 
ATOM      7  C   UNL     1       1.786   3.924  18.082  0.00  0.00    +0.000 A 
ATOM      8  C   UNL     1       0.773   3.076  18.545  0.00  0.00    +0.000 A 
ATOM      9  C   UNL     1       0.491   2.990  19.909  0.00  0.00    +0.000 A 
ATOM     10  C   UNL     1       1.214   3.749  20.823  0.00  0.00    +0.000 A 
ATOM     11  C   UNL     1       2.239   4.583  20.371  0.00  0.00    +0.000 A 
ENDBRANCH   5   6
BRANCH   1  14
ATOM     12  C   UNL     1       1.899   8.126  19.558  0.00  0.00    +0.000 C 
ATOM     13  O   UNL     1       2.553   7.833  20.549  0.00  0.00    +0.000 OA
ATOM     14  N   UNL     1       2.301   7.638  18.272  0.00  0.00    +0.000 N 
ATOM     15  H   UNL     1       1.860   8.049  17.456  0.00  0.00    +0.000 HD
BRANCH  12  21
ATOM     16  C   UNL     1      -0.162   8.855  21.885  0.00  0.00    +0.000 C 
ATOM     17  C   UNL     1      -0.144   9.388  20.489  0.00  0.00    +0.000 A 
ATOM     18  C   UNL     1      -1.106  10.335  20.006  0.00  0.00    +0.000 A 
ATOM     19  C   UNL     1      -0.890  10.702  18.700  0.00  0.00    +0.000 A 
ATOM     20  S   UNL     1       0.468   9.921  18.043  0.00  0.00    +0.000 S 
ATOM     21  C   UNL     1       0.776   9.053  19.500  0.00  0.00    +0.000 A 
ENDBRANCH  12  21
ENDBRANCH   1  14
BRANCH   3  22
ATOM     22  C   UNL     1       6.877   5.843  17.179  0.00  0.00    +0.000 C 
ATOM     23  C   UNL     1       6.891   5.362  15.716  0.00  0.00    +0.000 C 
ATOM     24  C   UNL     1       7.681   7.159  17.273  0.00  0.00    +0.000 C 
ATOM     25  C   UNL     1       7.609   4.795  18.046  0.00  0.00    +0.000 C 
ENDBRANCH   3  22
TORSDOF 4
ENDMDL
MODEL 8
REMARK VINA RESULT:      -7.7      3.426      5.896
REMARK  Name = 
REMARK  8 active torsions:
REMARK  status: ('A' for Active; 'I' for Inactive)
REMARK    1  A    between atoms: C_1  and  C_2
REMARK    2  A    between atoms: C_6  and  C_7
REMARK    3  A    between atoms: N_9  and  C_10
REMARK    4  A    between atoms: C_12  and  C_13
REMARK    5  A    between atoms: C_13  and  C_14
REMARK    6  A    between atoms: C_13  and  C_15
REMARK    7  A    between atoms: C_13  and  C_16
REMARK    8  A    between atoms: N_18  and  C_19
REMARK                            x       y       z     vdW  Elec       q    Type
REMARK                         _______ _______ _______ _____ _____    ______ ____
ROOT
ATOM      1  C   UNL     1       4.712   4.379  15.812  0.00  0.00    +0.000 A 
ATOM      2  C   UNL     1       4.530   3.711  14.627  0.00  0.00    +0.000 A 
ATOM      3  C   UNL     1       5.642   4.080  13.819  0.00  0.00    +0.000 A 
ATOM      4  N   UNL     1       6.421   4.973  14.452  0.00  0.00    +0.000 NA
ATOM      5  N   UNL     1       5.941   5.013  15.717  0.00  0.00    +0.000 N 
ENDROOT
BRANCH   5   6
ATOM      6  C   UNL     1       6.691   5.574  16.785  0.00  0.00    +0.000 A 
ATOM      7  C   UNL     1       7.020   6.934  16.771  0.00  0.00    +0.000 A 
ATOM      8  C   UNL     1       7.765   7.474  17.824  0.00  0.00    +0.000 A 
ATOM      9  C   UNL     1       8.209   6.661  18.868  0.00  0.00    +0.000 A 
ATOM     10  C   UNL     1       7.914   5.302  18.870  0.00  0.00    +0.000 A 
ATOM     11  C   UNL     1       7.154   4.758  17.832  0.00  0.00    +0.000 A 
ENDBRANCH   5   6
BRANCH   1  14
ATOM     12  C   UNL     1       3.538   3.424  17.789  0.00  0.00    +0.000 C 
ATOM     13  O   UNL     1       4.108   2.349  17.668  0.00  0.00    +0.000 OA
ATOM     14  N   UNL     1       3.820   4.486  16.869  0.00  0.00    +0.000 N 
ATOM     15  H   UNL     1       3.483   5.413  17.106  0.00  0.00    +0.000 HD
BRANCH  12  21
ATOM     16  C   UNL     1       0.734   2.131  18.604  0.00  0.00    +0.000 C 
ATOM     17  C   UNL     1       1.423   3.286  19.254  0.00  0.00    +0.000 A 
ATOM     18  C   UNL     1       0.872   3.989  20.376  0.00  0.00    +0.000 A 
ATOM     19  C   UNL     1       1.683   5.004  20.825  0.00  0.00    +0.000 A 
ATOM     20  S   UNL     1       3.110   5.121  19.911  0.00  0.00    +0.000 S 
ATOM     21  C   UNL     1       2.652   3.821  18.877  0.00  0.00    +0.000 A 
ENDBRANCH  12  21
ENDBRANCH   1  14
BRANCH   3  22
ATOM     22  C   UNL     1       5.975   3.627  12.400  0.00  0.00    +0.000 C 
ATOM     23  C   UNL     1       7.132   4.465  11.825  0.00  0.00    +0.000 C 
ATOM     24  C   UNL     1       6.386   2.138  12.378  0.00  0.00    +0.000 C 
ATOM     25  C   UNL     1       4.751   3.780  11.471  0.00  0.00    +0.000 C 
ENDBRANCH   3  22
TORSDOF 4
ENDMDL
MODEL 9
REMARK VINA RESULT:      -7.7      2.342      6.257
REMARK  Name = 
REMARK  8 active torsions:
REMARK  status: ('A' for Active; 'I' for Inactive)
REMARK    1  A    between atoms: C_1  and  C_2
REMARK    2  A    between atoms: C_6  and  C_7
REMARK    3  A    between atoms: N_9  and  C_10
REMARK    4  A    between atoms: C_12  and  C_13
REMARK    5  A    between atoms: C_13  and  C_14
REMARK    6  A    between atoms: C_13  and  C_15
REMARK    7  A    between atoms: C_13  and  C_16
REMARK    8  A    between atoms: N_18  and  C_19
REMARK                            x       y       z     vdW  Elec       q    Type
REMARK                         _______ _______ _______ _____ _____    ______ ____
ROOT
ATOM      1  C   UNL     1       2.677   6.764  19.320  0.00  0.00    +0.000 A 
ATOM      2  C   UNL     1       2.473   8.050  19.756  0.00  0.00    +0.000 A 
ATOM      3  C   UNL     1       1.365   7.967  20.646  0.00  0.00    +0.000 A 
ATOM      4  N   UNL     1       0.882   6.715  20.698  0.00  0.00    +0.000 NA
ATOM      5  N   UNL     1       1.788   5.968  20.026  0.00  0.00    +0.000 N 
ENDROOT
BRANCH   5   6
ATOM      6  C   UNL     1       1.824   4.552  20.140  0.00  0.00    +0.000 A 
ATOM      7  C   UNL     1       1.415   3.753  19.068  0.00  0.00    +0.000 A 
ATOM      8  C   UNL     1       1.448   2.359  19.194  0.00  0.00    +0.000 A 
ATOM      9  C   UNL     1       1.853   1.767  20.391  0.00  0.00    +0.000 A 
ATOM     10  C   UNL     1       2.228   2.557  21.472  0.00  0.00    +0.000 A 
ATOM     11  C   UNL     1       2.217   3.948  21.348  0.00  0.00    +0.000 A 
ENDBRANCH   5   6
BRANCH   1  14
ATOM     12  C   UNL     1       4.785   5.686  18.551  0.00  0.00    +0.000 C 
ATOM     13  O   UNL     1       5.149   5.470  19.698  0.00  0.00    +0.000 OA
ATOM     14  N   UNL     1       3.530   6.337  18.314  0.00  0.00    +0.000 N 
ATOM     15  H   UNL     1       3.170   6.329  17.365  0.00  0.00    +0.000 HD
BRANCH  12  21
ATOM     16  C   UNL     1       7.437   6.852  17.207  0.00  0.00    +0.000 C 
ATOM     17  C   UNL     1       6.591   5.723  16.714  0.00  0.00    +0.000 A 
ATOM     18  C   UNL     1       6.885   4.998  15.512  0.00  0.00    +0.000 A 
ATOM     19  C   UNL     1       5.987   3.990  15.260  0.00  0.00    +0.000 A 
ATOM     20  S   UNL     1       4.787   3.899  16.459  0.00  0.00    +0.000 S 
ATOM     21  C   UNL     1       5.442   5.234  17.331  0.00  0.00    +0.000 A 
ENDBRANCH  12  21
ENDBRANCH   1  14
BRANCH   3  22
ATOM     22  C   UNL     1       0.704   9.088  21.444  0.00  0.00    +0.000 C 
ATOM     23  C   UNL     1       0.585  10.362  20.587  0.00  0.00    +0.000 C 
ATOM     24  C   UNL     1      -0.709   8.674  21.911  0.00  0.00    +0.000 C 
ATOM     25  C   UNL     1       1.526   9.423  22.708  0.00  0.00    +0.000 C 
ENDBRANCH   3  22
TORSDOF 4
ENDMDL
