MODEL 1
REMARK VINA RESULT:      -6.5      0.000      0.000
REMARK  Name = 
REMARK  4 active torsions:
REMARK  status: ('A' for Active; 'I' for Inactive)
REMARK    1  A    between atoms: C_4  and  N_5
REMARK    2  A    between atoms: N_8  and  C_9
REMARK    3  A    between atoms: N_20  and  C_21
REMARK    4  A    between atoms: C_21  and  C_22
REMARK                            x       y       z     vdW  Elec       q    Type
REMARK                         _______ _______ _______ _____ _____    ______ ____
ROOT
ATOM      1  O   UNL     1      -2.047  14.052  20.373  0.00  0.00    +0.000 OA
ATOM      2  C   UNL     1      -1.644  13.019  20.891  0.00  0.00    +0.000 C 
ATOM      3  C   UNL     1      -1.187  11.823  20.116  0.00  0.00    +0.000 C 
ATOM      4  C   UNL     1      -0.611  10.867  21.167  0.00  0.00    +0.000 C 
ATOM      5  C   UNL     1      -1.163  11.469  22.465  0.00  0.00    +0.000 C 
ATOM      6  O   UNL     1      -1.210  10.892  23.545  0.00  0.00    +0.000 OA
ATOM      7  N   UNL     1      -1.615  12.732  22.215  0.00  0.00    +0.000 N 
ENDROOT
BRANCH   4   8
ATOM      8  N   UNL     1       0.875  10.810  21.198  0.00  0.00    +0.000 NA
ATOM      9  C   UNL     1       1.383   9.625  21.950  0.00  0.00    +0.000 C 
ATOM     10  C   UNL     1       1.161   8.252  21.269  0.00  0.00    +0.000 C 
ATOM     11  N   UNL     1       1.653   8.273  19.880  0.00  0.00    +0.000 N 
ATOM     12  C   UNL     1       1.279   9.431  19.061  0.00  0.00    +0.000 C 
ATOM     13  C   UNL     1       1.502  10.743  19.852  0.00  0.00    +0.000 C 
BRANCH  11  14
ATOM     14  C   UNL     1       2.260   7.167  19.311  0.00  0.00    +0.000 A 
ATOM     15  C   UNL     1       2.990   7.242  18.114  0.00  0.00    +0.000 A 
ATOM     16  C   UNL     1       3.665   6.131  17.593  0.00  0.00    +0.000 A 
ATOM     17  C   UNL     1       3.614   4.923  18.271  0.00  0.00    +0.000 A 
ATOM     18  F   UNL     1       4.276   3.862  17.791  0.00  0.00    +0.000 F 
ATOM     19  C   UNL     1       2.896   4.805  19.449  0.00  0.00    +0.000 A 
ATOM     20  C   UNL     1       2.224   5.919  19.957  0.00  0.00    +0.000 A 
ENDBRANCH  11  14
ENDBRANCH   4   8
BRANCH   7  21
ATOM     21  C   UNL     1      -2.068  13.643  23.251  0.00  0.00    +0.000 C 
BRANCH  21  22
ATOM     22  C   UNL     1      -3.514  13.360  23.543  0.00  0.00    +0.000 A 
ATOM     23  C   UNL     1      -4.047  12.517  24.503  0.00  0.00    +0.000 A 
ATOM     24  C   UNL     1      -5.466  12.434  24.425  0.00  0.00    +0.000 A 
ATOM     25  C   UNL     1      -5.976  13.260  23.449  0.00  0.00    +0.000 A 
ATOM     26  S   UNL     1      -4.747  14.122  22.630  0.00  0.00    +0.000 S 
ENDBRANCH  21  22
ENDBRANCH   7  21
TORSDOF 4
ENDMDL
MODEL 2
REMARK VINA RESULT:      -6.3      4.679      9.264
REMARK  Name = 
REMARK  4 active torsions:
REMARK  status: ('A' for Active; 'I' for Inactive)
REMARK    1  A    between atoms: C_4  and  N_5
REMARK    2  A    between atoms: N_8  and  C_9
REMARK    3  A    between atoms: N_20  and  C_21
REMARK    4  A    between atoms: C_21  and  C_22
REMARK                            x       y       z     vdW  Elec       q    Type
REMARK                         _______ _______ _______ _____ _____    ______ ____
ROOT
ATOM      1  O   UNL     1       2.422   8.903  17.011  0.00  0.00    +0.000 OA
ATOM      2  C   UNL     1       2.111   8.650  18.167  0.00  0.00    +0.000 C 
ATOM      3  C   UNL     1       1.711   9.689  19.168  0.00  0.00    +0.000 C 
ATOM      4  C   UNL     1       1.241   8.898  20.394  0.00  0.00    +0.000 C 
ATOM      5  C   UNL     1       1.795   7.501  20.088  0.00  0.00    +0.000 C 
ATOM      6  O   UNL     1       1.920   6.598  20.908  0.00  0.00    +0.000 OA
ATOM      7  N   UNL     1       2.148   7.438  18.772  0.00  0.00    +0.000 N 
ENDROOT
BRANCH   4   8
ATOM      8  N   UNL     1      -0.236   8.858  20.570  0.00  0.00    +0.000 NA
ATOM      9  C   UNL     1      -0.634   8.765  22.005  0.00  0.00    +0.000 C 
ATOM     10  C   UNL     1      -0.383  10.036  22.854  0.00  0.00    +0.000 C 
ATOM     11  N   UNL     1      -0.959  11.223  22.200  0.00  0.00    +0.000 N 
ATOM     12  C   UNL     1      -0.696  11.383  20.766  0.00  0.00    +0.000 C 
ATOM     13  C   UNL     1      -0.939  10.047  20.023  0.00  0.00    +0.000 C 
BRANCH  11  14
ATOM     14  C   UNL     1      -1.541  12.242  22.933  0.00  0.00    +0.000 A 
ATOM     15  C   UNL     1      -0.904  13.476  23.145  0.00  0.00    +0.000 A 
ATOM     16  C   UNL     1      -1.539  14.525  23.822  0.00  0.00    +0.000 A 
ATOM     17  C   UNL     1      -2.829  14.347  24.298  0.00  0.00    +0.000 A 
ATOM     18  F   UNL     1      -3.449  15.354  24.926  0.00  0.00    +0.000 F 
ATOM     19  C   UNL     1      -3.486  13.142  24.120  0.00  0.00    +0.000 A 
ATOM     20  C   UNL     1      -2.842  12.102  23.447  0.00  0.00    +0.000 A 
ENDBRANCH  11  14
ENDBRANCH   4   8
BRANCH   7  21
ATOM     21  C   UNL     1       2.572   6.217  18.111  0.00  0.00    +0.000 C 
BRANCH  21  22
ATOM     22  C   UNL     1       4.073   6.145  18.147  0.00  0.00    +0.000 A 
ATOM     23  C   UNL     1       4.982   6.764  17.308  0.00  0.00    +0.000 A 
ATOM     24  C   UNL     1       6.326   6.390  17.594  0.00  0.00    +0.000 A 
ATOM     25  C   UNL     1       6.405   5.546  18.678  0.00  0.00    +0.000 A 
ATOM     26  S   UNL     1       4.866   5.204  19.339  0.00  0.00    +0.000 S 
ENDBRANCH  21  22
ENDBRANCH   7  21
TORSDOF 4
ENDMDL
MODEL 3
REMARK VINA RESULT:      -6.3      1.685      2.689
REMARK  Name = 
REMARK  4 active torsions:
REMARK  status: ('A' for Active; 'I' for Inactive)
REMARK    1  A    between atoms: C_4  and  N_5
REMARK    2  A    between atoms: N_8  and  C_9
REMARK    3  A    between atoms: N_20  and  C_21
REMARK    4  A    between atoms: C_21  and  C_22
REMARK                            x       y       z     vdW  Elec       q    Type
REMARK                         _______ _______ _______ _____ _____    ______ ____
ROOT
ATOM      1  O   UNL     1      -0.674  12.624  23.165  0.00  0.00    +0.000 OA
ATOM      2  C   UNL     1      -0.378  12.391  22.001  0.00  0.00    +0.000 C 
ATOM      3  C   UNL     1       0.635  11.370  21.588  0.00  0.00    +0.000 C 
ATOM      4  C   UNL     1       0.533  11.305  20.060  0.00  0.00    +0.000 C 
ATOM      5  C   UNL     1      -0.257  12.584  19.752  0.00  0.00    +0.000 C 
ATOM      6  O   UNL     1      -0.339  13.111  18.649  0.00  0.00    +0.000 OA
ATOM      7  N   UNL     1      -0.825  13.046  20.902  0.00  0.00    +0.000 N 
ENDROOT
BRANCH   4   8
ATOM      8  N   UNL     1      -0.175  10.104  19.541  0.00  0.00    +0.000 NA
ATOM      9  C   UNL     1       0.150   9.826  18.112  0.00  0.00    +0.000 C 
ATOM     10  C   UNL     1       1.589   9.324  17.837  0.00  0.00    +0.000 C 
ATOM     11  N   UNL     1       1.918   8.181  18.707  0.00  0.00    +0.000 N 
ATOM     12  C   UNL     1       1.575   8.309  20.127  0.00  0.00    +0.000 C 
ATOM     13  C   UNL     1       0.135   8.856  20.285  0.00  0.00    +0.000 C 
BRANCH  11  14
ATOM     14  C   UNL     1       2.695   7.129  18.256  0.00  0.00    +0.000 A 
ATOM     15  C   UNL     1       2.353   5.787  18.488  0.00  0.00    +0.000 A 
ATOM     16  C   UNL     1       3.107   4.732  17.957  0.00  0.00    +0.000 A 
ATOM     17  C   UNL     1       4.221   5.014  17.182  0.00  0.00    +0.000 A 
ATOM     18  F   UNL     1       4.933   4.011  16.653  0.00  0.00    +0.000 F 
ATOM     19  C   UNL     1       4.598   6.324  16.939  0.00  0.00    +0.000 A 
ATOM     20  C   UNL     1       3.841   7.367  17.477  0.00  0.00    +0.000 A 
ENDBRANCH  11  14
ENDBRANCH   4   8
BRANCH   7  21
ATOM     21  C   UNL     1      -1.761  14.156  20.946  0.00  0.00    +0.000 C 
BRANCH  21  22
ATOM     22  C   UNL     1      -3.152  13.607  21.094  0.00  0.00    +0.000 A 
ATOM     23  C   UNL     1      -3.848  12.786  20.224  0.00  0.00    +0.000 A 
ATOM     24  C   UNL     1      -5.182  12.543  20.657  0.00  0.00    +0.000 A 
ATOM     25  C   UNL     1      -5.443  13.134  21.872  0.00  0.00    +0.000 A 
ATOM     26  S   UNL     1      -4.089  13.984  22.478  0.00  0.00    +0.000 S 
ENDBRANCH  21  22
ENDBRANCH   7  21
TORSDOF 4
ENDMDL
MODEL 4
REMARK VINA RESULT:      -6.2      1.632      2.417
REMARK  Name = 
REMARK  4 active torsions:
REMARK  status: ('A' for Active; 'I' for Inactive)
REMARK    1  A    between atoms: C_4  and  N_5
REMARK    2  A    between atoms: N_8  and  C_9
REMARK    3  A    between atoms: N_20  and  C_21
REMARK    4  A    between atoms: C_21  and  C_22
REMARK                            x       y       z     vdW  Elec       q    Type
REMARK                         _______ _______ _______ _____ _____    ______ ____
ROOT
ATOM      1  O   UNL     1      -0.308  13.245  22.853  0.00  0.00    +0.000 OA
ATOM      2  C   UNL     1      -0.187  12.903  21.685  0.00  0.00    +0.000 C 
ATOM      3  C   UNL     1       0.799  11.879  21.216  0.00  0.00    +0.000 C 
ATOM      4  C   UNL     1       0.461  11.651  19.738  0.00  0.00    +0.000 C 
ATOM      5  C   UNL     1      -0.431  12.863  19.438  0.00  0.00    +0.000 C 
ATOM      6  O   UNL     1      -0.712  13.269  18.317  0.00  0.00    +0.000 OA
ATOM      7  N   UNL     1      -0.834  13.424  20.615  0.00  0.00    +0.000 N 
ENDROOT
BRANCH   4   8
ATOM      8  N   UNL     1      -0.258  10.379  19.461  0.00  0.00    +0.000 NA
ATOM      9  C   UNL     1       0.090   9.809  18.126  0.00  0.00    +0.000 C 
ATOM     10  C   UNL     1       1.525   9.242  17.992  0.00  0.00    +0.000 C 
ATOM     11  N   UNL     1       1.817   8.298  19.086  0.00  0.00    +0.000 N 
ATOM     12  C   UNL     1       1.449   8.719  20.441  0.00  0.00    +0.000 C 
ATOM     13  C   UNL     1       0.016   9.306  20.451  0.00  0.00    +0.000 C 
BRANCH  11  14
ATOM     14  C   UNL     1       2.583   7.165  18.877  0.00  0.00    +0.000 A 
ATOM     15  C   UNL     1       3.508   7.065  17.825  0.00  0.00    +0.000 A 
ATOM     16  C   UNL     1       4.333   5.944  17.674  0.00  0.00    +0.000 A 
ATOM     17  C   UNL     1       4.240   4.902  18.584  0.00  0.00    +0.000 A 
ATOM     18  F   UNL     1       5.042   3.837  18.459  0.00  0.00    +0.000 F 
ATOM     19  C   UNL     1       3.333   4.957  19.628  0.00  0.00    +0.000 A 
ATOM     20  C   UNL     1       2.513   6.079  19.766  0.00  0.00    +0.000 A 
ENDBRANCH  11  14
ENDBRANCH   4   8
BRANCH   7  21
ATOM     21  C   UNL     1      -1.806  14.499  20.701  0.00  0.00    +0.000 C 
BRANCH  21  22
ATOM     22  C   UNL     1      -3.109  13.932  21.189  0.00  0.00    +0.000 A 
ATOM     23  C   UNL     1      -3.735  14.142  22.405  0.00  0.00    +0.000 A 
ATOM     24  C   UNL     1      -4.918  13.364  22.548  0.00  0.00    +0.000 A 
ATOM     25  C   UNL     1      -5.191  12.631  21.416  0.00  0.00    +0.000 A 
ATOM     26  S   UNL     1      -4.021  12.877  20.194  0.00  0.00    +0.000 S 
ENDBRANCH  21  22
ENDBRANCH   7  21
TORSDOF 4
ENDMDL
MODEL 5
REMARK VINA RESULT:      -6.1      5.230      9.662
REMARK  Name = 
REMARK  4 active torsions:
REMARK  status: ('A' for Active; 'I' for Inactive)
REMARK    1  A    between atoms: C_4  and  N_5
REMARK    2  A    between atoms: N_8  and  C_9
REMARK    3  A    between atoms: N_20  and  C_21
REMARK    4  A    between atoms: C_21  and  C_22
REMARK                            x       y       z     vdW  Elec       q    Type
REMARK                         _______ _______ _______ _____ _____    ______ ____
ROOT
ATOM      1  O   UNL     1       2.927   3.202  21.116  0.00  0.00    +0.000 OA
ATOM      2  C   UNL     1       2.656   4.134  20.372  0.00  0.00    +0.000 C 
ATOM      3  C   UNL     1       1.560   5.119  20.636  0.00  0.00    +0.000 C 
ATOM      4  C   UNL     1       1.718   6.188  19.549  0.00  0.00    +0.000 C 
ATOM      5  C   UNL     1       2.649   5.481  18.556  0.00  0.00    +0.000 C 
ATOM      6  O   UNL     1       2.831   5.826  17.395  0.00  0.00    +0.000 OA
ATOM      7  N   UNL     1       3.214   4.400  19.166  0.00  0.00    +0.000 N 
ENDROOT
BRANCH   4   8
ATOM      8  N   UNL     1       2.318   7.464  20.025  0.00  0.00    +0.000 NA
ATOM      9  C   UNL     1       2.237   8.546  19.001  0.00  0.00    +0.000 C 
ATOM     10  C   UNL     1       0.818   9.102  18.722  0.00  0.00    +0.000 C 
ATOM     11  N   UNL     1       0.153   9.486  19.980  0.00  0.00    +0.000 N 
ATOM     12  C   UNL     1       0.229   8.529  21.089  0.00  0.00    +0.000 C 
ATOM     13  C   UNL     1       1.678   8.008  21.250  0.00  0.00    +0.000 C 
BRANCH  11  14
ATOM     14  C   UNL     1      -0.676  10.592  20.051  0.00  0.00    +0.000 A 
ATOM     15  C   UNL     1      -1.505  10.981  18.987  0.00  0.00    +0.000 A 
ATOM     16  C   UNL     1      -2.396  12.055  19.102  0.00  0.00    +0.000 A 
ATOM     17  C   UNL     1      -2.466  12.757  20.296  0.00  0.00    +0.000 A 
ATOM     18  F   UNL     1      -3.333  13.770  20.421  0.00  0.00    +0.000 F 
ATOM     19  C   UNL     1      -1.658  12.411  21.365  0.00  0.00    +0.000 A 
ATOM     20  C   UNL     1      -0.770  11.341  21.237  0.00  0.00    +0.000 A 
ENDBRANCH  11  14
ENDBRANCH   4   8
BRANCH   7  21
ATOM     21  C   UNL     1       4.258   3.591  18.562  0.00  0.00    +0.000 C 
BRANCH  21  22
ATOM     22  C   UNL     1       5.478   4.447  18.366  0.00  0.00    +0.000 A 
ATOM     23  C   UNL     1       6.139   5.226  19.300  0.00  0.00    +0.000 A 
ATOM     24  C   UNL     1       7.208   5.971  18.727  0.00  0.00    +0.000 A 
ATOM     25  C   UNL     1       7.367   5.694  17.388  0.00  0.00    +0.000 A 
ATOM     26  S   UNL     1       6.228   4.548  16.830  0.00  0.00    +0.000 S 
ENDBRANCH  21  22
ENDBRANCH   7  21
TORSDOF 4
ENDMDL
MODEL 6
REMARK VINA RESULT:      -6.1      3.233      4.528
REMARK  Name = 
REMARK  4 active torsions:
REMARK  status: ('A' for Active; 'I' for Inactive)
REMARK    1  A    between atoms: C_4  and  N_5
REMARK    2  A    between atoms: N_8  and  C_9
REMARK    3  A    between atoms: N_20  and  C_21
REMARK    4  A    between atoms: C_21  and  C_22
REMARK                            x       y       z     vdW  Elec       q    Type
REMARK                         _______ _______ _______ _____ _____    ______ ____
ROOT
ATOM      1  O   UNL     1       0.719  14.113  22.301  0.00  0.00    +0.000 OA
ATOM      2  C   UNL     1       0.621  13.588  21.200  0.00  0.00    +0.000 C 
ATOM      3  C   UNL     1       1.407  12.387  20.777  0.00  0.00    +0.000 C 
ATOM      4  C   UNL     1       0.823  11.989  19.417  0.00  0.00    +0.000 C 
ATOM      5  C   UNL     1       0.029  13.249  19.045  0.00  0.00    +0.000 C 
ATOM      6  O   UNL     1      -0.377  13.517  17.920  0.00  0.00    +0.000 OA
ATOM      7  N   UNL     1      -0.125  14.024  20.156  0.00  0.00    +0.000 N 
ENDROOT
BRANCH   4   8
ATOM      8  N   UNL     1      -0.062  10.794  19.454  0.00  0.00    +0.000 NA
ATOM      9  C   UNL     1       0.053   9.964  18.220  0.00  0.00    +0.000 C 
ATOM     10  C   UNL     1       1.389   9.198  18.048  0.00  0.00    +0.000 C 
ATOM     11  N   UNL     1       1.706   8.425  19.261  0.00  0.00    +0.000 N 
ATOM     12  C   UNL     1       1.557   9.117  20.546  0.00  0.00    +0.000 C 
ATOM     13  C   UNL     1       0.211   9.880  20.592  0.00  0.00    +0.000 C 
BRANCH  11  14
ATOM     14  C   UNL     1       2.311   7.183  19.189  0.00  0.00    +0.000 A 
ATOM     15  C   UNL     1       2.162   6.213  20.194  0.00  0.00    +0.000 A 
ATOM     16  C   UNL     1       2.714   4.933  20.070  0.00  0.00    +0.000 A 
ATOM     17  C   UNL     1       3.429   4.607  18.927  0.00  0.00    +0.000 A 
ATOM     18  F   UNL     1       3.941   3.377  18.792  0.00  0.00    +0.000 F 
ATOM     19  C   UNL     1       3.608   5.538  17.918  0.00  0.00    +0.000 A 
ATOM     20  C   UNL     1       3.055   6.813  18.056  0.00  0.00    +0.000 A 
ENDBRANCH  11  14
ENDBRANCH   4   8
BRANCH   7  21
ATOM     21  C   UNL     1      -0.952  15.217  20.194  0.00  0.00    +0.000 C 
BRANCH  21  22
ATOM     22  C   UNL     1      -0.289  16.290  19.376  0.00  0.00    +0.000 A 
ATOM     23  C   UNL     1      -0.810  17.001  18.309  0.00  0.00    +0.000 A 
ATOM     24  C   UNL     1       0.147  17.876  17.722  0.00  0.00    +0.000 A 
ATOM     25  C   UNL     1       1.348  17.851  18.394  0.00  0.00    +0.000 A 
ATOM     26  S   UNL     1       1.319  16.770  19.719  0.00  0.00    +0.000 S 
ENDBRANCH  21  22
ENDBRANCH   7  21
TORSDOF 4
ENDMDL
MODEL 7
REMARK VINA RESULT:      -6.1      1.693      2.187
REMARK  Name = 
REMARK  4 active torsions:
REMARK  status: ('A' for Active; 'I' for Inactive)
REMARK    1  A    between atoms: C_4  and  N_5
REMARK    2  A    between atoms: N_8  and  C_9
REMARK    3  A    between atoms: N_20  and  C_21
REMARK    4  A    between atoms: C_21  and  C_22
REMARK                            x       y       z     vdW  Elec       q    Type
REMARK                         _______ _______ _______ _____ _____    ______ ____
ROOT
ATOM      1  O   UNL     1      -2.449  12.001  17.672  0.00  0.00    +0.000 OA
ATOM      2  C   UNL     1      -1.856  11.551  18.643  0.00  0.00    +0.000 C 
ATOM      3  C   UNL     1      -1.207  10.202  18.671  0.00  0.00    +0.000 C 
ATOM      4  C   UNL     1      -0.446  10.156  20.001  0.00  0.00    +0.000 C 
ATOM      5  C   UNL     1      -1.070  11.339  20.752  0.00  0.00    +0.000 C 
ATOM      6  O   UNL     1      -0.987  11.527  21.960  0.00  0.00    +0.000 OA
ATOM      7  N   UNL     1      -1.746  12.125  19.866  0.00  0.00    +0.000 N 
ENDROOT
BRANCH   4   8
ATOM      8  N   UNL     1       1.026  10.324  19.872  0.00  0.00    +0.000 NA
ATOM      9  C   UNL     1       1.785   9.319  20.674  0.00  0.00    +0.000 C 
ATOM     10  C   UNL     1       1.720   7.861  20.156  0.00  0.00    +0.000 C 
ATOM     11  N   UNL     1       2.070   7.799  18.726  0.00  0.00    +0.000 N 
ATOM     12  C   UNL     1       1.440   8.790  17.846  0.00  0.00    +0.000 C 
ATOM     13  C   UNL     1       1.526  10.200  18.478  0.00  0.00    +0.000 C 
BRANCH  11  14
ATOM     14  C   UNL     1       2.788   6.739  18.203  0.00  0.00    +0.000 A 
ATOM     15  C   UNL     1       2.298   5.423  18.206  0.00  0.00    +0.000 A 
ATOM     16  C   UNL     1       3.002   4.374  17.601  0.00  0.00    +0.000 A 
ATOM     17  C   UNL     1       4.215   4.634  16.983  0.00  0.00    +0.000 A 
ATOM     18  F   UNL     1       4.883   3.640  16.383  0.00  0.00    +0.000 F 
ATOM     19  C   UNL     1       4.738   5.916  16.968  0.00  0.00    +0.000 A 
ATOM     20  C   UNL     1       4.029   6.953  17.577  0.00  0.00    +0.000 A 
ENDBRANCH  11  14
ENDBRANCH   4   8
BRANCH   7  21
ATOM     21  C   UNL     1      -2.333  13.407  20.214  0.00  0.00    +0.000 C 
BRANCH  21  22
ATOM     22  C   UNL     1      -3.674  13.167  20.847  0.00  0.00    +0.000 A 
ATOM     23  C   UNL     1      -4.004  13.181  22.191  0.00  0.00    +0.000 A 
ATOM     24  C   UNL     1      -5.361  12.819  22.421  0.00  0.00    +0.000 A 
ATOM     25  C   UNL     1      -6.040  12.599  21.244  0.00  0.00    +0.000 A 
ATOM     26  S   UNL     1      -5.041  12.821  19.875  0.00  0.00    +0.000 S 
ENDBRANCH  21  22
ENDBRANCH   7  21
TORSDOF 4
ENDMDL
MODEL 8
REMARK VINA RESULT:      -6.0      0.820      1.242
REMARK  Name = 
REMARK  4 active torsions:
REMARK  status: ('A' for Active; 'I' for Inactive)
REMARK    1  A    between atoms: C_4  and  N_5
REMARK    2  A    between atoms: N_8  and  C_9
REMARK    3  A    between atoms: N_20  and  C_21
REMARK    4  A    between atoms: C_21  and  C_22
REMARK                            x       y       z     vdW  Elec       q    Type
REMARK                         _______ _______ _______ _____ _____    ______ ____
ROOT
ATOM      1  O   UNL     1      -2.102  12.893  19.266  0.00  0.00    +0.000 OA
ATOM      2  C   UNL     1      -1.633  12.146  20.114  0.00  0.00    +0.000 C 
ATOM      3  C   UNL     1      -1.129  10.767  19.821  0.00  0.00    +0.000 C 
ATOM      4  C   UNL     1      -0.479  10.297  21.128  0.00  0.00    +0.000 C 
ATOM      5  C   UNL     1      -1.035  11.317  22.130  0.00  0.00    +0.000 C 
ATOM      6  O   UNL     1      -1.026  11.183  23.348  0.00  0.00    +0.000 OA
ATOM      7  N   UNL     1      -1.559  12.375  21.447  0.00  0.00    +0.000 N 
ENDROOT
BRANCH   4   8
ATOM      8  N   UNL     1       1.008  10.317  21.117  0.00  0.00    +0.000 NA
ATOM      9  C   UNL     1       1.597   9.102  21.751  0.00  0.00    +0.000 C 
ATOM     10  C   UNL     1       1.426   7.782  20.959  0.00  0.00    +0.000 C 
ATOM     11  N   UNL     1       1.876   7.947  19.566  0.00  0.00    +0.000 N 
ATOM     12  C   UNL     1       1.419   9.149  18.860  0.00  0.00    +0.000 C 
ATOM     13  C   UNL     1       1.598  10.399  19.756  0.00  0.00    +0.000 C 
BRANCH  11  14
ATOM     14  C   UNL     1       2.522   6.928  18.889  0.00  0.00    +0.000 A 
ATOM     15  C   UNL     1       2.177   5.577  19.056  0.00  0.00    +0.000 A 
ATOM     16  C   UNL     1       2.786   4.563  18.305  0.00  0.00    +0.000 A 
ATOM     17  C   UNL     1       3.756   4.896  17.371  0.00  0.00    +0.000 A 
ATOM     18  F   UNL     1       4.326   3.934  16.634  0.00  0.00    +0.000 F 
ATOM     19  C   UNL     1       4.131   6.215  17.185  0.00  0.00    +0.000 A 
ATOM     20  C   UNL     1       3.520   7.217  17.942  0.00  0.00    +0.000 A 
ENDBRANCH  11  14
ENDBRANCH   4   8
BRANCH   7  21
ATOM     21  C   UNL     1      -2.037  13.587  22.088  0.00  0.00    +0.000 C 
BRANCH  21  22
ATOM     22  C   UNL     1      -3.415  13.334  22.631  0.00  0.00    +0.000 A 
ATOM     23  C   UNL     1      -3.790  13.082  23.939  0.00  0.00    +0.000 A 
ATOM     24  C   UNL     1      -5.180  12.801  24.060  0.00  0.00    +0.000 A 
ATOM     25  C   UNL     1      -5.833  12.906  22.853  0.00  0.00    +0.000 A 
ATOM     26  S   UNL     1      -4.771  13.333  21.584  0.00  0.00    +0.000 S 
ENDBRANCH  21  22
ENDBRANCH   7  21
TORSDOF 4
ENDMDL
MODEL 9
REMARK VINA RESULT:      -6.0      1.721      2.458
REMARK  Name = 
REMARK  4 active torsions:
REMARK  status: ('A' for Active; 'I' for Inactive)
REMARK    1  A    between atoms: C_4  and  N_5
REMARK    2  A    between atoms: N_8  and  C_9
REMARK    3  A    between atoms: N_20  and  C_21
REMARK    4  A    between atoms: C_21  and  C_22
REMARK                            x       y       z     vdW  Elec       q    Type
REMARK                         _______ _______ _______ _____ _____    ______ ____
ROOT
ATOM      1  O   UNL     1      -1.252  12.545  17.858  0.00  0.00    +0.000 OA
ATOM      2  C   UNL     1      -0.953  11.706  18.696  0.00  0.00    +0.000 C 
ATOM      3  C   UNL     1      -0.552  10.302  18.364  0.00  0.00    +0.000 C 
ATOM      4  C   UNL     1      -0.099   9.694  19.697  0.00  0.00    +0.000 C 
ATOM      5  C   UNL     1      -0.664  10.705  20.703  0.00  0.00    +0.000 C 
ATOM      6  O   UNL     1      -0.804  10.500  21.903  0.00  0.00    +0.000 OA
ATOM      7  N   UNL     1      -1.006  11.848  20.043  0.00  0.00    +0.000 N 
ENDROOT
BRANCH   4   8
ATOM      8  N   UNL     1       1.375   9.564  19.843  0.00  0.00    +0.000 NA
ATOM      9  C   UNL     1       1.756   8.605  20.921  0.00  0.00    +0.000 C 
ATOM     10  C   UNL     1       1.469   7.112  20.623  0.00  0.00    +0.000 C 
ATOM     11  N   UNL     1       2.032   6.723  19.318  0.00  0.00    +0.000 N 
ATOM     12  C   UNL     1       1.784   7.631  18.193  0.00  0.00    +0.000 C 
ATOM     13  C   UNL     1       2.062   9.095  18.613  0.00  0.00    +0.000 C 
BRANCH  11  14
ATOM     14  C   UNL     1       2.584   5.471  19.113  0.00  0.00    +0.000 A 
ATOM     15  C   UNL     1       2.791   4.559  20.160  0.00  0.00    +0.000 A 
ATOM     16  C   UNL     1       3.278   3.267  19.926  0.00  0.00    +0.000 A 
ATOM     17  C   UNL     1       3.565   2.872  18.628  0.00  0.00    +0.000 A 
ATOM     18  F   UNL     1       4.009   1.630  18.395  0.00  0.00    +0.000 F 
ATOM     19  C   UNL     1       3.385   3.745  17.569  0.00  0.00    +0.000 A 
ATOM     20  C   UNL     1       2.903   5.033  17.816  0.00  0.00    +0.000 A 
ENDBRANCH  11  14
ENDBRANCH   4   8
BRANCH   7  21
ATOM     21  C   UNL     1      -1.436  13.064  20.712  0.00  0.00    +0.000 C 
BRANCH  21  22
ATOM     22  C   UNL     1      -2.893  12.934  21.058  0.00  0.00    +0.000 A 
ATOM     23  C   UNL     1      -3.960  12.702  20.208  0.00  0.00    +0.000 A 
ATOM     24  C   UNL     1      -5.210  12.730  20.887  0.00  0.00    +0.000 A 
ATOM     25  C   UNL     1      -5.056  12.923  22.241  0.00  0.00    +0.000 A 
ATOM     26  S   UNL     1      -3.412  13.076  22.684  0.00  0.00    +0.000 S 
ENDBRANCH  21  22
ENDBRANCH   7  21
TORSDOF 4
ENDMDL
