MODEL 1
REMARK VINA RESULT:      -8.1      0.000      0.000
REMARK  Name = 
REMARK  7 active torsions:
REMARK  status: ('A' for Active; 'I' for Inactive)
REMARK    1  A    between atoms: C_1  and  C_2
REMARK    2  A    between atoms: C_2  and  C_3
REMARK    3  A    between atoms: C_2  and  C_4
REMARK    4  A    between atoms: C_2  and  N_5
REMARK    5  A    between atoms: C_9  and  N_10
REMARK    6  A    between atoms: C_11  and  C_13
REMARK    7  A    between atoms: C_15  and  N_16
REMARK                            x       y       z     vdW  Elec       q    Type
REMARK                         _______ _______ _______ _____ _____    ______ ____
ROOT
ATOM      1  N   UNL     1       3.074   4.459  19.050  0.00  0.00    +0.000 N 
ATOM      2  N   UNL     1       3.868   3.623  18.325  0.00  0.00    +0.000 NA
ATOM      3  C   UNL     1       4.719   4.434  17.716  0.00  0.00    +0.000 A 
ATOM      4  C   UNL     1       4.505   5.786  18.022  0.00  0.00    +0.000 A 
ATOM      5  C   UNL     1       3.449   5.802  18.905  0.00  0.00    +0.000 A 
ATOM      6  C   UNL     1       5.380   6.738  17.298  0.00  0.00    +0.000 C 
ATOM      7  S   UNL     1       6.214   5.692  16.059  0.00  0.00    +0.000 S 
ATOM      8  O   UNL     1       5.516   5.844  14.796  0.00  0.00    +0.000 OA
ATOM      9  O   UNL     1       7.647   5.894  16.158  0.00  0.00    +0.000 OA
ATOM     10  C   UNL     1       5.789   4.074  16.763  0.00  0.00    +0.000 C 
ENDROOT
BRANCH   1  12
ATOM     11  C   UNL     1       1.190   4.968  20.619  0.00  0.00    +0.000 C 
ATOM     12  C   UNL     1       2.027   3.869  19.912  0.00  0.00    +0.000 C 
ATOM     13  C   UNL     1       2.647   3.003  21.025  0.00  0.00    +0.000 C 
ATOM     14  C   UNL     1       1.051   3.015  19.078  0.00  0.00    +0.000 C 
ENDBRANCH   1  12
BRANCH   5  15
ATOM     15  N   UNL     1       2.836   6.896  19.506  0.00  0.00    +0.000 N 
ATOM     16  C   UNL     1       2.134   7.937  18.812  0.00  0.00    +0.000 C 
ATOM     17  O   UNL     1       2.109   7.978  17.596  0.00  0.00    +0.000 OA
ATOM     18  H   UNL     1       2.912   6.974  20.511  0.00  0.00    +0.000 HD
BRANCH  16  19
ATOM     19  C   UNL     1       1.546   9.033  19.626  0.00  0.00    +0.000 A 
ATOM     20  C   UNL     1       1.019   8.681  20.883  0.00  0.00    +0.000 A 
ATOM     21  C   UNL     1       0.425   9.659  21.695  0.00  0.00    +0.000 A 
ATOM     22  C   UNL     1       0.357  10.988  21.265  0.00  0.00    +0.000 A 
ATOM     23  C   UNL     1       0.894  11.339  20.025  0.00  0.00    +0.000 A 
ATOM     24  C   UNL     1       1.495  10.373  19.212  0.00  0.00    +0.000 A 
ATOM     25 CL   UNL     1       2.178  10.936  17.732  0.00  0.00    +0.000 Cl
BRANCH  21  26
ATOM     26  N   UNL     1      -0.137   9.287  23.001  0.00  0.00    +0.000 N 
ATOM     27  O   UNL     1      -1.154   8.583  23.002  0.00  0.00    +0.000 OA
ATOM     28  O   UNL     1       0.438   9.709  24.012  0.00  0.00    +0.000 OA
ENDBRANCH  21  26
ENDBRANCH  16  19
ENDBRANCH   5  15
TORSDOF 4
ENDMDL
MODEL 2
REMARK VINA RESULT:      -8.1      0.051      1.009
REMARK  Name = 
REMARK  7 active torsions:
REMARK  status: ('A' for Active; 'I' for Inactive)
REMARK    1  A    between atoms: C_1  and  C_2
REMARK    2  A    between atoms: C_2  and  C_3
REMARK    3  A    between atoms: C_2  and  C_4
REMARK    4  A    between atoms: C_2  and  N_5
REMARK    5  A    between atoms: C_9  and  N_10
REMARK    6  A    between atoms: C_11  and  C_13
REMARK    7  A    between atoms: C_15  and  N_16
REMARK                            x       y       z     vdW  Elec       q    Type
REMARK                         _______ _______ _______ _____ _____    ______ ____
ROOT
ATOM      1  N   UNL     1       3.058   4.475  19.028  0.00  0.00    +0.000 N 
ATOM      2  N   UNL     1       3.847   3.636  18.302  0.00  0.00    +0.000 NA
ATOM      3  C   UNL     1       4.706   4.444  17.699  0.00  0.00    +0.000 A 
ATOM      4  C   UNL     1       4.500   5.796  18.010  0.00  0.00    +0.000 A 
ATOM      5  C   UNL     1       3.443   5.815  18.890  0.00  0.00    +0.000 A 
ATOM      6  C   UNL     1       5.384   6.745  17.292  0.00  0.00    +0.000 C 
ATOM      7  S   UNL     1       6.214   5.698  16.051  0.00  0.00    +0.000 S 
ATOM      8  O   UNL     1       5.520   5.861  14.787  0.00  0.00    +0.000 OA
ATOM      9  O   UNL     1       7.648   5.890  16.155  0.00  0.00    +0.000 OA
ATOM     10  C   UNL     1       5.776   4.080  16.747  0.00  0.00    +0.000 C 
ENDROOT
BRANCH   1  12
ATOM     11  C   UNL     1       2.614   3.082  21.061  0.00  0.00    +0.000 C 
ATOM     12  C   UNL     1       2.004   3.889  19.885  0.00  0.00    +0.000 C 
ATOM     13  C   UNL     1       1.122   2.908  19.089  0.00  0.00    +0.000 C 
ATOM     14  C   UNL     1       1.120   4.994  20.497  0.00  0.00    +0.000 C 
ENDBRANCH   1  12
BRANCH   5  15
ATOM     15  N   UNL     1       2.836   6.912  19.494  0.00  0.00    +0.000 N 
ATOM     16  C   UNL     1       2.148   7.963  18.803  0.00  0.00    +0.000 C 
ATOM     17  O   UNL     1       2.130   8.012  17.587  0.00  0.00    +0.000 OA
ATOM     18  H   UNL     1       2.906   6.983  20.500  0.00  0.00    +0.000 HD
BRANCH  16  19
ATOM     19  C   UNL     1       1.565   9.059  19.620  0.00  0.00    +0.000 A 
ATOM     20  C   UNL     1       1.024   8.704  20.870  0.00  0.00    +0.000 A 
ATOM     21  C   UNL     1       0.434   9.682  21.685  0.00  0.00    +0.000 A 
ATOM     22  C   UNL     1       0.383  11.015  21.263  0.00  0.00    +0.000 A 
ATOM     23  C   UNL     1       0.933  11.369  20.030  0.00  0.00    +0.000 A 
ATOM     24  C   UNL     1       1.530  10.403  19.215  0.00  0.00    +0.000 A 
ATOM     25 CL   UNL     1       2.231  10.969  17.745  0.00  0.00    +0.000 Cl
BRANCH  21  26
ATOM     26  N   UNL     1      -0.143   9.307  22.983  0.00  0.00    +0.000 N 
ATOM     27  O   UNL     1       0.421   9.731  23.999  0.00  0.00    +0.000 OA
ATOM     28  O   UNL     1      -1.148   8.585  22.975  0.00  0.00    +0.000 OA
ENDBRANCH  21  26
ENDBRANCH  16  19
ENDBRANCH   5  15
TORSDOF 4
ENDMDL
MODEL 3
REMARK VINA RESULT:      -7.8      0.844      1.335
REMARK  Name = 
REMARK  7 active torsions:
REMARK  status: ('A' for Active; 'I' for Inactive)
REMARK    1  A    between atoms: C_1  and  C_2
REMARK    2  A    between atoms: C_2  and  C_3
REMARK    3  A    between atoms: C_2  and  C_4
REMARK    4  A    between atoms: C_2  and  N_5
REMARK    5  A    between atoms: C_9  and  N_10
REMARK    6  A    between atoms: C_11  and  C_13
REMARK    7  A    between atoms: C_15  and  N_16
REMARK                            x       y       z     vdW  Elec       q    Type
REMARK                         _______ _______ _______ _____ _____    ______ ____
ROOT
ATOM      1  N   UNL     1       3.162   4.218  19.107  0.00  0.00    +0.000 N 
ATOM      2  N   UNL     1       4.053   3.490  18.378  0.00  0.00    +0.000 NA
ATOM      3  C   UNL     1       4.835   4.403  17.822  0.00  0.00    +0.000 A 
ATOM      4  C   UNL     1       4.479   5.715  18.166  0.00  0.00    +0.000 A 
ATOM      5  C   UNL     1       3.405   5.594  19.018  0.00  0.00    +0.000 A 
ATOM      6  C   UNL     1       5.274   6.774  17.500  0.00  0.00    +0.000 C 
ATOM      7  S   UNL     1       6.239   5.861  16.251  0.00  0.00    +0.000 S 
ATOM      8  O   UNL     1       5.562   5.989  14.975  0.00  0.00    +0.000 OA
ATOM      9  O   UNL     1       7.642   6.200  16.399  0.00  0.00    +0.000 OA
ATOM     10  C   UNL     1       5.960   4.184  16.889  0.00  0.00    +0.000 C 
ENDROOT
BRANCH   1  12
ATOM     11  C   UNL     1       1.435   2.405  19.086  0.00  0.00    +0.000 C 
ATOM     12  C   UNL     1       2.157   3.496  19.918  0.00  0.00    +0.000 C 
ATOM     13  C   UNL     1       1.064   4.455  20.430  0.00  0.00    +0.000 C 
ATOM     14  C   UNL     1       2.825   2.792  21.116  0.00  0.00    +0.000 C 
ENDBRANCH   1  12
BRANCH   5  15
ATOM     15  N   UNL     1       2.671   6.601  19.637  0.00  0.00    +0.000 N 
ATOM     16  C   UNL     1       2.011   7.681  18.961  0.00  0.00    +0.000 C 
ATOM     17  O   UNL     1       2.134   7.842  17.762  0.00  0.00    +0.000 OA
ATOM     18  H   UNL     1       2.618   6.580  20.646  0.00  0.00    +0.000 HD
BRANCH  16  19
ATOM     19  C   UNL     1       1.275   8.668  19.794  0.00  0.00    +0.000 A 
ATOM     20  C   UNL     1       1.512   8.634  21.181  0.00  0.00    +0.000 A 
ATOM     21  C   UNL     1       0.834   9.519  22.032  0.00  0.00    +0.000 A 
ATOM     22  C   UNL     1      -0.078  10.443  21.509  0.00  0.00    +0.000 A 
ATOM     23  C   UNL     1      -0.301  10.485  20.131  0.00  0.00    +0.000 A 
ATOM     24  C   UNL     1       0.376   9.612  19.275  0.00  0.00    +0.000 A 
ATOM     25 CL   UNL     1       0.066   9.801  17.589  0.00  0.00    +0.000 Cl
BRANCH  21  26
ATOM     26  N   UNL     1       1.072   9.474  23.482  0.00  0.00    +0.000 N 
ATOM     27  O   UNL     1       2.231   9.265  23.860  0.00  0.00    +0.000 OA
ATOM     28  O   UNL     1       0.098   9.639  24.226  0.00  0.00    +0.000 OA
ENDBRANCH  21  26
ENDBRANCH  16  19
ENDBRANCH   5  15
TORSDOF 4
ENDMDL
MODEL 4
REMARK VINA RESULT:      -7.7      2.369      2.720
REMARK  Name = 
REMARK  7 active torsions:
REMARK  status: ('A' for Active; 'I' for Inactive)
REMARK    1  A    between atoms: C_1  and  C_2
REMARK    2  A    between atoms: C_2  and  C_3
REMARK    3  A    between atoms: C_2  and  C_4
REMARK    4  A    between atoms: C_2  and  N_5
REMARK    5  A    between atoms: C_9  and  N_10
REMARK    6  A    between atoms: C_11  and  C_13
REMARK    7  A    between atoms: C_15  and  N_16
REMARK                            x       y       z     vdW  Elec       q    Type
REMARK                         _______ _______ _______ _____ _____    ______ ____
ROOT
ATOM      1  N   UNL     1       3.231   4.539  19.122  0.00  0.00    +0.000 N 
ATOM      2  N   UNL     1       4.105   3.716  18.477  0.00  0.00    +0.000 NA
ATOM      3  C   UNL     1       4.898   4.545  17.816  0.00  0.00    +0.000 A 
ATOM      4  C   UNL     1       4.567   5.894  18.008  0.00  0.00    +0.000 A 
ATOM      5  C   UNL     1       3.498   5.892  18.874  0.00  0.00    +0.000 A 
ATOM      6  C   UNL     1       5.375   6.855  17.220  0.00  0.00    +0.000 C 
ATOM      7  S   UNL     1       6.316   5.787  16.080  0.00  0.00    +0.000 S 
ATOM      8  O   UNL     1       5.631   5.779  14.801  0.00  0.00    +0.000 OA
ATOM      9  O   UNL     1       7.725   6.116  16.181  0.00  0.00    +0.000 OA
ATOM     10  C   UNL     1       6.012   4.200  16.908  0.00  0.00    +0.000 C 
ENDROOT
BRANCH   1  12
ATOM     11  C   UNL     1       2.211   2.388  19.896  0.00  0.00    +0.000 C 
ATOM     12  C   UNL     1       2.220   3.934  20.016  0.00  0.00    +0.000 C 
ATOM     13  C   UNL     1       0.801   4.412  19.654  0.00  0.00    +0.000 C 
ATOM     14  C   UNL     1       2.518   4.278  21.489  0.00  0.00    +0.000 C 
ENDBRANCH   1  12
BRANCH   5  15
ATOM     15  N   UNL     1       2.785   6.976  19.376  0.00  0.00    +0.000 N 
ATOM     16  C   UNL     1       2.131   7.977  18.584  0.00  0.00    +0.000 C 
ATOM     17  O   UNL     1       2.239   7.991  17.372  0.00  0.00    +0.000 OA
ATOM     18  H   UNL     1       2.745   7.077  20.381  0.00  0.00    +0.000 HD
BRANCH  16  19
ATOM     19  C   UNL     1       1.419   9.067  19.301  0.00  0.00    +0.000 A 
ATOM     20  C   UNL     1       1.275  10.290  18.620  0.00  0.00    +0.000 A 
ATOM     21  C   UNL     1       0.637  11.372  19.244  0.00  0.00    +0.000 A 
ATOM     22  C   UNL     1       0.136  11.242  20.544  0.00  0.00    +0.000 A 
ATOM     23  C   UNL     1       0.266  10.023  21.213  0.00  0.00    +0.000 A 
ATOM     24  C   UNL     1       0.894   8.937  20.596  0.00  0.00    +0.000 A 
ATOM     25 CL   UNL     1       0.939   7.468  21.497  0.00  0.00    +0.000 Cl
BRANCH  21  26
ATOM     26  N   UNL     1       0.499  12.653  18.536  0.00  0.00    +0.000 N 
ATOM     27  O   UNL     1      -0.643  13.009  18.224  0.00  0.00    +0.000 OA
ATOM     28  O   UNL     1       1.535  13.285  18.294  0.00  0.00    +0.000 OA
ENDBRANCH  21  26
ENDBRANCH  16  19
ENDBRANCH   5  15
TORSDOF 4
ENDMDL
MODEL 5
REMARK VINA RESULT:      -7.6      2.359      2.622
REMARK  Name = 
REMARK  7 active torsions:
REMARK  status: ('A' for Active; 'I' for Inactive)
REMARK    1  A    between atoms: C_1  and  C_2
REMARK    2  A    between atoms: C_2  and  C_3
REMARK    3  A    between atoms: C_2  and  C_4
REMARK    4  A    between atoms: C_2  and  N_5
REMARK    5  A    between atoms: C_9  and  N_10
REMARK    6  A    between atoms: C_11  and  C_13
REMARK    7  A    between atoms: C_15  and  N_16
REMARK                            x       y       z     vdW  Elec       q    Type
REMARK                         _______ _______ _______ _____ _____    ______ ____
ROOT
ATOM      1  N   UNL     1       3.235   4.510  19.113  0.00  0.00    +0.000 N 
ATOM      2  N   UNL     1       4.110   3.695  18.461  0.00  0.00    +0.000 NA
ATOM      3  C   UNL     1       4.899   4.531  17.805  0.00  0.00    +0.000 A 
ATOM      4  C   UNL     1       4.564   5.878  18.007  0.00  0.00    +0.000 A 
ATOM      5  C   UNL     1       3.496   5.866  18.874  0.00  0.00    +0.000 A 
ATOM      6  C   UNL     1       5.367   6.847  17.224  0.00  0.00    +0.000 C 
ATOM      7  S   UNL     1       6.310   5.790  16.076  0.00  0.00    +0.000 S 
ATOM      8  O   UNL     1       5.624   5.789  14.797  0.00  0.00    +0.000 OA
ATOM      9  O   UNL     1       7.718   6.123  16.176  0.00  0.00    +0.000 OA
ATOM     10  C   UNL     1       6.013   4.197  16.893  0.00  0.00    +0.000 C 
ENDROOT
BRANCH   1  12
ATOM     11  C   UNL     1       0.804   4.440  19.711  0.00  0.00    +0.000 C 
ATOM     12  C   UNL     1       2.227   3.895  20.005  0.00  0.00    +0.000 C 
ATOM     13  C   UNL     1       2.524   4.214  21.482  0.00  0.00    +0.000 C 
ATOM     14  C   UNL     1       2.183   2.367  19.807  0.00  0.00    +0.000 C 
ENDBRANCH   1  12
BRANCH   5  15
ATOM     15  N   UNL     1       2.780   6.944  19.385  0.00  0.00    +0.000 N 
ATOM     16  C   UNL     1       2.126   7.951  18.601  0.00  0.00    +0.000 C 
ATOM     17  O   UNL     1       2.236   7.977  17.390  0.00  0.00    +0.000 OA
ATOM     18  H   UNL     1       2.739   7.035  20.391  0.00  0.00    +0.000 HD
BRANCH  16  19
ATOM     19  C   UNL     1       1.411   9.033  19.327  0.00  0.00    +0.000 A 
ATOM     20  C   UNL     1       1.239  10.252  18.645  0.00  0.00    +0.000 A 
ATOM     21  C   UNL     1       0.596  11.327  19.277  0.00  0.00    +0.000 A 
ATOM     22  C   UNL     1       0.119  11.194  20.586  0.00  0.00    +0.000 A 
ATOM     23  C   UNL     1       0.276   9.979  21.255  0.00  0.00    +0.000 A 
ATOM     24  C   UNL     1       0.908   8.899  20.630  0.00  0.00    +0.000 A 
ATOM     25 CL   UNL     1       0.988   7.433  21.534  0.00  0.00    +0.000 Cl
BRANCH  21  26
ATOM     26  N   UNL     1       0.430  12.604  18.569  0.00  0.00    +0.000 N 
ATOM     27  O   UNL     1       1.424  13.334  18.474  0.00  0.00    +0.000 OA
ATOM     28  O   UNL     1      -0.693  12.867  18.121  0.00  0.00    +0.000 OA
ENDBRANCH  21  26
ENDBRANCH  16  19
ENDBRANCH   5  15
TORSDOF 4
ENDMDL
MODEL 6
REMARK VINA RESULT:      -7.6      2.353      2.694
REMARK  Name = 
REMARK  7 active torsions:
REMARK  status: ('A' for Active; 'I' for Inactive)
REMARK    1  A    between atoms: C_1  and  C_2
REMARK    2  A    between atoms: C_2  and  C_3
REMARK    3  A    between atoms: C_2  and  C_4
REMARK    4  A    between atoms: C_2  and  N_5
REMARK    5  A    between atoms: C_9  and  N_10
REMARK    6  A    between atoms: C_11  and  C_13
REMARK    7  A    between atoms: C_15  and  N_16
REMARK                            x       y       z     vdW  Elec       q    Type
REMARK                         _______ _______ _______ _____ _____    ______ ____
ROOT
ATOM      1  N   UNL     1       3.033   4.587  18.980  0.00  0.00    +0.000 N 
ATOM      2  N   UNL     1       4.027   3.845  18.417  0.00  0.00    +0.000 NA
ATOM      3  C   UNL     1       4.834   4.746  17.878  0.00  0.00    +0.000 A 
ATOM      4  C   UNL     1       4.394   6.064  18.071  0.00  0.00    +0.000 A 
ATOM      5  C   UNL     1       3.236   5.962  18.806  0.00  0.00    +0.000 A 
ATOM      6  C   UNL     1       5.221   7.103  17.412  0.00  0.00    +0.000 C 
ATOM      7  S   UNL     1       6.355   6.139  16.357  0.00  0.00    +0.000 S 
ATOM      8  O   UNL     1       5.823   6.137  15.008  0.00  0.00    +0.000 OA
ATOM      9  O   UNL     1       7.718   6.551  16.631  0.00  0.00    +0.000 OA
ATOM     10  C   UNL     1       6.065   4.506  17.095  0.00  0.00    +0.000 C 
ENDROOT
BRANCH   1  12
ATOM     11  C   UNL     1       0.992   3.151  18.778  0.00  0.00    +0.000 C 
ATOM     12  C   UNL     1       1.968   3.886  19.732  0.00  0.00    +0.000 C 
ATOM     13  C   UNL     1       1.121   4.880  20.550  0.00  0.00    +0.000 C 
ATOM     14  C   UNL     1       2.573   2.827  20.675  0.00  0.00    +0.000 C 
ENDBRANCH   1  12
BRANCH   5  15
ATOM     15  N   UNL     1       2.400   6.980  19.255  0.00  0.00    +0.000 N 
ATOM     16  C   UNL     1       2.041   8.149  18.506  0.00  0.00    +0.000 C 
ATOM     17  O   UNL     1       2.537   8.377  17.419  0.00  0.00    +0.000 OA
ATOM     18  H   UNL     1       2.037   6.898  20.195  0.00  0.00    +0.000 HD
BRANCH  16  19
ATOM     19  C   UNL     1       1.137   9.133  19.156  0.00  0.00    +0.000 A 
ATOM     20  C   UNL     1       0.409   9.988  18.307  0.00  0.00    +0.000 A 
ATOM     21  C   UNL     1      -0.445  10.960  18.850  0.00  0.00    +0.000 A 
ATOM     22  C   UNL     1      -0.582  11.083  20.237  0.00  0.00    +0.000 A 
ATOM     23  C   UNL     1       0.129  10.223  21.078  0.00  0.00    +0.000 A 
ATOM     24  C   UNL     1       0.976   9.247  20.545  0.00  0.00    +0.000 A 
ATOM     25 CL   UNL     1       1.751   8.206  21.680  0.00  0.00    +0.000 Cl
BRANCH  21  26
ATOM     26  N   UNL     1      -1.193  11.861  17.962  0.00  0.00    +0.000 N 
ATOM     27  O   UNL     1      -2.031  11.350  17.210  0.00  0.00    +0.000 OA
ATOM     28  O   UNL     1      -0.929  13.068  18.020  0.00  0.00    +0.000 OA
ENDBRANCH  21  26
ENDBRANCH  16  19
ENDBRANCH   5  15
TORSDOF 4
ENDMDL
MODEL 7
REMARK VINA RESULT:      -7.3      1.173      1.258
REMARK  Name = 
REMARK  7 active torsions:
REMARK  status: ('A' for Active; 'I' for Inactive)
REMARK    1  A    between atoms: C_1  and  C_2
REMARK    2  A    between atoms: C_2  and  C_3
REMARK    3  A    between atoms: C_2  and  C_4
REMARK    4  A    between atoms: C_2  and  N_5
REMARK    5  A    between atoms: C_9  and  N_10
REMARK    6  A    between atoms: C_11  and  C_13
REMARK    7  A    between atoms: C_15  and  N_16
REMARK                            x       y       z     vdW  Elec       q    Type
REMARK                         _______ _______ _______ _____ _____    ______ ____
ROOT
ATOM      1  N   UNL     1       2.759   3.981  18.576  0.00  0.00    +0.000 N 
ATOM      2  N   UNL     1       3.685   3.145  18.029  0.00  0.00    +0.000 NA
ATOM      3  C   UNL     1       4.466   3.948  17.324  0.00  0.00    +0.000 A 
ATOM      4  C   UNL     1       4.077   5.294  17.392  0.00  0.00    +0.000 A 
ATOM      5  C   UNL     1       2.980   5.318  18.223  0.00  0.00    +0.000 A 
ATOM      6  C   UNL     1       4.872   6.219  16.550  0.00  0.00    +0.000 C 
ATOM      7  S   UNL     1       5.892   5.100  15.534  0.00  0.00    +0.000 S 
ATOM      8  O   UNL     1       5.251   4.957  14.240  0.00  0.00    +0.000 OA
ATOM      9  O   UNL     1       7.283   5.495  15.648  0.00  0.00    +0.000 OA
ATOM     10  C   UNL     1       5.623   3.576  16.483  0.00  0.00    +0.000 C 
ENDROOT
BRANCH   1  12
ATOM     11  C   UNL     1       0.887   4.522  20.148  0.00  0.00    +0.000 C 
ATOM     12  C   UNL     1       1.742   3.410  19.487  0.00  0.00    +0.000 C 
ATOM     13  C   UNL     1       2.404   2.623  20.635  0.00  0.00    +0.000 C 
ATOM     14  C   UNL     1       0.778   2.486  18.718  0.00  0.00    +0.000 C 
ENDBRANCH   1  12
BRANCH   5  15
ATOM     15  N   UNL     1       2.209   6.410  18.610  0.00  0.00    +0.000 N 
ATOM     16  C   UNL     1       2.431   7.208  19.781  0.00  0.00    +0.000 C 
ATOM     17  O   UNL     1       3.289   6.912  20.592  0.00  0.00    +0.000 OA
ATOM     18  H   UNL     1       1.415   6.644  18.030  0.00  0.00    +0.000 HD
BRANCH  16  19
ATOM     19  C   UNL     1       1.497   8.335  20.035  0.00  0.00    +0.000 A 
ATOM     20  C   UNL     1       1.109   8.554  21.370  0.00  0.00    +0.000 A 
ATOM     21  C   UNL     1       0.209   9.584  21.682  0.00  0.00    +0.000 A 
ATOM     22  C   UNL     1      -0.306  10.402  20.669  0.00  0.00    +0.000 A 
ATOM     23  C   UNL     1       0.092  10.194  19.347  0.00  0.00    +0.000 A 
ATOM     24  C   UNL     1       0.994   9.175  19.028  0.00  0.00    +0.000 A 
ATOM     25 CL   UNL     1       1.458   9.054  17.372  0.00  0.00    +0.000 Cl
BRANCH  21  26
ATOM     26  N   UNL     1      -0.206   9.802  23.074  0.00  0.00    +0.000 N 
ATOM     27  O   UNL     1       0.589   9.469  23.962  0.00  0.00    +0.000 OA
ATOM     28  O   UNL     1      -1.323  10.297  23.267  0.00  0.00    +0.000 OA
ENDBRANCH  21  26
ENDBRANCH  16  19
ENDBRANCH   5  15
TORSDOF 4
ENDMDL
MODEL 8
REMARK VINA RESULT:      -6.7      6.453      8.205
REMARK  Name = 
REMARK  7 active torsions:
REMARK  status: ('A' for Active; 'I' for Inactive)
REMARK    1  A    between atoms: C_1  and  C_2
REMARK    2  A    between atoms: C_2  and  C_3
REMARK    3  A    between atoms: C_2  and  C_4
REMARK    4  A    between atoms: C_2  and  N_5
REMARK    5  A    between atoms: C_9  and  N_10
REMARK    6  A    between atoms: C_11  and  C_13
REMARK    7  A    between atoms: C_15  and  N_16
REMARK                            x       y       z     vdW  Elec       q    Type
REMARK                         _______ _______ _______ _____ _____    ______ ____
ROOT
ATOM      1  N   UNL     1       1.296  12.283  18.836  0.00  0.00    +0.000 N 
ATOM      2  N   UNL     1       2.502  12.570  18.272  0.00  0.00    +0.000 NA
ATOM      3  C   UNL     1       2.662  13.865  18.497  0.00  0.00    +0.000 A 
ATOM      4  C   UNL     1       1.589  14.440  19.194  0.00  0.00    +0.000 A 
ATOM      5  C   UNL     1       0.711  13.407  19.434  0.00  0.00    +0.000 A 
ATOM      6  C   UNL     1       1.685  15.905  19.395  0.00  0.00    +0.000 C 
ATOM      7  S   UNL     1       3.103  16.385  18.354  0.00  0.00    +0.000 S 
ATOM      8  O   UNL     1       2.588  16.897  17.098  0.00  0.00    +0.000 OA
ATOM      9  O   UNL     1       4.037  17.153  19.156  0.00  0.00    +0.000 OA
ATOM     10  C   UNL     1       3.784  14.727  18.068  0.00  0.00    +0.000 C 
ENDROOT
BRANCH   1  12
ATOM     11  C   UNL     1       0.821  10.264  20.238  0.00  0.00    +0.000 C 
ATOM     12  C   UNL     1       0.822  10.882  18.816  0.00  0.00    +0.000 C 
ATOM     13  C   UNL     1       1.741   9.997  17.952  0.00  0.00    +0.000 C 
ATOM     14  C   UNL     1      -0.621  10.802  18.280  0.00  0.00    +0.000 C 
ENDBRANCH   1  12
BRANCH   5  15
ATOM     15  N   UNL     1      -0.519  13.447  20.084  0.00  0.00    +0.000 N 
ATOM     16  C   UNL     1      -0.715  13.285  21.495  0.00  0.00    +0.000 C 
ATOM     17  O   UNL     1       0.210  13.000  22.232  0.00  0.00    +0.000 OA
ATOM     18  H   UNL     1      -1.341  13.578  19.510  0.00  0.00    +0.000 HD
BRANCH  16  19
ATOM     19  C   UNL     1      -2.108  13.353  22.009  0.00  0.00    +0.000 A 
ATOM     20  C   UNL     1      -3.110  12.761  21.217  0.00  0.00    +0.000 A 
ATOM     21  C   UNL     1      -4.451  12.808  21.627  0.00  0.00    +0.000 A 
ATOM     22  C   UNL     1      -4.801  13.441  22.825  0.00  0.00    +0.000 A 
ATOM     23  C   UNL     1      -3.805  14.015  23.617  0.00  0.00    +0.000 A 
ATOM     24  C   UNL     1      -2.465  13.965  23.221  0.00  0.00    +0.000 A 
ATOM     25 CL   UNL     1      -1.319  14.653  24.311  0.00  0.00    +0.000 Cl
BRANCH  21  26
ATOM     26  N   UNL     1      -5.497  12.201  20.792  0.00  0.00    +0.000 N 
ATOM     27  O   UNL     1      -5.342  12.246  19.566  0.00  0.00    +0.000 OA
ATOM     28  O   UNL     1      -6.465  11.692  21.370  0.00  0.00    +0.000 OA
ENDBRANCH  21  26
ENDBRANCH  16  19
ENDBRANCH   5  15
TORSDOF 4
ENDMDL
MODEL 9
REMARK VINA RESULT:      -6.7      6.273      8.070
REMARK  Name = 
REMARK  7 active torsions:
REMARK  status: ('A' for Active; 'I' for Inactive)
REMARK    1  A    between atoms: C_1  and  C_2
REMARK    2  A    between atoms: C_2  and  C_3
REMARK    3  A    between atoms: C_2  and  C_4
REMARK    4  A    between atoms: C_2  and  N_5
REMARK    5  A    between atoms: C_9  and  N_10
REMARK    6  A    between atoms: C_11  and  C_13
REMARK    7  A    between atoms: C_15  and  N_16
REMARK                            x       y       z     vdW  Elec       q    Type
REMARK                         _______ _______ _______ _____ _____    ______ ____
ROOT
ATOM      1  N   UNL     1       0.954  11.915  18.927  0.00  0.00    +0.000 N 
ATOM      2  N   UNL     1       2.193  12.095  18.390  0.00  0.00    +0.000 NA
ATOM      3  C   UNL     1       2.489  13.353  18.678  0.00  0.00    +0.000 A 
ATOM      4  C   UNL     1       1.473  14.008  19.391  0.00  0.00    +0.000 A 
ATOM      5  C   UNL     1       0.485  13.067  19.572  0.00  0.00    +0.000 A 
ATOM      6  C   UNL     1       1.724  15.443  19.663  0.00  0.00    +0.000 C 
ATOM      7  S   UNL     1       3.202  15.814  18.660  0.00  0.00    +0.000 S 
ATOM      8  O   UNL     1       2.764  16.436  17.425  0.00  0.00    +0.000 OA
ATOM      9  O   UNL     1       4.201  16.438  19.507  0.00  0.00    +0.000 OA
ATOM     10  C   UNL     1       3.704  14.107  18.303  0.00  0.00    +0.000 C 
ENDROOT
BRANCH   1  12
ATOM     11  C   UNL     1       1.167   9.624  17.940  0.00  0.00    +0.000 C 
ATOM     12  C   UNL     1       0.332  10.576  18.835  0.00  0.00    +0.000 C 
ATOM     13  C   UNL     1      -1.070  10.657  18.203  0.00  0.00    +0.000 C 
ATOM     14  C   UNL     1       0.231   9.924  20.229  0.00  0.00    +0.000 C 
ENDBRANCH   1  12
BRANCH   5  15
ATOM     15  N   UNL     1      -0.743  13.210  20.210  0.00  0.00    +0.000 N 
ATOM     16  C   UNL     1      -0.971  13.035  21.616  0.00  0.00    +0.000 C 
ATOM     17  O   UNL     1      -0.086  12.646  22.354  0.00  0.00    +0.000 OA
ATOM     18  H   UNL     1      -1.541  13.432  19.632  0.00  0.00    +0.000 HD
BRANCH  16  19
ATOM     19  C   UNL     1      -2.357  13.225  22.117  0.00  0.00    +0.000 A 
ATOM     20  C   UNL     1      -3.394  12.649  21.359  0.00  0.00    +0.000 A 
ATOM     21  C   UNL     1      -4.730  12.809  21.758  0.00  0.00    +0.000 A 
ATOM     22  C   UNL     1      -5.040  13.538  22.912  0.00  0.00    +0.000 A 
ATOM     23  C   UNL     1      -4.009  14.095  23.671  0.00  0.00    +0.000 A 
ATOM     24  C   UNL     1      -2.675  13.934  23.286  0.00  0.00    +0.000 A 
ATOM     25 CL   UNL     1      -1.489  14.615  24.336  0.00  0.00    +0.000 Cl
BRANCH  21  26
ATOM     26  N   UNL     1      -5.812  12.219  20.958  0.00  0.00    +0.000 N 
ATOM     27  O   UNL     1      -6.673  11.566  21.560  0.00  0.00    +0.000 OA
ATOM     28  O   UNL     1      -5.786  12.407  19.735  0.00  0.00    +0.000 OA
ENDBRANCH  21  26
ENDBRANCH  16  19
ENDBRANCH   5  15
TORSDOF 4
ENDMDL
