MODEL 1
REMARK VINA RESULT:      -7.2      0.000      0.000
REMARK  Name = 
REMARK  6 active torsions:
REMARK  status: ('A' for Active; 'I' for Inactive)
REMARK    1  A    between atoms: C_1  and  C_2
REMARK    2  A    between atoms: C_5  and  C_6
REMARK    3  A    between atoms: C_12  and  C_13
REMARK    4  A    between atoms: N_18  and  S_19
REMARK    5  A    between atoms: S_19  and  C_22
REMARK    6  A    between atoms: C_27  and  C_28
REMARK                            x       y       z     vdW  Elec       q    Type
REMARK                         _______ _______ _______ _____ _____    ______ ____
ROOT
ATOM      1  C   UNL     1       2.354   5.164  20.001  0.00  0.00    +0.000 C 
ATOM      2  O   UNL     1       2.275   4.779  21.164  0.00  0.00    +0.000 OA
ATOM      3  N   UNL     1       2.089   6.494  19.662  0.00  0.00    +0.000 N 
ATOM      4  C   UNL     1       1.799   7.445  20.746  0.00  0.00    +0.000 C 
ATOM      5  C   UNL     1       2.237   8.888  20.401  0.00  0.00    +0.000 C 
ATOM      6  N   UNL     1       1.786   9.347  19.039  0.00  0.00    +0.000 NA
ATOM      7  C   UNL     1       2.133   8.312  18.002  0.00  0.00    +0.000 C 
ATOM      8  C   UNL     1       1.565   6.929  18.363  0.00  0.00    +0.000 C 
ENDROOT
BRANCH   1  14
ATOM      9  C   UNL     1       0.750   2.537  18.688  0.00  0.00    +0.000 C 
ATOM     10  C   UNL     1       2.061   3.166  18.434  0.00  0.00    +0.000 A 
ATOM     11  O   UNL     1       2.758   2.605  17.418  0.00  0.00    +0.000 OA
ATOM     12  N   UNL     1       3.923   3.291  17.216  0.00  0.00    +0.000 NA
ATOM     13  C   UNL     1       3.951   4.285  18.121  0.00  0.00    +0.000 A 
ATOM     14  C   UNL     1       2.778   4.231  18.956  0.00  0.00    +0.000 A 
BRANCH  13  15
ATOM     15  C   UNL     1       5.102   5.192  18.136  0.00  0.00    +0.000 A 
ATOM     16  C   UNL     1       5.197   6.221  17.180  0.00  0.00    +0.000 A 
ATOM     17  C   UNL     1       6.314   7.058  17.132  0.00  0.00    +0.000 A 
ATOM     18  C   UNL     1       7.355   6.878  18.039  0.00  0.00    +0.000 A 
ATOM     19  C   UNL     1       7.276   5.865  18.991  0.00  0.00    +0.000 A 
ATOM     20  C   UNL     1       6.158   5.022  19.040  0.00  0.00    +0.000 A 
ENDBRANCH  13  15
ENDBRANCH   1  14
BRANCH   6  21
ATOM     21  S   UNL     1       0.202   9.958  18.887  0.00  0.00    +0.000 S 
ATOM     22  O   UNL     1      -0.340   9.573  17.603  0.00  0.00    +0.000 OA
ATOM     23  O   UNL     1      -0.496   9.594  20.099  0.00  0.00    +0.000 OA
BRANCH  21  24
ATOM     24  C   UNL     1       0.363  11.739  18.853  0.00  0.00    +0.000 A 
ATOM     25  C   UNL     1       1.649  12.241  18.575  0.00  0.00    +0.000 A 
ATOM     26  C   UNL     1       1.934  13.600  18.707  0.00  0.00    +0.000 A 
ATOM     27  C   UNL     1       0.938  14.481  19.101  0.00  0.00    +0.000 A 
ATOM     28  C   UNL     1      -0.341  13.997  19.367  0.00  0.00    +0.000 A 
ATOM     29  C   UNL     1      -0.658  12.618  19.267  0.00  0.00    +0.000 A 
BRANCH  29  30
ATOM     30  C   UNL     1      -2.064  12.238  19.668  0.00  0.00    +0.000 C 
ATOM     31  F   UNL     1      -2.733  11.384  18.861  0.00  0.00    +0.000 F 
ATOM     32  F   UNL     1      -2.103  11.697  20.920  0.00  0.00    +0.000 F 
ATOM     33  F   UNL     1      -2.865  13.346  19.741  0.00  0.00    +0.000 F 
ENDBRANCH  29  30
ENDBRANCH  21  24
ENDBRANCH   6  21
TORSDOF 5
ENDMDL
MODEL 2
REMARK VINA RESULT:      -7.1      2.510      3.799
REMARK  Name = 
REMARK  6 active torsions:
REMARK  status: ('A' for Active; 'I' for Inactive)
REMARK    1  A    between atoms: C_1  and  C_2
REMARK    2  A    between atoms: C_5  and  C_6
REMARK    3  A    between atoms: C_12  and  C_13
REMARK    4  A    between atoms: N_18  and  S_19
REMARK    5  A    between atoms: S_19  and  C_22
REMARK    6  A    between atoms: C_27  and  C_28
REMARK                            x       y       z     vdW  Elec       q    Type
REMARK                         _______ _______ _______ _____ _____    ______ ____
ROOT
ATOM      1  C   UNL     1       4.451   4.372  16.273  0.00  0.00    +0.000 C 
ATOM      2  O   UNL     1       3.908   3.272  16.348  0.00  0.00    +0.000 OA
ATOM      3  N   UNL     1       3.974   5.464  17.004  0.00  0.00    +0.000 N 
ATOM      4  C   UNL     1       2.858   5.244  17.937  0.00  0.00    +0.000 C 
ATOM      5  C   UNL     1       2.896   6.210  19.145  0.00  0.00    +0.000 C 
ATOM      6  N   UNL     1       3.105   7.651  18.758  0.00  0.00    +0.000 NA
ATOM      7  C   UNL     1       4.269   7.772  17.811  0.00  0.00    +0.000 C 
ATOM      8  C   UNL     1       4.101   6.862  16.582  0.00  0.00    +0.000 C 
ENDROOT
BRANCH   1  14
ATOM      9  C   UNL     1       4.966   3.554  13.069  0.00  0.00    +0.000 C 
ATOM     10  C   UNL     1       5.797   4.193  14.108  0.00  0.00    +0.000 A 
ATOM     11  O   UNL     1       7.018   4.589  13.675  0.00  0.00    +0.000 OA
ATOM     12  N   UNL     1       7.687   5.224  14.684  0.00  0.00    +0.000 NA
ATOM     13  C   UNL     1       6.874   5.217  15.755  0.00  0.00    +0.000 A 
ATOM     14  C   UNL     1       5.645   4.534  15.443  0.00  0.00    +0.000 A 
BRANCH  13  15
ATOM     15  C   UNL     1       7.340   5.839  16.998  0.00  0.00    +0.000 A 
ATOM     16  C   UNL     1       7.632   7.216  17.027  0.00  0.00    +0.000 A 
ATOM     17  C   UNL     1       8.139   7.820  18.180  0.00  0.00    +0.000 A 
ATOM     18  C   UNL     1       8.365   7.056  19.322  0.00  0.00    +0.000 A 
ATOM     19  C   UNL     1       8.081   5.692  19.309  0.00  0.00    +0.000 A 
ATOM     20  C   UNL     1       7.575   5.083  18.153  0.00  0.00    +0.000 A 
ENDBRANCH  13  15
ENDBRANCH   1  14
BRANCH   6  21
ATOM     21  S   UNL     1       1.741   8.554  18.277  0.00  0.00    +0.000 S 
ATOM     22  O   UNL     1       2.171   9.700  17.508  0.00  0.00    +0.000 OA
ATOM     23  O   UNL     1       0.807   7.612  17.702  0.00  0.00    +0.000 OA
BRANCH  21  24
ATOM     24  C   UNL     1       1.022   9.198  19.782  0.00  0.00    +0.000 A 
ATOM     25  C   UNL     1       1.521   8.665  20.986  0.00  0.00    +0.000 A 
ATOM     26  C   UNL     1       0.910   8.951  22.208  0.00  0.00    +0.000 A 
ATOM     27  C   UNL     1      -0.197   9.786  22.248  0.00  0.00    +0.000 A 
ATOM     28  C   UNL     1      -0.692  10.329  21.065  0.00  0.00    +0.000 A 
ATOM     29  C   UNL     1      -0.109  10.038  19.805  0.00  0.00    +0.000 A 
BRANCH  29  30
ATOM     30  C   UNL     1      -0.809  10.635  18.606  0.00  0.00    +0.000 C 
ATOM     31  F   UNL     1      -1.021   9.829  17.542  0.00  0.00    +0.000 F 
ATOM     32  F   UNL     1      -2.024  11.159  18.941  0.00  0.00    +0.000 F 
ATOM     33  F   UNL     1      -0.100  11.692  18.105  0.00  0.00    +0.000 F 
ENDBRANCH  29  30
ENDBRANCH  21  24
ENDBRANCH   6  21
TORSDOF 5
ENDMDL
MODEL 3
REMARK VINA RESULT:      -7.0      2.529      3.931
REMARK  Name = 
REMARK  6 active torsions:
REMARK  status: ('A' for Active; 'I' for Inactive)
REMARK    1  A    between atoms: C_1  and  C_2
REMARK    2  A    between atoms: C_5  and  C_6
REMARK    3  A    between atoms: C_12  and  C_13
REMARK    4  A    between atoms: N_18  and  S_19
REMARK    5  A    between atoms: S_19  and  C_22
REMARK    6  A    between atoms: C_27  and  C_28
REMARK                            x       y       z     vdW  Elec       q    Type
REMARK                         _______ _______ _______ _____ _____    ______ ____
ROOT
ATOM      1  C   UNL     1       4.505   4.351  16.245  0.00  0.00    +0.000 C 
ATOM      2  O   UNL     1       3.976   3.247  16.348  0.00  0.00    +0.000 OA
ATOM      3  N   UNL     1       4.032   5.448  16.972  0.00  0.00    +0.000 N 
ATOM      4  C   UNL     1       2.939   5.228  17.933  0.00  0.00    +0.000 C 
ATOM      5  C   UNL     1       2.993   6.212  19.126  0.00  0.00    +0.000 C 
ATOM      6  N   UNL     1       3.176   7.649  18.716  0.00  0.00    +0.000 NA
ATOM      7  C   UNL     1       4.318   7.770  17.741  0.00  0.00    +0.000 C 
ATOM      8  C   UNL     1       4.132   6.842  16.529  0.00  0.00    +0.000 C 
ENDROOT
BRANCH   1  14
ATOM      9  C   UNL     1       4.929   3.578  13.017  0.00  0.00    +0.000 C 
ATOM     10  C   UNL     1       5.792   4.194  14.043  0.00  0.00    +0.000 A 
ATOM     11  O   UNL     1       7.005   4.586  13.584  0.00  0.00    +0.000 OA
ATOM     12  N   UNL     1       7.706   5.200  14.584  0.00  0.00    +0.000 NA
ATOM     13  C   UNL     1       6.921   5.184  15.676  0.00  0.00    +0.000 A 
ATOM     14  C   UNL     1       5.678   4.516  15.387  0.00  0.00    +0.000 A 
BRANCH  13  15
ATOM     15  C   UNL     1       7.426   5.782  16.916  0.00  0.00    +0.000 A 
ATOM     16  C   UNL     1       7.601   4.982  18.060  0.00  0.00    +0.000 A 
ATOM     17  C   UNL     1       8.018   5.539  19.272  0.00  0.00    +0.000 A 
ATOM     18  C   UNL     1       8.264   6.906  19.358  0.00  0.00    +0.000 A 
ATOM     19  C   UNL     1       8.095   7.712  18.234  0.00  0.00    +0.000 A 
ATOM     20  C   UNL     1       7.675   7.156  17.019  0.00  0.00    +0.000 A 
ENDBRANCH  13  15
ENDBRANCH   1  14
BRANCH   6  21
ATOM     21  S   UNL     1       1.792   8.530  18.254  0.00  0.00    +0.000 S 
ATOM     22  O   UNL     1       2.194   9.691  17.492  0.00  0.00    +0.000 OA
ATOM     23  O   UNL     1       0.872   7.576  17.677  0.00  0.00    +0.000 OA
BRANCH  21  24
ATOM     24  C   UNL     1       1.072   9.147  19.770  0.00  0.00    +0.000 A 
ATOM     25  C   UNL     1       1.539   8.560  20.962  0.00  0.00    +0.000 A 
ATOM     26  C   UNL     1       0.921   8.825  22.185  0.00  0.00    +0.000 A 
ATOM     27  C   UNL     1      -0.160   9.692  22.239  0.00  0.00    +0.000 A 
ATOM     28  C   UNL     1      -0.623  10.288  21.068  0.00  0.00    +0.000 A 
ATOM     29  C   UNL     1      -0.033  10.020  19.806  0.00  0.00    +0.000 A 
BRANCH  29  30
ATOM     30  C   UNL     1      -0.698  10.677  18.620  0.00  0.00    +0.000 C 
ATOM     31  F   UNL     1      -0.036  11.687  18.013  0.00  0.00    +0.000 F 
ATOM     32  F   UNL     1      -0.997   9.771  17.644  0.00  0.00    +0.000 F 
ATOM     33  F   UNL     1      -1.904  11.217  18.975  0.00  0.00    +0.000 F 
ENDBRANCH  29  30
ENDBRANCH  21  24
ENDBRANCH   6  21
TORSDOF 5
ENDMDL
MODEL 4
REMARK VINA RESULT:      -6.8      4.076      9.026
REMARK  Name = 
REMARK  6 active torsions:
REMARK  status: ('A' for Active; 'I' for Inactive)
REMARK    1  A    between atoms: C_1  and  C_2
REMARK    2  A    between atoms: C_5  and  C_6
REMARK    3  A    between atoms: C_12  and  C_13
REMARK    4  A    between atoms: N_18  and  S_19
REMARK    5  A    between atoms: S_19  and  C_22
REMARK    6  A    between atoms: C_27  and  C_28
REMARK                            x       y       z     vdW  Elec       q    Type
REMARK                         _______ _______ _______ _____ _____    ______ ____
ROOT
ATOM      1  C   UNL     1       0.939  11.022  20.483  0.00  0.00    +0.000 C 
ATOM      2  O   UNL     1       0.857  11.033  21.709  0.00  0.00    +0.000 OA
ATOM      3  N   UNL     1       1.261   9.849  19.793  0.00  0.00    +0.000 N 
ATOM      4  C   UNL     1       1.412   8.606  20.564  0.00  0.00    +0.000 C 
ATOM      5  C   UNL     1       1.038   7.350  19.741  0.00  0.00    +0.000 C 
ATOM      6  N   UNL     1       1.673   7.312  18.376  0.00  0.00    +0.000 NA
ATOM      7  C   UNL     1       1.458   8.623  17.667  0.00  0.00    +0.000 C 
ATOM      8  C   UNL     1       1.959   9.812  18.504  0.00  0.00    +0.000 C 
ENDROOT
BRANCH   1  14
ATOM      9  C   UNL     1       2.788  13.780  20.067  0.00  0.00    +0.000 C 
ATOM     10  C   UNL     1       1.466  13.350  19.572  0.00  0.00    +0.000 A 
ATOM     11  O   UNL     1       0.881  14.227  18.721  0.00  0.00    +0.000 OA
ATOM     12  N   UNL     1      -0.303  13.718  18.267  0.00  0.00    +0.000 NA
ATOM     13  C   UNL     1      -0.457  12.515  18.847  0.00  0.00    +0.000 A 
ATOM     14  C   UNL     1       0.651  12.240  19.727  0.00  0.00    +0.000 A 
BRANCH  13  15
ATOM     15  C   UNL     1      -1.657  11.731  18.539  0.00  0.00    +0.000 A 
ATOM     16  C   UNL     1      -1.557  10.582  17.733  0.00  0.00    +0.000 A 
ATOM     17  C   UNL     1      -2.693   9.855  17.370  0.00  0.00    +0.000 A 
ATOM     18  C   UNL     1      -3.949  10.268  17.807  0.00  0.00    +0.000 A 
ATOM     19  C   UNL     1      -4.065  11.403  18.605  0.00  0.00    +0.000 A 
ATOM     20  C   UNL     1      -2.927  12.135  18.968  0.00  0.00    +0.000 A 
ENDBRANCH  13  15
ENDBRANCH   1  14
BRANCH   6  21
ATOM     21  S   UNL     1       3.269   6.726  18.253  0.00  0.00    +0.000 S 
ATOM     22  O   UNL     1       3.934   7.373  17.145  0.00  0.00    +0.000 OA
ATOM     23  O   UNL     1       3.839   6.807  19.579  0.00  0.00    +0.000 OA
BRANCH  21  24
ATOM     24  C   UNL     1       3.126   4.998  17.816  0.00  0.00    +0.000 A 
ATOM     25  C   UNL     1       1.919   4.366  18.169  0.00  0.00    +0.000 A 
ATOM     26  C   UNL     1       1.767   2.984  18.049  0.00  0.00    +0.000 A 
ATOM     27  C   UNL     1       2.812   2.214  17.559  0.00  0.00    +0.000 A 
ATOM     28  C   UNL     1       4.007   2.830  17.196  0.00  0.00    +0.000 A 
ATOM     29  C   UNL     1       4.202   4.229  17.329  0.00  0.00    +0.000 A 
BRANCH  29  30
ATOM     30  C   UNL     1       5.579   4.736  16.971  0.00  0.00    +0.000 C 
ATOM     31  F   UNL     1       6.248   5.440  17.911  0.00  0.00    +0.000 F 
ATOM     32  F   UNL     1       6.407   3.721  16.588  0.00  0.00    +0.000 F 
ATOM     33  F   UNL     1       5.525   5.569  15.886  0.00  0.00    +0.000 F 
ENDBRANCH  29  30
ENDBRANCH  21  24
ENDBRANCH   6  21
TORSDOF 5
ENDMDL
MODEL 5
REMARK VINA RESULT:      -6.8      6.192      8.637
REMARK  Name = 
REMARK  6 active torsions:
REMARK  status: ('A' for Active; 'I' for Inactive)
REMARK    1  A    between atoms: C_1  and  C_2
REMARK    2  A    between atoms: C_5  and  C_6
REMARK    3  A    between atoms: C_12  and  C_13
REMARK    4  A    between atoms: N_18  and  S_19
REMARK    5  A    between atoms: S_19  and  C_22
REMARK    6  A    between atoms: C_27  and  C_28
REMARK                            x       y       z     vdW  Elec       q    Type
REMARK                         _______ _______ _______ _____ _____    ______ ____
ROOT
ATOM      1  C   UNL     1       7.868  15.702  19.943  0.00  0.00    +0.000 C 
ATOM      2  O   UNL     1       8.243  15.925  21.091  0.00  0.00    +0.000 OA
ATOM      3  N   UNL     1       6.508  15.583  19.639  0.00  0.00    +0.000 N 
ATOM      4  C   UNL     1       5.531  15.819  20.713  0.00  0.00    +0.000 C 
ATOM      5  C   UNL     1       4.188  16.375  20.180  0.00  0.00    +0.000 C 
ATOM      6  N   UNL     1       3.642  15.608  19.005  0.00  0.00    +0.000 NA
ATOM      7  C   UNL     1       4.712  15.425  17.961  0.00  0.00    +0.000 C 
ATOM      8  C   UNL     1       5.972  14.764  18.547  0.00  0.00    +0.000 C 
ENDROOT
BRANCH   1  14
ATOM      9  C   UNL     1       9.266  18.113  18.091  0.00  0.00    +0.000 C 
ATOM     10  C   UNL     1       9.414  16.646  18.140  0.00  0.00    +0.000 A 
ATOM     11  O   UNL     1      10.353  16.155  17.297  0.00  0.00    +0.000 OA
ATOM     12  N   UNL     1      10.463  14.802  17.458  0.00  0.00    +0.000 NA
ATOM     13  C   UNL     1       9.580  14.450  18.408  0.00  0.00    +0.000 A 
ATOM     14  C   UNL     1       8.851  15.606  18.864  0.00  0.00    +0.000 A 
BRANCH  13  15
ATOM     15  C   UNL     1       9.480  13.038  18.789  0.00  0.00    +0.000 A 
ATOM     16  C   UNL     1       9.857  12.633  20.084  0.00  0.00    +0.000 A 
ATOM     17  C   UNL     1       9.833  11.286  20.452  0.00  0.00    +0.000 A 
ATOM     18  C   UNL     1       9.433  10.322  19.530  0.00  0.00    +0.000 A 
ATOM     19  C   UNL     1       9.057  10.707  18.245  0.00  0.00    +0.000 A 
ATOM     20  C   UNL     1       9.083  12.057  17.873  0.00  0.00    +0.000 A 
ENDBRANCH  13  15
ENDBRANCH   1  14
BRANCH   6  21
ATOM     21  S   UNL     1       2.751  14.190  19.321  0.00  0.00    +0.000 S 
ATOM     22  O   UNL     1       2.802  13.322  18.165  0.00  0.00    +0.000 OA
ATOM     23  O   UNL     1       3.199  13.701  20.606  0.00  0.00    +0.000 OA
BRANCH  21  24
ATOM     24  C   UNL     1       1.047  14.706  19.488  0.00  0.00    +0.000 A 
ATOM     25  C   UNL     1       0.801  16.087  19.360  0.00  0.00    +0.000 A 
ATOM     26  C   UNL     1      -0.451  16.625  19.656  0.00  0.00    +0.000 A 
ATOM     27  C   UNL     1      -1.482  15.793  20.067  0.00  0.00    +0.000 A 
ATOM     28  C   UNL     1      -1.254  14.424  20.185  0.00  0.00    +0.000 A 
ATOM     29  C   UNL     1       0.014  13.848  19.916  0.00  0.00    +0.000 A 
BRANCH  29  30
ATOM     30  C   UNL     1       0.127  12.363  20.170  0.00  0.00    +0.000 C 
ATOM     31  F   UNL     1       0.644  11.599  19.182  0.00  0.00    +0.000 F 
ATOM     32  F   UNL     1       0.861  12.097  21.289  0.00  0.00    +0.000 F 
ATOM     33  F   UNL     1      -1.103  11.818  20.422  0.00  0.00    +0.000 F 
ENDBRANCH  29  30
ENDBRANCH  21  24
ENDBRANCH   6  21
TORSDOF 5
ENDMDL
MODEL 6
REMARK VINA RESULT:      -6.7      5.369      9.747
REMARK  Name = 
REMARK  6 active torsions:
REMARK  status: ('A' for Active; 'I' for Inactive)
REMARK    1  A    between atoms: C_1  and  C_2
REMARK    2  A    between atoms: C_5  and  C_6
REMARK    3  A    between atoms: C_12  and  C_13
REMARK    4  A    between atoms: N_18  and  S_19
REMARK    5  A    between atoms: S_19  and  C_22
REMARK    6  A    between atoms: C_27  and  C_28
REMARK                            x       y       z     vdW  Elec       q    Type
REMARK                         _______ _______ _______ _____ _____    ______ ____
ROOT
ATOM      1  C   UNL     1       3.048  15.537  18.244  0.00  0.00    +0.000 C 
ATOM      2  O   UNL     1       3.470  15.613  17.093  0.00  0.00    +0.000 OA
ATOM      3  N   UNL     1       2.409  14.381  18.703  0.00  0.00    +0.000 N 
ATOM      4  C   UNL     1       2.333  13.222  17.801  0.00  0.00    +0.000 C 
ATOM      5  C   UNL     1       2.309  11.877  18.565  0.00  0.00    +0.000 C 
ATOM      6  N   UNL     1       1.318  11.844  19.699  0.00  0.00    +0.000 NA
ATOM      7  C   UNL     1       1.481  13.065  20.566  0.00  0.00    +0.000 C 
ATOM      8  C   UNL     1       1.379  14.363  19.747  0.00  0.00    +0.000 C 
ENDROOT
BRANCH   1  14
ATOM      9  C   UNL     1       5.750  16.366  20.035  0.00  0.00    +0.000 C 
ATOM     10  C   UNL     1       4.410  16.961  19.872  0.00  0.00    +0.000 A 
ATOM     11  O   UNL     1       4.234  18.123  20.544  0.00  0.00    +0.000 OA
ATOM     12  N   UNL     1       2.991  18.629  20.283  0.00  0.00    +0.000 NA
ATOM     13  C   UNL     1       2.389  17.769  19.443  0.00  0.00    +0.000 A 
ATOM     14  C   UNL     1       3.256  16.652  19.167  0.00  0.00    +0.000 A 
BRANCH  13  15
ATOM     15  C   UNL     1       1.026  18.063  18.990  0.00  0.00    +0.000 A 
ATOM     16  C   UNL     1      -0.004  18.241  19.933  0.00  0.00    +0.000 A 
ATOM     17  C   UNL     1      -1.323  18.457  19.526  0.00  0.00    +0.000 A 
ATOM     18  C   UNL     1      -1.632  18.498  18.169  0.00  0.00    +0.000 A 
ATOM     19  C   UNL     1      -0.624  18.325  17.224  0.00  0.00    +0.000 A 
ATOM     20  C   UNL     1       0.699  18.105  17.629  0.00  0.00    +0.000 A 
ENDBRANCH  13  15
ENDBRANCH   1  14
BRANCH   6  21
ATOM     21  S   UNL     1      -0.306  11.484  19.329  0.00  0.00    +0.000 S 
ATOM     22  O   UNL     1      -0.810  12.453  18.382  0.00  0.00    +0.000 OA
ATOM     23  O   UNL     1      -0.351  10.075  19.008  0.00  0.00    +0.000 OA
BRANCH  21  24
ATOM     24  C   UNL     1      -1.223  11.736  20.844  0.00  0.00    +0.000 A 
ATOM     25  C   UNL     1      -2.077  12.856  20.873  0.00  0.00    +0.000 A 
ATOM     26  C   UNL     1      -2.696  13.258  22.057  0.00  0.00    +0.000 A 
ATOM     27  C   UNL     1      -2.486  12.540  23.226  0.00  0.00    +0.000 A 
ATOM     28  C   UNL     1      -1.653  11.424  23.206  0.00  0.00    +0.000 A 
ATOM     29  C   UNL     1      -0.989  11.003  22.024  0.00  0.00    +0.000 A 
BRANCH  29  30
ATOM     30  C   UNL     1      -0.056   9.826  22.181  0.00  0.00    +0.000 C 
ATOM     31  F   UNL     1       1.217   9.978  21.751  0.00  0.00    +0.000 F 
ATOM     32  F   UNL     1       0.023   9.414  23.480  0.00  0.00    +0.000 F 
ATOM     33  F   UNL     1      -0.526   8.737  21.498  0.00  0.00    +0.000 F 
ENDBRANCH  29  30
ENDBRANCH  21  24
ENDBRANCH   6  21
TORSDOF 5
ENDMDL
MODEL 7
REMARK VINA RESULT:      -6.6      3.974      8.323
REMARK  Name = 
REMARK  6 active torsions:
REMARK  status: ('A' for Active; 'I' for Inactive)
REMARK    1  A    between atoms: C_1  and  C_2
REMARK    2  A    between atoms: C_5  and  C_6
REMARK    3  A    between atoms: C_12  and  C_13
REMARK    4  A    between atoms: N_18  and  S_19
REMARK    5  A    between atoms: S_19  and  C_22
REMARK    6  A    between atoms: C_27  and  C_28
REMARK                            x       y       z     vdW  Elec       q    Type
REMARK                         _______ _______ _______ _____ _____    ______ ____
ROOT
ATOM      1  C   UNL     1       0.687   9.942  19.931  0.00  0.00    +0.000 C 
ATOM      2  O   UNL     1       0.496  10.024  21.142  0.00  0.00    +0.000 OA
ATOM      3  N   UNL     1       1.422   8.884  19.387  0.00  0.00    +0.000 N 
ATOM      4  C   UNL     1       1.888   7.821  20.291  0.00  0.00    +0.000 C 
ATOM      5  C   UNL     1       2.004   6.450  19.583  0.00  0.00    +0.000 C 
ATOM      6  N   UNL     1       2.739   6.510  18.270  0.00  0.00    +0.000 NA
ATOM      7  C   UNL     1       2.186   7.621  17.416  0.00  0.00    +0.000 C 
ATOM      8  C   UNL     1       2.209   8.971  18.153  0.00  0.00    +0.000 C 
ENDROOT
BRANCH   1  14
ATOM      9  C   UNL     1      -2.156   9.832  18.171  0.00  0.00    +0.000 C 
ATOM     10  C   UNL     1      -1.099  10.846  18.343  0.00  0.00    +0.000 A 
ATOM     11  O   UNL     1      -1.339  12.013  17.699  0.00  0.00    +0.000 OA
ATOM     12  N   UNL     1      -0.343  12.909  17.968  0.00  0.00    +0.000 NA
ATOM     13  C   UNL     1       0.528  12.290  18.784  0.00  0.00    +0.000 A 
ATOM     14  C   UNL     1       0.099  10.937  19.036  0.00  0.00    +0.000 A 
BRANCH  13  15
ATOM     15  C   UNL     1       1.712  13.024  19.239  0.00  0.00    +0.000 A 
ATOM     16  C   UNL     1       1.896  13.275  20.612  0.00  0.00    +0.000 A 
ATOM     17  C   UNL     1       2.981  14.028  21.067  0.00  0.00    +0.000 A 
ATOM     18  C   UNL     1       3.899  14.542  20.155  0.00  0.00    +0.000 A 
ATOM     19  C   UNL     1       3.731  14.302  18.794  0.00  0.00    +0.000 A 
ATOM     20  C   UNL     1       2.642  13.550  18.335  0.00  0.00    +0.000 A 
ENDBRANCH  13  15
ENDBRANCH   1  14
BRANCH   6  21
ATOM     21  S   UNL     1       4.442   6.462  18.304  0.00  0.00    +0.000 S 
ATOM     22  O   UNL     1       4.966   7.773  17.995  0.00  0.00    +0.000 OA
ATOM     23  O   UNL     1       4.809   5.815  19.544  0.00  0.00    +0.000 OA
BRANCH  21  24
ATOM     24  C   UNL     1       4.931   5.393  16.956  0.00  0.00    +0.000 A 
ATOM     25  C   UNL     1       5.479   6.030  15.826  0.00  0.00    +0.000 A 
ATOM     26  C   UNL     1       5.721   5.323  14.648  0.00  0.00    +0.000 A 
ATOM     27  C   UNL     1       5.437   3.967  14.585  0.00  0.00    +0.000 A 
ATOM     28  C   UNL     1       4.907   3.324  15.700  0.00  0.00    +0.000 A 
ATOM     29  C   UNL     1       4.625   4.019  16.905  0.00  0.00    +0.000 A 
BRANCH  29  30
ATOM     30  C   UNL     1       3.976   3.201  17.996  0.00  0.00    +0.000 C 
ATOM     31  F   UNL     1       2.757   3.594  18.428  0.00  0.00    +0.000 F 
ATOM     32  F   UNL     1       3.854   1.890  17.639  0.00  0.00    +0.000 F 
ATOM     33  F   UNL     1       4.754   3.185  19.122  0.00  0.00    +0.000 F 
ENDBRANCH  29  30
ENDBRANCH  21  24
ENDBRANCH   6  21
TORSDOF 5
ENDMDL
MODEL 8
REMARK VINA RESULT:      -6.6      2.250      3.327
REMARK  Name = 
REMARK  6 active torsions:
REMARK  status: ('A' for Active; 'I' for Inactive)
REMARK    1  A    between atoms: C_1  and  C_2
REMARK    2  A    between atoms: C_5  and  C_6
REMARK    3  A    between atoms: C_12  and  C_13
REMARK    4  A    between atoms: N_18  and  S_19
REMARK    5  A    between atoms: S_19  and  C_22
REMARK    6  A    between atoms: C_27  and  C_28
REMARK                            x       y       z     vdW  Elec       q    Type
REMARK                         _______ _______ _______ _____ _____    ______ ____
ROOT
ATOM      1  C   UNL     1       2.529   7.169  18.824  0.00  0.00    +0.000 C 
ATOM      2  O   UNL     1       2.922   7.592  17.740  0.00  0.00    +0.000 OA
ATOM      3  N   UNL     1       1.668   7.927  19.623  0.00  0.00    +0.000 N 
ATOM      4  C   UNL     1       1.172   9.207  19.095  0.00  0.00    +0.000 C 
ATOM      5  C   UNL     1      -0.228   9.572  19.644  0.00  0.00    +0.000 C 
ATOM      6  N   UNL     1      -0.345   9.433  21.139  0.00  0.00    +0.000 NA
ATOM      7  C   UNL     1       0.179   8.092  21.578  0.00  0.00    +0.000 C 
ATOM      8  C   UNL     1       1.618   7.853  21.087  0.00  0.00    +0.000 C 
ENDROOT
BRANCH   1  14
ATOM      9  C   UNL     1       0.673   4.684  20.078  0.00  0.00    +0.000 C 
ATOM     10  C   UNL     1       2.107   4.831  19.764  0.00  0.00    +0.000 A 
ATOM     11  O   UNL     1       2.838   3.710  19.973  0.00  0.00    +0.000 OA
ATOM     12  N   UNL     1       4.134   3.922  19.596  0.00  0.00    +0.000 NA
ATOM     13  C   UNL     1       4.209   5.189  19.153  0.00  0.00    +0.000 A 
ATOM     14  C   UNL     1       2.926   5.833  19.268  0.00  0.00    +0.000 A 
BRANCH  13  15
ATOM     15  C   UNL     1       5.501   5.695  18.679  0.00  0.00    +0.000 A 
ATOM     16  C   UNL     1       6.655   5.520  19.466  0.00  0.00    +0.000 A 
ATOM     17  C   UNL     1       7.885   6.050  19.069  0.00  0.00    +0.000 A 
ATOM     18  C   UNL     1       7.980   6.764  17.878  0.00  0.00    +0.000 A 
ATOM     19  C   UNL     1       6.847   6.946  17.088  0.00  0.00    +0.000 A 
ATOM     20  C   UNL     1       5.612   6.418  17.485  0.00  0.00    +0.000 A 
ENDBRANCH  13  15
ENDBRANCH   1  14
BRANCH   6  21
ATOM     21  S   UNL     1       0.200  10.726  22.106  0.00  0.00    +0.000 S 
ATOM     22  O   UNL     1       0.465  10.247  23.444  0.00  0.00    +0.000 OA
ATOM     23  O   UNL     1       1.247  11.385  21.359  0.00  0.00    +0.000 OA
BRANCH  21  24
ATOM     24  C   UNL     1      -1.181  11.856  22.241  0.00  0.00    +0.000 A 
ATOM     25  C   UNL     1      -2.119  11.572  23.251  0.00  0.00    +0.000 A 
ATOM     26  C   UNL     1      -3.325  12.269  23.329  0.00  0.00    +0.000 A 
ATOM     27  C   UNL     1      -3.605  13.271  22.412  0.00  0.00    +0.000 A 
ATOM     28  C   UNL     1      -2.679  13.568  21.416  0.00  0.00    +0.000 A 
ATOM     29  C   UNL     1      -1.455  12.862  21.293  0.00  0.00    +0.000 A 
BRANCH  29  30
ATOM     30  C   UNL     1      -0.593  13.244  20.113  0.00  0.00    +0.000 C 
ATOM     31  F   UNL     1       0.699  13.554  20.359  0.00  0.00    +0.000 F 
ATOM     32  F   UNL     1      -0.581  12.268  19.160  0.00  0.00    +0.000 F 
ATOM     33  F   UNL     1      -1.099  14.346  19.477  0.00  0.00    +0.000 F 
ENDBRANCH  29  30
ENDBRANCH  21  24
ENDBRANCH   6  21
TORSDOF 5
ENDMDL
MODEL 9
REMARK VINA RESULT:      -6.6      3.852      8.243
REMARK  Name = 
REMARK  6 active torsions:
REMARK  status: ('A' for Active; 'I' for Inactive)
REMARK    1  A    between atoms: C_1  and  C_2
REMARK    2  A    between atoms: C_5  and  C_6
REMARK    3  A    between atoms: C_12  and  C_13
REMARK    4  A    between atoms: N_18  and  S_19
REMARK    5  A    between atoms: S_19  and  C_22
REMARK    6  A    between atoms: C_27  and  C_28
REMARK                            x       y       z     vdW  Elec       q    Type
REMARK                         _______ _______ _______ _____ _____    ______ ____
ROOT
ATOM      1  C   UNL     1       0.619   9.930  19.925  0.00  0.00    +0.000 C 
ATOM      2  O   UNL     1       0.444  10.011  21.138  0.00  0.00    +0.000 OA
ATOM      3  N   UNL     1       1.367   8.885  19.372  0.00  0.00    +0.000 N 
ATOM      4  C   UNL     1       1.867   7.834  20.272  0.00  0.00    +0.000 C 
ATOM      5  C   UNL     1       2.000   6.464  19.566  0.00  0.00    +0.000 C 
ATOM      6  N   UNL     1       2.714   6.535  18.241  0.00  0.00    +0.000 NA
ATOM      7  C   UNL     1       2.127   7.632  17.393  0.00  0.00    +0.000 C 
ATOM      8  C   UNL     1       2.134   8.985  18.126  0.00  0.00    +0.000 C 
ENDROOT
BRANCH   1  14
ATOM      9  C   UNL     1      -2.175   9.705  18.098  0.00  0.00    +0.000 C 
ATOM     10  C   UNL     1      -1.178  10.771  18.314  0.00  0.00    +0.000 A 
ATOM     11  O   UNL     1      -1.467  11.936  17.687  0.00  0.00    +0.000 OA
ATOM     12  N   UNL     1      -0.526  12.878  17.996  0.00  0.00    +0.000 NA
ATOM     13  C   UNL     1       0.359  12.289  18.820  0.00  0.00    +0.000 A 
ATOM     14  C   UNL     1      -0.003  10.911  19.036  0.00  0.00    +0.000 A 
BRANCH  13  15
ATOM     15  C   UNL     1       1.492  13.075  19.316  0.00  0.00    +0.000 A 
ATOM     16  C   UNL     1       2.527  13.446  18.437  0.00  0.00    +0.000 A 
ATOM     17  C   UNL     1       3.649  14.139  18.898  0.00  0.00    +0.000 A 
ATOM     18  C   UNL     1       3.754  14.470  20.246  0.00  0.00    +0.000 A 
ATOM     19  C   UNL     1       2.738  14.111  21.128  0.00  0.00    +0.000 A 
ATOM     20  C   UNL     1       1.613  13.413  20.670  0.00  0.00    +0.000 A 
ENDBRANCH  13  15
ENDBRANCH   1  14
BRANCH   6  21
ATOM     21  S   UNL     1       4.418   6.521  18.250  0.00  0.00    +0.000 S 
ATOM     22  O   UNL     1       4.911   7.829  17.882  0.00  0.00    +0.000 OA
ATOM     23  O   UNL     1       4.817   5.931  19.509  0.00  0.00    +0.000 OA
BRANCH  21  24
ATOM     24  C   UNL     1       4.908   5.409  16.938  0.00  0.00    +0.000 A 
ATOM     25  C   UNL     1       5.701   5.966  15.916  0.00  0.00    +0.000 A 
ATOM     26  C   UNL     1       5.985   5.249  14.754  0.00  0.00    +0.000 A 
ATOM     27  C   UNL     1       5.497   3.960  14.600  0.00  0.00    +0.000 A 
ATOM     28  C   UNL     1       4.721   3.394  15.609  0.00  0.00    +0.000 A 
ATOM     29  C   UNL     1       4.394   4.105  16.792  0.00  0.00    +0.000 A 
BRANCH  29  30
ATOM     30  C   UNL     1       3.477   3.388  17.755  0.00  0.00    +0.000 C 
ATOM     31  F   UNL     1       3.738   3.513  19.075  0.00  0.00    +0.000 F 
ATOM     32  F   UNL     1       2.175   3.759  17.583  0.00  0.00    +0.000 F 
ATOM     33  F   UNL     1       3.488   2.039  17.525  0.00  0.00    +0.000 F 
ENDBRANCH  29  30
ENDBRANCH  21  24
ENDBRANCH   6  21
TORSDOF 5
ENDMDL
