MODEL 1
REMARK VINA RESULT:      -7.5      0.000      0.000
REMARK  Name = 
REMARK  2 active torsions:
REMARK  status: ('A' for Active; 'I' for Inactive)
REMARK    1  A    between atoms: N_10  and  C_11
REMARK    2  A    between atoms: C_14  and  C_15
REMARK                            x       y       z     vdW  Elec       q    Type
REMARK                         _______ _______ _______ _____ _____    ______ ____
ROOT
ATOM      1  O   UNL     1       2.145   9.110  17.336  0.00  0.00    +0.000 OA
ATOM      2  C   UNL     1       1.997   8.566  18.420  0.00  0.00    +0.000 A 
ATOM      3  C   UNL     1       1.273   9.140  19.449  0.00  0.00    +0.000 A 
ATOM      4  C   UNL     1       0.609  10.377  19.444  0.00  0.00    +0.000 A 
ATOM      5  C   UNL     1      -0.043  10.801  20.614  0.00  0.00    +0.000 A 
ATOM      6  C   UNL     1      -0.023   9.999  21.769  0.00  0.00    +0.000 A 
ATOM      7  C   UNL     1       0.631   8.764  21.753  0.00  0.00    +0.000 A 
ATOM      8  C   UNL     1       1.259   8.352  20.582  0.00  0.00    +0.000 A 
ATOM      9 SE   UNL     1       2.116   6.785  20.387  0.00  0.00    +0.000 Se
ATOM     10  N   UNL     1       2.535   7.336  18.714  0.00  0.00    +0.000 N 
ENDROOT
BRANCH  10  11
ATOM     11  C   UNL     1       3.413   6.527  17.894  0.00  0.00    +0.000 A 
ATOM     12  C   UNL     1       4.432   7.154  17.152  0.00  0.00    +0.000 A 
ATOM     13  C   UNL     1       5.243   6.433  16.283  0.00  0.00    +0.000 A 
ATOM     14  C   UNL     1       5.050   5.057  16.111  0.00  0.00    +0.000 A 
ATOM     15  C   UNL     1       4.054   4.410  16.863  0.00  0.00    +0.000 A 
ATOM     16  C   UNL     1       3.247   5.134  17.755  0.00  0.00    +0.000 A 
BRANCH  14  17
ATOM     17  C   UNL     1       5.876   4.279  15.115  0.00  0.00    +0.000 C 
ATOM     18  F   UNL     1       6.052   2.964  15.514  0.00  0.00    +0.000 F 
ATOM     19  F   UNL     1       5.257   4.287  13.880  0.00  0.00    +0.000 F 
ATOM     20  F   UNL     1       7.123   4.868  15.004  0.00  0.00    +0.000 F 
ENDBRANCH  14  17
ENDBRANCH  10  11
TORSDOF 2
ENDMDL
MODEL 2
REMARK VINA RESULT:      -7.4      1.304      1.915
REMARK  Name = 
REMARK  2 active torsions:
REMARK  status: ('A' for Active; 'I' for Inactive)
REMARK    1  A    between atoms: N_10  and  C_11
REMARK    2  A    between atoms: C_14  and  C_15
REMARK                            x       y       z     vdW  Elec       q    Type
REMARK                         _______ _______ _______ _____ _____    ______ ____
ROOT
ATOM      1  O   UNL     1       2.468   6.244  20.522  0.00  0.00    +0.000 OA
ATOM      2  C   UNL     1       2.179   7.236  19.870  0.00  0.00    +0.000 A 
ATOM      3  C   UNL     1       1.321   8.212  20.342  0.00  0.00    +0.000 A 
ATOM      4  C   UNL     1       0.661   8.248  21.581  0.00  0.00    +0.000 A 
ATOM      5  C   UNL     1      -0.208   9.318  21.856  0.00  0.00    +0.000 A 
ATOM      6  C   UNL     1      -0.415  10.329  20.900  0.00  0.00    +0.000 A 
ATOM      7  C   UNL     1       0.260  10.286  19.677  0.00  0.00    +0.000 A 
ATOM      8  C   UNL     1       1.128   9.227  19.427  0.00  0.00    +0.000 A 
ATOM      9 SE   UNL     1       2.090   9.039  17.922  0.00  0.00    +0.000 Se
ATOM     10  N   UNL     1       2.682   7.474  18.614  0.00  0.00    +0.000 N 
ENDROOT
BRANCH  10  11
ATOM     11  C   UNL     1       3.521   6.609  17.811  0.00  0.00    +0.000 A 
ATOM     12  C   UNL     1       4.545   7.177  17.029  0.00  0.00    +0.000 A 
ATOM     13  C   UNL     1       5.320   6.399  16.177  0.00  0.00    +0.000 A 
ATOM     14  C   UNL     1       5.085   5.024  16.061  0.00  0.00    +0.000 A 
ATOM     15  C   UNL     1       4.084   4.436  16.854  0.00  0.00    +0.000 A 
ATOM     16  C   UNL     1       3.313   5.216  17.729  0.00  0.00    +0.000 A 
BRANCH  14  17
ATOM     17  C   UNL     1       5.871   4.184  15.082  0.00  0.00    +0.000 C 
ATOM     18  F   UNL     1       5.257   4.138  13.842  0.00  0.00    +0.000 F 
ATOM     19  F   UNL     1       7.140   4.703  14.928  0.00  0.00    +0.000 F 
ATOM     20  F   UNL     1       5.962   2.892  15.569  0.00  0.00    +0.000 F 
ENDBRANCH  14  17
ENDBRANCH  10  11
TORSDOF 2
ENDMDL
MODEL 3
REMARK VINA RESULT:      -7.4      0.367      1.471
REMARK  Name = 
REMARK  2 active torsions:
REMARK  status: ('A' for Active; 'I' for Inactive)
REMARK    1  A    between atoms: N_10  and  C_11
REMARK    2  A    between atoms: C_14  and  C_15
REMARK                            x       y       z     vdW  Elec       q    Type
REMARK                         _______ _______ _______ _____ _____    ______ ____
ROOT
ATOM      1  O   UNL     1       2.071   9.195  17.383  0.00  0.00    +0.000 OA
ATOM      2  C   UNL     1       1.962   8.608  18.450  0.00  0.00    +0.000 A 
ATOM      3  C   UNL     1       1.253   9.128  19.517  0.00  0.00    +0.000 A 
ATOM      4  C   UNL     1       0.565  10.351  19.575  0.00  0.00    +0.000 A 
ATOM      5  C   UNL     1      -0.065  10.718  20.776  0.00  0.00    +0.000 A 
ATOM      6  C   UNL     1       0.000   9.874  21.900  0.00  0.00    +0.000 A 
ATOM      7  C   UNL     1       0.677   8.654  21.821  0.00  0.00    +0.000 A 
ATOM      8  C   UNL     1       1.284   8.299  20.620  0.00  0.00    +0.000 A 
ATOM      9 SE   UNL     1       2.165   6.758  20.345  0.00  0.00    +0.000 Se
ATOM     10  N   UNL     1       2.530   7.379  18.683  0.00  0.00    +0.000 N 
ENDROOT
BRANCH  10  11
ATOM     11  C   UNL     1       3.402   6.620  17.812  0.00  0.00    +0.000 A 
ATOM     12  C   UNL     1       3.211   5.231  17.688  0.00  0.00    +0.000 A 
ATOM     13  C   UNL     1       4.075   4.446  16.933  0.00  0.00    +0.000 A 
ATOM     14  C   UNL     1       5.176   5.021  16.289  0.00  0.00    +0.000 A 
ATOM     15  C   UNL     1       5.368   6.411  16.381  0.00  0.00    +0.000 A 
ATOM     16  C   UNL     1       4.485   7.208  17.126  0.00  0.00    +0.000 A 
BRANCH  14  17
ATOM     17  C   UNL     1       6.162   4.167  15.529  0.00  0.00    +0.000 C 
ATOM     18  F   UNL     1       6.106   4.412  14.167  0.00  0.00    +0.000 F 
ATOM     19  F   UNL     1       7.445   4.420  15.971  0.00  0.00    +0.000 F 
ATOM     20  F   UNL     1       5.861   2.833  15.742  0.00  0.00    +0.000 F 
ENDBRANCH  14  17
ENDBRANCH  10  11
TORSDOF 2
ENDMDL
MODEL 4
REMARK VINA RESULT:      -7.2      1.342      2.037
REMARK  Name = 
REMARK  2 active torsions:
REMARK  status: ('A' for Active; 'I' for Inactive)
REMARK    1  A    between atoms: N_10  and  C_11
REMARK    2  A    between atoms: C_14  and  C_15
REMARK                            x       y       z     vdW  Elec       q    Type
REMARK                         _______ _______ _______ _____ _____    ______ ____
ROOT
ATOM      1  O   UNL     1       2.515   6.270  20.442  0.00  0.00    +0.000 OA
ATOM      2  C   UNL     1       2.194   7.278  19.831  0.00  0.00    +0.000 A 
ATOM      3  C   UNL     1       1.345   8.232  20.362  0.00  0.00    +0.000 A 
ATOM      4  C   UNL     1       0.732   8.225  21.625  0.00  0.00    +0.000 A 
ATOM      5  C   UNL     1      -0.135   9.278  21.963  0.00  0.00    +0.000 A 
ATOM      6  C   UNL     1      -0.386  10.315  21.046  0.00  0.00    +0.000 A 
ATOM      7  C   UNL     1       0.243  10.313  19.798  0.00  0.00    +0.000 A 
ATOM      8  C   UNL     1       1.110   9.271  19.485  0.00  0.00    +0.000 A 
ATOM      9 SE   UNL     1       2.017   9.135  17.940  0.00  0.00    +0.000 Se
ATOM     10  N   UNL     1       2.647   7.556  18.563  0.00  0.00    +0.000 N 
ENDROOT
BRANCH  10  11
ATOM     11  C   UNL     1       3.463   6.723  17.706  0.00  0.00    +0.000 A 
ATOM     12  C   UNL     1       3.267   5.329  17.713  0.00  0.00    +0.000 A 
ATOM     13  C   UNL     1       4.084   4.480  16.973  0.00  0.00    +0.000 A 
ATOM     14  C   UNL     1       5.140   4.996  16.213  0.00  0.00    +0.000 A 
ATOM     15  C   UNL     1       5.333   6.388  16.174  0.00  0.00    +0.000 A 
ATOM     16  C   UNL     1       4.498   7.248  16.905  0.00  0.00    +0.000 A 
BRANCH  14  17
ATOM     17  C   UNL     1       6.077   4.077  15.467  0.00  0.00    +0.000 C 
ATOM     18  F   UNL     1       5.822   2.746  15.753  0.00  0.00    +0.000 F 
ATOM     19  F   UNL     1       5.945   4.271  14.107  0.00  0.00    +0.000 F 
ATOM     20  F   UNL     1       7.379   4.359  15.843  0.00  0.00    +0.000 F 
ENDBRANCH  14  17
ENDBRANCH  10  11
TORSDOF 2
ENDMDL
MODEL 5
REMARK VINA RESULT:      -7.0      1.661      2.541
REMARK  Name = 
REMARK  2 active torsions:
REMARK  status: ('A' for Active; 'I' for Inactive)
REMARK    1  A    between atoms: N_10  and  C_11
REMARK    2  A    between atoms: C_14  and  C_15
REMARK                            x       y       z     vdW  Elec       q    Type
REMARK                         _______ _______ _______ _____ _____    ______ ____
ROOT
ATOM      1  O   UNL     1       1.830   7.196  21.159  0.00  0.00    +0.000 OA
ATOM      2  C   UNL     1       1.520   8.111  20.410  0.00  0.00    +0.000 A 
ATOM      3  C   UNL     1       0.733   9.172  20.818  0.00  0.00    +0.000 A 
ATOM      4  C   UNL     1       0.178   9.389  22.089  0.00  0.00    +0.000 A 
ATOM      5  C   UNL     1      -0.632  10.520  22.292  0.00  0.00    +0.000 A 
ATOM      6  C   UNL     1      -0.885  11.412  21.234  0.00  0.00    +0.000 A 
ATOM      7  C   UNL     1      -0.313  11.188  19.978  0.00  0.00    +0.000 A 
ATOM      8  C   UNL     1       0.498  10.072  19.798  0.00  0.00    +0.000 A 
ATOM      9 SE   UNL     1       1.328   9.658  18.260  0.00  0.00    +0.000 Se
ATOM     10  N   UNL     1       1.925   8.168  19.099  0.00  0.00    +0.000 N 
ENDROOT
BRANCH  10  11
ATOM     11  C   UNL     1       2.669   7.176  18.351  0.00  0.00    +0.000 A 
ATOM     12  C   UNL     1       2.258   5.831  18.395  0.00  0.00    +0.000 A 
ATOM     13  C   UNL     1       2.990   4.830  17.766  0.00  0.00    +0.000 A 
ATOM     14  C   UNL     1       4.173   5.138  17.085  0.00  0.00    +0.000 A 
ATOM     15  C   UNL     1       4.585   6.480  17.009  0.00  0.00    +0.000 A 
ATOM     16  C   UNL     1       3.837   7.494  17.627  0.00  0.00    +0.000 A 
BRANCH  14  17
ATOM     17  C   UNL     1       5.014   4.049  16.463  0.00  0.00    +0.000 C 
ATOM     18  F   UNL     1       4.981   4.106  15.079  0.00  0.00    +0.000 F 
ATOM     19  F   UNL     1       6.325   4.169  16.880  0.00  0.00    +0.000 F 
ATOM     20  F   UNL     1       4.521   2.818  16.857  0.00  0.00    +0.000 F 
ENDBRANCH  14  17
ENDBRANCH  10  11
TORSDOF 2
ENDMDL
MODEL 6
REMARK VINA RESULT:      -7.0      3.797      4.859
REMARK  Name = 
REMARK  2 active torsions:
REMARK  status: ('A' for Active; 'I' for Inactive)
REMARK    1  A    between atoms: N_10  and  C_11
REMARK    2  A    between atoms: C_14  and  C_15
REMARK                            x       y       z     vdW  Elec       q    Type
REMARK                         _______ _______ _______ _____ _____    ______ ____
ROOT
ATOM      1  O   UNL     1       4.141   2.075  17.398  0.00  0.00    +0.000 OA
ATOM      2  C   UNL     1       3.858   3.200  17.785  0.00  0.00    +0.000 A 
ATOM      3  C   UNL     1       2.967   3.430  18.816  0.00  0.00    +0.000 A 
ATOM      4  C   UNL     1       2.263   2.477  19.570  0.00  0.00    +0.000 A 
ATOM      5  C   UNL     1       1.367   2.922  20.557  0.00  0.00    +0.000 A 
ATOM      6  C   UNL     1       1.177   4.298  20.778  0.00  0.00    +0.000 A 
ATOM      7  C   UNL     1       1.895   5.233  20.028  0.00  0.00    +0.000 A 
ATOM      8  C   UNL     1       2.790   4.776  19.064  0.00  0.00    +0.000 A 
ATOM      9 SE   UNL     1       3.808   5.843  18.039  0.00  0.00    +0.000 Se
ATOM     10  N   UNL     1       4.401   4.334  17.232  0.00  0.00    +0.000 N 
ENDROOT
BRANCH  10  11
ATOM     11  C   UNL     1       5.283   4.435  16.088  0.00  0.00    +0.000 A 
ATOM     12  C   UNL     1       6.568   4.985  16.257  0.00  0.00    +0.000 A 
ATOM     13  C   UNL     1       7.418   5.182  15.174  0.00  0.00    +0.000 A 
ATOM     14  C   UNL     1       7.004   4.854  13.878  0.00  0.00    +0.000 A 
ATOM     15  C   UNL     1       5.734   4.279  13.695  0.00  0.00    +0.000 A 
ATOM     16  C   UNL     1       4.882   4.061  14.788  0.00  0.00    +0.000 A 
BRANCH  14  17
ATOM     17  C   UNL     1       7.891   5.134  12.688  0.00  0.00    +0.000 C 
ATOM     18  F   UNL     1       7.528   6.307  12.047  0.00  0.00    +0.000 F 
ATOM     19  F   UNL     1       9.206   5.241  13.095  0.00  0.00    +0.000 F 
ATOM     20  F   UNL     1       7.775   4.092  11.785  0.00  0.00    +0.000 F 
ENDBRANCH  14  17
ENDBRANCH  10  11
TORSDOF 2
ENDMDL
MODEL 7
REMARK VINA RESULT:      -7.0      1.017      1.847
REMARK  Name = 
REMARK  2 active torsions:
REMARK  status: ('A' for Active; 'I' for Inactive)
REMARK    1  A    between atoms: N_10  and  C_11
REMARK    2  A    between atoms: C_14  and  C_15
REMARK                            x       y       z     vdW  Elec       q    Type
REMARK                         _______ _______ _______ _____ _____    ______ ____
ROOT
ATOM      1  O   UNL     1       1.422   9.725  17.830  0.00  0.00    +0.000 OA
ATOM      2  C   UNL     1       1.324   9.228  18.942  0.00  0.00    +0.000 A 
ATOM      3  C   UNL     1       0.673   9.861  19.985  0.00  0.00    +0.000 A 
ATOM      4  C   UNL     1       0.040  11.114  19.966  0.00  0.00    +0.000 A 
ATOM      5  C   UNL     1      -0.535  11.601  21.152  0.00  0.00    +0.000 A 
ATOM      6  C   UNL     1      -0.467  10.847  22.337  0.00  0.00    +0.000 A 
ATOM      7  C   UNL     1       0.155   9.595  22.336  0.00  0.00    +0.000 A 
ATOM      8  C   UNL     1       0.706   9.121  21.149  0.00  0.00    +0.000 A 
ATOM      9 SE   UNL     1       1.513   7.526  20.972  0.00  0.00    +0.000 Se
ATOM     10  N   UNL     1       1.848   7.998  19.256  0.00  0.00    +0.000 N 
ENDROOT
BRANCH  10  11
ATOM     11  C   UNL     1       2.659   7.135  18.422  0.00  0.00    +0.000 A 
ATOM     12  C   UNL     1       2.405   5.750  18.415  0.00  0.00    +0.000 A 
ATOM     13  C   UNL     1       3.210   4.871  17.700  0.00  0.00    +0.000 A 
ATOM     14  C   UNL     1       4.313   5.345  16.979  0.00  0.00    +0.000 A 
ATOM     15  C   UNL     1       4.565   6.728  16.955  0.00  0.00    +0.000 A 
ATOM     16  C   UNL     1       3.742   7.619  17.661  0.00  0.00    +0.000 A 
BRANCH  14  17
ATOM     17  C   UNL     1       5.237   4.391  16.261  0.00  0.00    +0.000 C 
ATOM     18  F   UNL     1       5.126   4.511  14.886  0.00  0.00    +0.000 F 
ATOM     19  F   UNL     1       6.546   4.639  16.623  0.00  0.00    +0.000 F 
ATOM     20  F   UNL     1       4.905   3.094  16.611  0.00  0.00    +0.000 F 
ENDBRANCH  14  17
ENDBRANCH  10  11
TORSDOF 2
ENDMDL
MODEL 8
REMARK VINA RESULT:      -7.0      3.458      4.447
REMARK  Name = 
REMARK  2 active torsions:
REMARK  status: ('A' for Active; 'I' for Inactive)
REMARK    1  A    between atoms: N_10  and  C_11
REMARK    2  A    between atoms: C_14  and  C_15
REMARK                            x       y       z     vdW  Elec       q    Type
REMARK                         _______ _______ _______ _____ _____    ______ ____
ROOT
ATOM      1  O   UNL     1       3.761   6.435  17.476  0.00  0.00    +0.000 OA
ATOM      2  C   UNL     1       3.654   5.254  17.771  0.00  0.00    +0.000 A 
ATOM      3  C   UNL     1       2.898   4.822  18.846  0.00  0.00    +0.000 A 
ATOM      4  C   UNL     1       2.157   5.606  19.744  0.00  0.00    +0.000 A 
ATOM      5  C   UNL     1       1.484   4.972  20.802  0.00  0.00    +0.000 A 
ATOM      6  C   UNL     1       1.561   3.577  20.959  0.00  0.00    +0.000 A 
ATOM      7  C   UNL     1       2.292   2.809  20.049  0.00  0.00    +0.000 A 
ATOM      8  C   UNL     1       2.940   3.450  18.998  0.00  0.00    +0.000 A 
ATOM      9 SE   UNL     1       3.894   2.609  17.729  0.00  0.00    +0.000 Se
ATOM     10  N   UNL     1       4.270   4.251  17.063  0.00  0.00    +0.000 N 
ENDROOT
BRANCH  10  11
ATOM     11  C   UNL     1       5.194   4.379  15.956  0.00  0.00    +0.000 A 
ATOM     12  C   UNL     1       6.445   4.988  16.170  0.00  0.00    +0.000 A 
ATOM     13  C   UNL     1       7.330   5.212  15.122  0.00  0.00    +0.000 A 
ATOM     14  C   UNL     1       6.985   4.852  13.813  0.00  0.00    +0.000 A 
ATOM     15  C   UNL     1       5.750   4.220  13.585  0.00  0.00    +0.000 A 
ATOM     16  C   UNL     1       4.864   3.975  14.645  0.00  0.00    +0.000 A 
BRANCH  14  17
ATOM     17  C   UNL     1       7.907   5.160  12.658  0.00  0.00    +0.000 C 
ATOM     18  F   UNL     1       7.570   6.353  12.040  0.00  0.00    +0.000 F 
ATOM     19  F   UNL     1       9.211   5.246  13.105  0.00  0.00    +0.000 F 
ATOM     20  F   UNL     1       7.811   4.145  11.722  0.00  0.00    +0.000 F 
ENDBRANCH  14  17
ENDBRANCH  10  11
TORSDOF 2
ENDMDL
MODEL 9
REMARK VINA RESULT:      -6.9      0.986      1.319
REMARK  Name = 
REMARK  2 active torsions:
REMARK  status: ('A' for Active; 'I' for Inactive)
REMARK    1  A    between atoms: N_10  and  C_11
REMARK    2  A    between atoms: C_14  and  C_15
REMARK                            x       y       z     vdW  Elec       q    Type
REMARK                         _______ _______ _______ _____ _____    ______ ____
ROOT
ATOM      1  O   UNL     1       1.776   9.529  17.338  0.00  0.00    +0.000 OA
ATOM      2  C   UNL     1       1.566   9.196  18.495  0.00  0.00    +0.000 A 
ATOM      3  C   UNL     1       0.857   9.987  19.380  0.00  0.00    +0.000 A 
ATOM      4  C   UNL     1       0.277  11.242  19.134  0.00  0.00    +0.000 A 
ATOM      5  C   UNL     1      -0.374  11.907  20.187  0.00  0.00    +0.000 A 
ATOM      6  C   UNL     1      -0.434  11.324  21.466  0.00  0.00    +0.000 A 
ATOM      7  C   UNL     1       0.136  10.069  21.691  0.00  0.00    +0.000 A 
ATOM      8  C   UNL     1       0.764   9.417  20.634  0.00  0.00    +0.000 A 
ATOM      9 SE   UNL     1       1.519   7.791  20.749  0.00  0.00    +0.000 Se
ATOM     10  N   UNL     1       2.014   8.008  19.020  0.00  0.00    +0.000 N 
ENDROOT
BRANCH  10  11
ATOM     11  C   UNL     1       2.855   7.014  18.387  0.00  0.00    +0.000 A 
ATOM     12  C   UNL     1       4.010   7.429  17.698  0.00  0.00    +0.000 A 
ATOM     13  C   UNL     1       4.802   6.523  17.001  0.00  0.00    +0.000 A 
ATOM     14  C   UNL     1       4.454   5.168  16.952  0.00  0.00    +0.000 A 
ATOM     15  C   UNL     1       3.318   4.732  17.657  0.00  0.00    +0.000 A 
ATOM     16  C   UNL     1       2.529   5.642  18.377  0.00  0.00    +0.000 A 
BRANCH  14  17
ATOM     17  C   UNL     1       5.264   4.190  16.137  0.00  0.00    +0.000 C 
ATOM     18  F   UNL     1       6.619   4.301  16.405  0.00  0.00    +0.000 F 
ATOM     19  F   UNL     1       4.863   2.898  16.414  0.00  0.00    +0.000 F 
ATOM     20  F   UNL     1       5.066   4.450  14.793  0.00  0.00    +0.000 F 
ENDBRANCH  14  17
ENDBRANCH  10  11
TORSDOF 2
ENDMDL
