MODEL 1
REMARK VINA RESULT:      -8.8      0.000      0.000
REMARK  Name = 
REMARK  7 active torsions:
REMARK  status: ('A' for Active; 'I' for Inactive)
REMARK    1  A    between atoms: C_1  and  C_2
REMARK    2  A    between atoms: C_3  and  C_4
REMARK    3  A    between atoms: C_6  and  C_7
REMARK    4  A    between atoms: N_20  and  C_21
REMARK    5  A    between atoms: C_24  and  C_25
REMARK    6  A    between atoms: C_25  and  C_26
REMARK    7  A    between atoms: C_25  and  C_27
REMARK                            x       y       z     vdW  Elec       q    Type
REMARK                         _______ _______ _______ _____ _____    ______ ____
ROOT
ATOM      1  C   UNL     1       2.599   8.702  18.127  0.00  0.00    +0.000 C 
ATOM      2  C   UNL     1       2.458   7.593  19.098  0.00  0.00    +0.000 A 
ATOM      3  C   UNL     1       1.814   7.532  20.324  0.00  0.00    +0.000 A 
ATOM      4  N   UNL     1       1.835   6.243  20.780  0.00  0.00    +0.000 NA
ATOM      5  N   UNL     1       2.413   5.483  19.860  0.00  0.00    +0.000 NA
ATOM      6  N   UNL     1       2.895   6.282  18.874  0.00  0.00    +0.000 N 
ENDROOT
BRANCH   6   7
ATOM      7  C   UNL     1       3.697   5.733  17.828  0.00  0.00    +0.000 A 
ATOM      8  C   UNL     1       3.671   4.352  17.562  0.00  0.00    +0.000 A 
ATOM      9  C   UNL     1       4.407   3.818  16.489  0.00  0.00    +0.000 A 
ATOM     10  C   UNL     1       5.220   4.635  15.688  0.00  0.00    +0.000 A 
ATOM     11  C   UNL     1       5.296   5.997  16.011  0.00  0.00    +0.000 A 
ATOM     12  C   UNL     1       4.543   6.541  17.063  0.00  0.00    +0.000 A 
BRANCH  10  13
ATOM     13  C   UNL     1       5.984   4.059  14.502  0.00  0.00    +0.000 C 
ATOM     14  C   UNL     1       5.075   3.864  13.283  0.00  0.00    +0.000 C 
ATOM     15  C   UNL     1       7.196   4.915  14.116  0.00  0.00    +0.000 C 
ENDBRANCH  10  13
ENDBRANCH   6   7
BRANCH   3  16
ATOM     16  C   UNL     1       1.124   8.627  21.094  0.00  0.00    +0.000 A 
ATOM     17  N   UNL     1       0.126   9.394  20.681  0.00  0.00    +0.000 NA
ATOM     18  C   UNL     1      -0.132  10.207  21.781  0.00  0.00    +0.000 A 
ATOM     19  N   UNL     1       0.683   9.967  22.818  0.00  0.00    +0.000 NA
ATOM     20  O   UNL     1       1.493   8.929  22.381  0.00  0.00    +0.000 OA
BRANCH  18  21
ATOM     21  C   UNL     1      -1.187  11.226  21.823  0.00  0.00    +0.000 A 
ATOM     22  C   UNL     1      -1.547  11.955  20.665  0.00  0.00    +0.000 A 
ATOM     23  C   UNL     1      -2.545  12.944  20.702  0.00  0.00    +0.000 A 
ATOM     24  C   UNL     1      -3.167  13.193  21.908  0.00  0.00    +0.000 A 
ATOM     25  C   UNL     1      -2.839  12.491  23.038  0.00  0.00    +0.000 A 
ATOM     26  C   UNL     1      -1.872  11.501  23.028  0.00  0.00    +0.000 A 
ATOM     27  O   UNL     1      -3.566  12.884  24.122  0.00  0.00    +0.000 OA
ATOM     28  C   UNL     1      -4.348  13.954  23.551  0.00  0.00    +0.000 C 
ATOM     29  O   UNL     1      -4.136  14.122  22.134  0.00  0.00    +0.000 OA
ENDBRANCH  18  21
ENDBRANCH   3  16
TORSDOF 4
ENDMDL
MODEL 2
REMARK VINA RESULT:      -8.7      1.171      1.585
REMARK  Name = 
REMARK  7 active torsions:
REMARK  status: ('A' for Active; 'I' for Inactive)
REMARK    1  A    between atoms: C_1  and  C_2
REMARK    2  A    between atoms: C_3  and  C_4
REMARK    3  A    between atoms: C_6  and  C_7
REMARK    4  A    between atoms: N_20  and  C_21
REMARK    5  A    between atoms: C_24  and  C_25
REMARK    6  A    between atoms: C_25  and  C_26
REMARK    7  A    between atoms: C_25  and  C_27
REMARK                            x       y       z     vdW  Elec       q    Type
REMARK                         _______ _______ _______ _____ _____    ______ ____
ROOT
ATOM      1  C   UNL     1       1.904   9.308  17.820  0.00  0.00    +0.000 C 
ATOM      2  C   UNL     1       1.877   8.480  19.047  0.00  0.00    +0.000 A 
ATOM      3  C   UNL     1       1.291   8.704  20.283  0.00  0.00    +0.000 A 
ATOM      4  N   UNL     1       1.415   7.577  21.050  0.00  0.00    +0.000 NA
ATOM      5  N   UNL     1       2.001   6.637  20.321  0.00  0.00    +0.000 NA
ATOM      6  N   UNL     1       2.387   7.180  19.138  0.00  0.00    +0.000 N 
ENDROOT
BRANCH   6   7
ATOM      7  C   UNL     1       3.177   6.422  18.221  0.00  0.00    +0.000 A 
ATOM      8  C   UNL     1       4.190   7.046  17.470  0.00  0.00    +0.000 A 
ATOM      9  C   UNL     1       5.014   6.290  16.617  0.00  0.00    +0.000 A 
ATOM     10  C   UNL     1       4.820   4.910  16.455  0.00  0.00    +0.000 A 
ATOM     11  C   UNL     1       3.759   4.314  17.150  0.00  0.00    +0.000 A 
ATOM     12  C   UNL     1       2.950   5.057  18.024  0.00  0.00    +0.000 A 
BRANCH  10  13
ATOM     13  C   UNL     1       5.740   4.088  15.561  0.00  0.00    +0.000 C 
ATOM     14  C   UNL     1       5.321   4.170  14.088  0.00  0.00    +0.000 C 
ATOM     15  C   UNL     1       7.211   4.494  15.707  0.00  0.00    +0.000 C 
ENDBRANCH  10  13
ENDBRANCH   6   7
BRANCH   3  16
ATOM     16  C   UNL     1       0.566   9.923  20.789  0.00  0.00    +0.000 A 
ATOM     17  N   UNL     1      -0.731  10.177  20.709  0.00  0.00    +0.000 NA
ATOM     18  C   UNL     1      -0.858  11.409  21.342  0.00  0.00    +0.000 A 
ATOM     19  N   UNL     1       0.310  11.904  21.775  0.00  0.00    +0.000 NA
ATOM     20  O   UNL     1       1.239  10.932  21.430  0.00  0.00    +0.000 OA
BRANCH  18  21
ATOM     21  C   UNL     1      -2.133  12.111  21.531  0.00  0.00    +0.000 A 
ATOM     22  C   UNL     1      -2.827  12.677  20.434  0.00  0.00    +0.000 A 
ATOM     23  C   UNL     1      -4.039  13.365  20.611  0.00  0.00    +0.000 A 
ATOM     24  C   UNL     1      -4.538  13.483  21.892  0.00  0.00    +0.000 A 
ATOM     25  C   UNL     1      -3.886  12.934  22.965  0.00  0.00    +0.000 A 
ATOM     26  C   UNL     1      -2.699  12.238  22.819  0.00  0.00    +0.000 A 
ATOM     27  O   UNL     1      -4.540  13.159  24.139  0.00  0.00    +0.000 OA
ATOM     28  C   UNL     1      -5.649  13.962  23.683  0.00  0.00    +0.000 C 
ATOM     29  O   UNL     1      -5.681  14.128  22.250  0.00  0.00    +0.000 OA
ENDBRANCH  18  21
ENDBRANCH   3  16
TORSDOF 4
ENDMDL
MODEL 3
REMARK VINA RESULT:      -8.7      0.619      1.591
REMARK  Name = 
REMARK  7 active torsions:
REMARK  status: ('A' for Active; 'I' for Inactive)
REMARK    1  A    between atoms: C_1  and  C_2
REMARK    2  A    between atoms: C_3  and  C_4
REMARK    3  A    between atoms: C_6  and  C_7
REMARK    4  A    between atoms: N_20  and  C_21
REMARK    5  A    between atoms: C_24  and  C_25
REMARK    6  A    between atoms: C_25  and  C_26
REMARK    7  A    between atoms: C_25  and  C_27
REMARK                            x       y       z     vdW  Elec       q    Type
REMARK                         _______ _______ _______ _____ _____    ______ ____
ROOT
ATOM      1  C   UNL     1       2.418   8.665  18.062  0.00  0.00    +0.000 C 
ATOM      2  C   UNL     1       2.403   7.582  19.070  0.00  0.00    +0.000 A 
ATOM      3  C   UNL     1       1.857   7.529  20.343  0.00  0.00    +0.000 A 
ATOM      4  N   UNL     1       1.974   6.256  20.831  0.00  0.00    +0.000 NA
ATOM      5  N   UNL     1       2.516   5.496  19.890  0.00  0.00    +0.000 NA
ATOM      6  N   UNL     1       2.884   6.285  18.849  0.00  0.00    +0.000 N 
ENDROOT
BRANCH   6   7
ATOM      7  C   UNL     1       3.629   5.741  17.759  0.00  0.00    +0.000 A 
ATOM      8  C   UNL     1       4.473   6.566  16.992  0.00  0.00    +0.000 A 
ATOM      9  C   UNL     1       5.259   6.020  15.963  0.00  0.00    +0.000 A 
ATOM     10  C   UNL     1       5.191   4.655  15.641  0.00  0.00    +0.000 A 
ATOM     11  C   UNL     1       4.291   3.860  16.362  0.00  0.00    +0.000 A 
ATOM     12  C   UNL     1       3.523   4.392  17.410  0.00  0.00    +0.000 A 
BRANCH  10  13
ATOM     13  C   UNL     1       6.075   4.061  14.552  0.00  0.00    +0.000 C 
ATOM     14  C   UNL     1       5.284   3.783  13.269  0.00  0.00    +0.000 C 
ATOM     15  C   UNL     1       7.286   4.946  14.235  0.00  0.00    +0.000 C 
ENDBRANCH  10  13
ENDBRANCH   6   7
BRANCH   3  16
ATOM     16  C   UNL     1       1.177   8.615  21.135  0.00  0.00    +0.000 A 
ATOM     17  N   UNL     1       0.096   9.300  20.794  0.00  0.00    +0.000 NA
ATOM     18  C   UNL     1      -0.105  10.145  21.881  0.00  0.00    +0.000 A 
ATOM     19  N   UNL     1       0.821  10.004  22.839  0.00  0.00    +0.000 NA
ATOM     20  O   UNL     1       1.651   8.998  22.364  0.00  0.00    +0.000 OA
BRANCH  18  21
ATOM     21  C   UNL     1      -1.216  11.099  21.988  0.00  0.00    +0.000 A 
ATOM     22  C   UNL     1      -1.800  11.404  23.241  0.00  0.00    +0.000 A 
ATOM     23  C   UNL     1      -2.874  12.303  23.349  0.00  0.00    +0.000 A 
ATOM     24  C   UNL     1      -3.355  12.882  22.192  0.00  0.00    +0.000 A 
ATOM     25  C   UNL     1      -2.796  12.607  20.971  0.00  0.00    +0.000 A 
ATOM     26  C   UNL     1      -1.727  11.738  20.836  0.00  0.00    +0.000 A 
ATOM     27  O   UNL     1      -3.411  13.278  19.957  0.00  0.00    +0.000 OA
ATOM     28  C   UNL     1      -4.457  13.963  20.678  0.00  0.00    +0.000 C 
ATOM     29  O   UNL     1      -4.395  13.756  22.105  0.00  0.00    +0.000 OA
ENDBRANCH  18  21
ENDBRANCH   3  16
TORSDOF 4
ENDMDL
MODEL 4
REMARK VINA RESULT:      -8.6      2.822     10.996
REMARK  Name = 
REMARK  7 active torsions:
REMARK  status: ('A' for Active; 'I' for Inactive)
REMARK    1  A    between atoms: C_1  and  C_2
REMARK    2  A    between atoms: C_3  and  C_4
REMARK    3  A    between atoms: C_6  and  C_7
REMARK    4  A    between atoms: N_20  and  C_21
REMARK    5  A    between atoms: C_24  and  C_25
REMARK    6  A    between atoms: C_25  and  C_26
REMARK    7  A    between atoms: C_25  and  C_27
REMARK                            x       y       z     vdW  Elec       q    Type
REMARK                         _______ _______ _______ _____ _____    ______ ____
ROOT
ATOM      1  C   UNL     1      -0.374  12.090  20.074  0.00  0.00    +0.000 C 
ATOM      2  C   UNL     1      -0.222  11.137  21.197  0.00  0.00    +0.000 A 
ATOM      3  C   UNL     1       0.435   9.920  21.276  0.00  0.00    +0.000 A 
ATOM      4  N   UNL     1       0.419   9.483  22.573  0.00  0.00    +0.000 NA
ATOM      5  N   UNL     1      -0.169  10.408  23.319  0.00  0.00    +0.000 NA
ATOM      6  N   UNL     1      -0.662  11.376  22.505  0.00  0.00    +0.000 N 
ENDROOT
BRANCH   6   7
ATOM      7  C   UNL     1      -1.475  12.422  23.039  0.00  0.00    +0.000 A 
ATOM      8  C   UNL     1      -2.803  12.164  23.424  0.00  0.00    +0.000 A 
ATOM      9  C   UNL     1      -3.584  13.175  24.012  0.00  0.00    +0.000 A 
ATOM     10  C   UNL     1      -3.080  14.473  24.188  0.00  0.00    +0.000 A 
ATOM     11  C   UNL     1      -1.782  14.736  23.730  0.00  0.00    +0.000 A 
ATOM     12  C   UNL     1      -0.987  13.725  23.168  0.00  0.00    +0.000 A 
BRANCH  10  13
ATOM     13  C   UNL     1      -3.916  15.554  24.863  0.00  0.00    +0.000 C 
ATOM     14  C   UNL     1      -3.075  16.789  25.206  0.00  0.00    +0.000 C 
ATOM     15  C   UNL     1      -5.127  15.966  24.020  0.00  0.00    +0.000 C 
ENDBRANCH  10  13
ENDBRANCH   6   7
BRANCH   3  16
ATOM     16  C   UNL     1       1.133   9.140  20.193  0.00  0.00    +0.000 A 
ATOM     17  N   UNL     1       1.576   7.893  20.259  0.00  0.00    +0.000 NA
ATOM     18  C   UNL     1       2.110   7.674  18.993  0.00  0.00    +0.000 A 
ATOM     19  N   UNL     1       2.021   8.743  18.189  0.00  0.00    +0.000 NA
ATOM     20  O   UNL     1       1.373   9.696  18.962  0.00  0.00    +0.000 OA
BRANCH  18  21
ATOM     21  C   UNL     1       2.710   6.407  18.560  0.00  0.00    +0.000 A 
ATOM     22  C   UNL     1       3.800   6.384  17.657  0.00  0.00    +0.000 A 
ATOM     23  C   UNL     1       4.368   5.173  17.225  0.00  0.00    +0.000 A 
ATOM     24  C   UNL     1       3.828   3.996  17.702  0.00  0.00    +0.000 A 
ATOM     25  C   UNL     1       2.780   3.998  18.585  0.00  0.00    +0.000 A 
ATOM     26  C   UNL     1       2.211   5.175  19.040  0.00  0.00    +0.000 A 
ATOM     27  O   UNL     1       2.397   2.739  18.936  0.00  0.00    +0.000 OA
ATOM     28  C   UNL     1       3.290   1.946  18.127  0.00  0.00    +0.000 C 
ATOM     29  O   UNL     1       4.236   2.739  17.380  0.00  0.00    +0.000 OA
ENDBRANCH  18  21
ENDBRANCH   3  16
TORSDOF 4
ENDMDL
MODEL 5
REMARK VINA RESULT:      -8.5      2.873     10.992
REMARK  Name = 
REMARK  7 active torsions:
REMARK  status: ('A' for Active; 'I' for Inactive)
REMARK    1  A    between atoms: C_1  and  C_2
REMARK    2  A    between atoms: C_3  and  C_4
REMARK    3  A    between atoms: C_6  and  C_7
REMARK    4  A    between atoms: N_20  and  C_21
REMARK    5  A    between atoms: C_24  and  C_25
REMARK    6  A    between atoms: C_25  and  C_26
REMARK    7  A    between atoms: C_25  and  C_27
REMARK                            x       y       z     vdW  Elec       q    Type
REMARK                         _______ _______ _______ _____ _____    ______ ____
ROOT
ATOM      1  C   UNL     1       0.108   9.405  22.917  0.00  0.00    +0.000 C 
ATOM      2  C   UNL     1       0.148  10.064  21.592  0.00  0.00    +0.000 A 
ATOM      3  C   UNL     1       0.634   9.624  20.370  0.00  0.00    +0.000 A 
ATOM      4  N   UNL     1       0.310  10.536  19.403  0.00  0.00    +0.000 NA
ATOM      5  N   UNL     1      -0.412  11.499  19.960  0.00  0.00    +0.000 NA
ATOM      6  N   UNL     1      -0.442  11.300  21.302  0.00  0.00    +0.000 N 
ENDROOT
BRANCH   6   7
ATOM      7  C   UNL     1      -1.029  12.276  22.163  0.00  0.00    +0.000 A 
ATOM      8  C   UNL     1      -2.293  12.050  22.738  0.00  0.00    +0.000 A 
ATOM      9  C   UNL     1      -2.843  12.978  23.639  0.00  0.00    +0.000 A 
ATOM     10  C   UNL     1      -2.174  14.172  23.952  0.00  0.00    +0.000 A 
ATOM     11  C   UNL     1      -0.952  14.421  23.314  0.00  0.00    +0.000 A 
ATOM     12  C   UNL     1      -0.383  13.486  22.435  0.00  0.00    +0.000 A 
BRANCH  10  13
ATOM     13  C   UNL     1      -2.755  15.156  24.960  0.00  0.00    +0.000 C 
ATOM     14  C   UNL     1      -1.663  15.787  25.831  0.00  0.00    +0.000 C 
ATOM     15  C   UNL     1      -3.587  16.255  24.290  0.00  0.00    +0.000 C 
ENDBRANCH  10  13
ENDBRANCH   6   7
BRANCH   3  16
ATOM     16  C   UNL     1       1.363   8.350  20.036  0.00  0.00    +0.000 A 
ATOM     17  N   UNL     1       2.022   8.070  18.922  0.00  0.00    +0.000 NA
ATOM     18  C   UNL     1       2.510   6.787  19.150  0.00  0.00    +0.000 A 
ATOM     19  N   UNL     1       2.151   6.289  20.341  0.00  0.00    +0.000 NA
ATOM     20  O   UNL     1       1.416   7.309  20.928  0.00  0.00    +0.000 OA
BRANCH  18  21
ATOM     21  C   UNL     1       3.339   6.039  18.197  0.00  0.00    +0.000 A 
ATOM     22  C   UNL     1       3.079   4.677  17.912  0.00  0.00    +0.000 A 
ATOM     23  C   UNL     1       3.880   3.951  17.014  0.00  0.00    +0.000 A 
ATOM     24  C   UNL     1       4.939   4.603  16.416  0.00  0.00    +0.000 A 
ATOM     25  C   UNL     1       5.201   5.923  16.671  0.00  0.00    +0.000 A 
ATOM     26  C   UNL     1       4.420   6.668  17.539  0.00  0.00    +0.000 A 
ATOM     27  O   UNL     1       6.284   6.379  15.983  0.00  0.00    +0.000 OA
ATOM     28  C   UNL     1       6.706   5.175  15.310  0.00  0.00    +0.000 C 
ATOM     29  O   UNL     1       5.825   4.055  15.540  0.00  0.00    +0.000 OA
ENDBRANCH  18  21
ENDBRANCH   3  16
TORSDOF 4
ENDMDL
MODEL 6
REMARK VINA RESULT:      -8.5      3.340     10.942
REMARK  Name = 
REMARK  7 active torsions:
REMARK  status: ('A' for Active; 'I' for Inactive)
REMARK    1  A    between atoms: C_1  and  C_2
REMARK    2  A    between atoms: C_3  and  C_4
REMARK    3  A    between atoms: C_6  and  C_7
REMARK    4  A    between atoms: N_20  and  C_21
REMARK    5  A    between atoms: C_24  and  C_25
REMARK    6  A    between atoms: C_25  and  C_26
REMARK    7  A    between atoms: C_25  and  C_27
REMARK                            x       y       z     vdW  Elec       q    Type
REMARK                         _______ _______ _______ _____ _____    ______ ____
ROOT
ATOM      1  C   UNL     1      -0.403  11.308  19.977  0.00  0.00    +0.000 C 
ATOM      2  C   UNL     1      -0.086  10.590  21.232  0.00  0.00    +0.000 A 
ATOM      3  C   UNL     1       0.670   9.452  21.464  0.00  0.00    +0.000 A 
ATOM      4  N   UNL     1       0.793   9.261  22.813  0.00  0.00    +0.000 NA
ATOM      5  N   UNL     1       0.195  10.268  23.435  0.00  0.00    +0.000 NA
ATOM      6  N   UNL     1      -0.437  11.036  22.512  0.00  0.00    +0.000 N 
ENDROOT
BRANCH   6   7
ATOM      7  C   UNL     1      -1.285  12.108  22.925  0.00  0.00    +0.000 A 
ATOM      8  C   UNL     1      -2.607  11.853  23.333  0.00  0.00    +0.000 A 
ATOM      9  C   UNL     1      -3.422  12.897  23.804  0.00  0.00    +0.000 A 
ATOM     10  C   UNL     1      -2.960  14.222  23.837  0.00  0.00    +0.000 A 
ATOM     11  C   UNL     1      -1.668  14.474  23.357  0.00  0.00    +0.000 A 
ATOM     12  C   UNL     1      -0.839  13.433  22.911  0.00  0.00    +0.000 A 
BRANCH  10  13
ATOM     13  C   UNL     1      -3.832  15.343  24.387  0.00  0.00    +0.000 C 
ATOM     14  C   UNL     1      -3.021  16.329  25.236  0.00  0.00    +0.000 C 
ATOM     15  C   UNL     1      -4.578  16.099  23.281  0.00  0.00    +0.000 C 
ENDBRANCH  10  13
ENDBRANCH   6   7
BRANCH   3  16
ATOM     16  C   UNL     1       1.339   8.533  20.476  0.00  0.00    +0.000 A 
ATOM     17  N   UNL     1       1.500   7.222  20.580  0.00  0.00    +0.000 NA
ATOM     18  C   UNL     1       2.152   6.883  19.399  0.00  0.00    +0.000 A 
ATOM     19  N   UNL     1       2.400   7.938  18.611  0.00  0.00    +0.000 NA
ATOM     20  O   UNL     1       1.860   9.014  19.302  0.00  0.00    +0.000 OA
BRANCH  18  21
ATOM     21  C   UNL     1       2.532   5.514  19.031  0.00  0.00    +0.000 A 
ATOM     22  C   UNL     1       1.963   4.873  17.904  0.00  0.00    +0.000 A 
ATOM     23  C   UNL     1       2.310   3.557  17.557  0.00  0.00    +0.000 A 
ATOM     24  C   UNL     1       3.223   2.895  18.352  0.00  0.00    +0.000 A 
ATOM     25  C   UNL     1       3.792   3.501  19.441  0.00  0.00    +0.000 A 
ATOM     26  C   UNL     1       3.481   4.802  19.798  0.00  0.00    +0.000 A 
ATOM     27  O   UNL     1       4.666   2.683  20.092  0.00  0.00    +0.000 OA
ATOM     28  C   UNL     1       4.536   1.474  19.316  0.00  0.00    +0.000 C 
ATOM     29  O   UNL     1       3.659   1.618  18.179  0.00  0.00    +0.000 OA
ENDBRANCH  18  21
ENDBRANCH   3  16
TORSDOF 4
ENDMDL
MODEL 7
REMARK VINA RESULT:      -8.5      2.867     10.990
REMARK  Name = 
REMARK  7 active torsions:
REMARK  status: ('A' for Active; 'I' for Inactive)
REMARK    1  A    between atoms: C_1  and  C_2
REMARK    2  A    between atoms: C_3  and  C_4
REMARK    3  A    between atoms: C_6  and  C_7
REMARK    4  A    between atoms: N_20  and  C_21
REMARK    5  A    between atoms: C_24  and  C_25
REMARK    6  A    between atoms: C_25  and  C_26
REMARK    7  A    between atoms: C_25  and  C_27
REMARK                            x       y       z     vdW  Elec       q    Type
REMARK                         _______ _______ _______ _____ _____    ______ ____
ROOT
ATOM      1  C   UNL     1      -0.416   8.674  21.741  0.00  0.00    +0.000 C 
ATOM      2  C   UNL     1       0.166   9.551  20.700  0.00  0.00    +0.000 A 
ATOM      3  C   UNL     1       1.085   9.287  19.696  0.00  0.00    +0.000 A 
ATOM      4  N   UNL     1       1.197  10.386  18.889  0.00  0.00    +0.000 NA
ATOM      5  N   UNL     1       0.340  11.305  19.312  0.00  0.00    +0.000 NA
ATOM      6  N   UNL     1      -0.227  10.875  20.467  0.00  0.00    +0.000 N 
ENDROOT
BRANCH   6   7
ATOM      7  C   UNL     1      -1.081  11.739  21.217  0.00  0.00    +0.000 A 
ATOM      8  C   UNL     1      -2.136  12.422  20.584  0.00  0.00    +0.000 A 
ATOM      9  C   UNL     1      -3.020  13.219  21.331  0.00  0.00    +0.000 A 
ATOM     10  C   UNL     1      -2.849  13.393  22.714  0.00  0.00    +0.000 A 
ATOM     11  C   UNL     1      -1.751  12.769  23.319  0.00  0.00    +0.000 A 
ATOM     12  C   UNL     1      -0.880  11.949  22.584  0.00  0.00    +0.000 A 
BRANCH  10  13
ATOM     13  C   UNL     1      -3.833  14.226  23.527  0.00  0.00    +0.000 C 
ATOM     14  C   UNL     1      -3.183  14.796  24.793  0.00  0.00    +0.000 C 
ATOM     15  C   UNL     1      -4.457  15.360  22.705  0.00  0.00    +0.000 C 
ENDBRANCH  10  13
ENDBRANCH   6   7
BRANCH   3  16
ATOM     16  C   UNL     1       1.852   8.023  19.413  0.00  0.00    +0.000 A 
ATOM     17  N   UNL     1       2.441   7.678  18.278  0.00  0.00    +0.000 NA
ATOM     18  C   UNL     1       3.009   6.442  18.573  0.00  0.00    +0.000 A 
ATOM     19  N   UNL     1       2.765   6.034  19.826  0.00  0.00    +0.000 NA
ATOM     20  O   UNL     1       2.023   7.066  20.382  0.00  0.00    +0.000 OA
BRANCH  18  21
ATOM     21  C   UNL     1       3.804   5.653  17.624  0.00  0.00    +0.000 A 
ATOM     22  C   UNL     1       3.660   4.248  17.540  0.00  0.00    +0.000 A 
ATOM     23  C   UNL     1       4.429   3.484  16.646  0.00  0.00    +0.000 A 
ATOM     24  C   UNL     1       5.342   4.144  15.849  0.00  0.00    +0.000 A 
ATOM     25  C   UNL     1       5.489   5.505  15.908  0.00  0.00    +0.000 A 
ATOM     26  C   UNL     1       4.734   6.284  16.768  0.00  0.00    +0.000 A 
ATOM     27  O   UNL     1       6.437   5.962  15.043  0.00  0.00    +0.000 OA
ATOM     28  C   UNL     1       6.907   4.722  14.474  0.00  0.00    +0.000 C 
ATOM     29  O   UNL     1       6.180   3.568  14.945  0.00  0.00    +0.000 OA
ENDBRANCH  18  21
ENDBRANCH   3  16
TORSDOF 4
ENDMDL
MODEL 8
REMARK VINA RESULT:      -8.4      2.829     11.085
REMARK  Name = 
REMARK  7 active torsions:
REMARK  status: ('A' for Active; 'I' for Inactive)
REMARK    1  A    between atoms: C_1  and  C_2
REMARK    2  A    between atoms: C_3  and  C_4
REMARK    3  A    between atoms: C_6  and  C_7
REMARK    4  A    between atoms: N_20  and  C_21
REMARK    5  A    between atoms: C_24  and  C_25
REMARK    6  A    between atoms: C_25  and  C_26
REMARK    7  A    between atoms: C_25  and  C_27
REMARK                            x       y       z     vdW  Elec       q    Type
REMARK                         _______ _______ _______ _____ _____    ______ ____
ROOT
ATOM      1  C   UNL     1      -1.844  11.010  19.080  0.00  0.00    +0.000 C 
ATOM      2  C   UNL     1      -0.881  11.043  20.204  0.00  0.00    +0.000 A 
ATOM      3  C   UNL     1       0.417  10.568  20.306  0.00  0.00    +0.000 A 
ATOM      4  N   UNL     1       0.950  10.968  21.501  0.00  0.00    +0.000 NA
ATOM      5  N   UNL     1       0.059  11.725  22.124  0.00  0.00    +0.000 NA
ATOM      6  N   UNL     1      -1.100  11.708  21.417  0.00  0.00    +0.000 N 
ENDROOT
BRANCH   6   7
ATOM      7  C   UNL     1      -2.275  12.324  21.943  0.00  0.00    +0.000 A 
ATOM      8  C   UNL     1      -2.737  11.994  23.231  0.00  0.00    +0.000 A 
ATOM      9  C   UNL     1      -3.854  12.648  23.777  0.00  0.00    +0.000 A 
ATOM     10  C   UNL     1      -4.566  13.609  23.042  0.00  0.00    +0.000 A 
ATOM     11  C   UNL     1      -4.142  13.874  21.733  0.00  0.00    +0.000 A 
ATOM     12  C   UNL     1      -3.010  13.245  21.191  0.00  0.00    +0.000 A 
BRANCH  10  13
ATOM     13  C   UNL     1      -5.751  14.345  23.654  0.00  0.00    +0.000 C 
ATOM     14  C   UNL     1      -6.239  15.485  22.752  0.00  0.00    +0.000 C 
ATOM     15  C   UNL     1      -6.917  13.404  23.980  0.00  0.00    +0.000 C 
ENDBRANCH  10  13
ENDBRANCH   6   7
BRANCH   3  16
ATOM     16  C   UNL     1       1.225   9.779  19.310  0.00  0.00    +0.000 A 
ATOM     17  N   UNL     1       1.655   8.532  19.431  0.00  0.00    +0.000 NA
ATOM     18  C   UNL     1       2.321   8.303  18.232  0.00  0.00    +0.000 A 
ATOM     19  N   UNL     1       2.321   9.366  17.415  0.00  0.00    +0.000 NA
ATOM     20  O   UNL     1       1.596  10.326  18.107  0.00  0.00    +0.000 OA
BRANCH  18  21
ATOM     21  C   UNL     1       2.962   7.031  17.875  0.00  0.00    +0.000 A 
ATOM     22  C   UNL     1       2.354   5.792  18.189  0.00  0.00    +0.000 A 
ATOM     23  C   UNL     1       2.970   4.571  17.866  0.00  0.00    +0.000 A 
ATOM     24  C   UNL     1       4.196   4.610  17.234  0.00  0.00    +0.000 A 
ATOM     25  C   UNL     1       4.796   5.800  16.912  0.00  0.00    +0.000 A 
ATOM     26  C   UNL     1       4.205   7.017  17.204  0.00  0.00    +0.000 A 
ATOM     27  O   UNL     1       5.996   5.624  16.293  0.00  0.00    +0.000 OA
ATOM     28  C   UNL     1       6.106   4.185  16.315  0.00  0.00    +0.000 C 
ATOM     29  O   UNL     1       4.942   3.533  16.865  0.00  0.00    +0.000 OA
ENDBRANCH  18  21
ENDBRANCH   3  16
TORSDOF 4
ENDMDL
MODEL 9
REMARK VINA RESULT:      -8.4      2.771     11.150
REMARK  Name = 
REMARK  7 active torsions:
REMARK  status: ('A' for Active; 'I' for Inactive)
REMARK    1  A    between atoms: C_1  and  C_2
REMARK    2  A    between atoms: C_3  and  C_4
REMARK    3  A    between atoms: C_6  and  C_7
REMARK    4  A    between atoms: N_20  and  C_21
REMARK    5  A    between atoms: C_24  and  C_25
REMARK    6  A    between atoms: C_25  and  C_26
REMARK    7  A    between atoms: C_25  and  C_27
REMARK                            x       y       z     vdW  Elec       q    Type
REMARK                         _______ _______ _______ _____ _____    ______ ____
ROOT
ATOM      1  C   UNL     1      -1.014  12.127  19.443  0.00  0.00    +0.000 C 
ATOM      2  C   UNL     1      -0.488  11.398  20.620  0.00  0.00    +0.000 A 
ATOM      3  C   UNL     1       0.452  10.385  20.718  0.00  0.00    +0.000 A 
ATOM      4  N   UNL     1       0.713  10.139  22.038  0.00  0.00    +0.000 NA
ATOM      5  N   UNL     1       0.017  10.999  22.769  0.00  0.00    +0.000 NA
ATOM      6  N   UNL     1      -0.800  11.708  21.949  0.00  0.00    +0.000 N 
ENDROOT
BRANCH   6   7
ATOM      7  C   UNL     1      -1.768  12.604  22.495  0.00  0.00    +0.000 A 
ATOM      8  C   UNL     1      -1.590  13.996  22.389  0.00  0.00    +0.000 A 
ATOM      9  C   UNL     1      -2.574  14.879  22.865  0.00  0.00    +0.000 A 
ATOM     10  C   UNL     1      -3.734  14.403  23.496  0.00  0.00    +0.000 A 
ATOM     11  C   UNL     1      -3.864  13.018  23.663  0.00  0.00    +0.000 A 
ATOM     12  C   UNL     1      -2.899  12.129  23.166  0.00  0.00    +0.000 A 
BRANCH  10  13
ATOM     13  C   UNL     1      -4.817  15.363  23.974  0.00  0.00    +0.000 C 
ATOM     14  C   UNL     1      -4.237  16.486  24.842  0.00  0.00    +0.000 C 
ATOM     15  C   UNL     1      -5.619  15.963  22.813  0.00  0.00    +0.000 C 
ENDBRANCH  10  13
ENDBRANCH   6   7
BRANCH   3  16
ATOM     16  C   UNL     1       1.174   9.644  19.623  0.00  0.00    +0.000 A 
ATOM     17  N   UNL     1       1.676   8.419  19.679  0.00  0.00    +0.000 NA
ATOM     18  C   UNL     1       2.205   8.231  18.406  0.00  0.00    +0.000 A 
ATOM     19  N   UNL     1       2.055   9.297  17.608  0.00  0.00    +0.000 NA
ATOM     20  O   UNL     1       1.372  10.215  18.392  0.00  0.00    +0.000 OA
BRANCH  18  21
ATOM     21  C   UNL     1       2.860   6.995  17.961  0.00  0.00    +0.000 A 
ATOM     22  C   UNL     1       2.231   5.736  18.116  0.00  0.00    +0.000 A 
ATOM     23  C   UNL     1       2.860   4.548  17.708  0.00  0.00    +0.000 A 
ATOM     24  C   UNL     1       4.120   4.638  17.152  0.00  0.00    +0.000 A 
ATOM     25  C   UNL     1       4.741   5.847  16.984  0.00  0.00    +0.000 A 
ATOM     26  C   UNL     1       4.139   7.036  17.362  0.00  0.00    +0.000 A 
ATOM     27  O   UNL     1       5.973   5.723  16.418  0.00  0.00    +0.000 OA
ATOM     28  C   UNL     1       6.077   4.288  16.303  0.00  0.00    +0.000 C 
ATOM     29  O   UNL     1       4.881   3.596  16.720  0.00  0.00    +0.000 OA
ENDBRANCH  18  21
ENDBRANCH   3  16
TORSDOF 4
ENDMDL
