MODEL 1
REMARK VINA RESULT:      -8.4      0.000      0.000
REMARK  Name = 
REMARK  3 active torsions:
REMARK  status: ('A' for Active; 'I' for Inactive)
REMARK    1  A    between atoms: N_1  and  N_2
REMARK    2  A    between atoms: C_3  and  C_5
REMARK    3  A    between atoms: C_7  and  C_8
REMARK                            x       y       z     vdW  Elec       q    Type
REMARK                         _______ _______ _______ _____ _____    ______ ____
ROOT
ATOM      1  C   UNL     1       6.318   4.317  15.924  0.00  0.00    +0.000 A 
ATOM      2  C   UNL     1       4.971   4.071  16.312  0.00  0.00    +0.000 A 
ATOM      3  C   UNL     1       4.980   3.955  17.689  0.00  0.00    +0.000 A 
ATOM      4  N   UNL     1       6.296   4.152  18.040  0.00  0.00    +0.000 N 
ATOM      5  N   UNL     1       7.131   4.354  17.003  0.00  0.00    +0.000 NA
ATOM      6  H   UNL     1       6.683   4.153  18.979  0.00  0.00    +0.000 HD
ENDROOT
BRANCH   3   7
ATOM      7  C   UNL     1       3.911   3.670  18.654  0.00  0.00    +0.000 A 
ATOM      8  C   UNL     1       3.497   4.653  19.565  0.00  0.00    +0.000 A 
ATOM      9  C   UNL     1       2.453   4.395  20.452  0.00  0.00    +0.000 A 
ATOM     10  F   UNL     1       2.065   5.354  21.303  0.00  0.00    +0.000 F 
ATOM     11  C   UNL     1       1.810   3.163  20.451  0.00  0.00    +0.000 A 
ATOM     12  F   UNL     1       0.799   2.928  21.296  0.00  0.00    +0.000 F 
ATOM     13  C   UNL     1       2.208   2.168  19.572  0.00  0.00    +0.000 A 
ATOM     14  C   UNL     1       3.251   2.426  18.685  0.00  0.00    +0.000 A 
ATOM     15  F   UNL     1       3.612   1.449  17.838  0.00  0.00    +0.000 F 
ENDBRANCH   3   7
BRANCH   1  17
ATOM     16  N   UNL     1       7.810   5.498  14.482  0.00  0.00    +0.000 N 
ATOM     17  C   UNL     1       6.824   4.521  14.556  0.00  0.00    +0.000 C 
ATOM     18  O   UNL     1       6.390   3.894  13.592  0.00  0.00    +0.000 OA
ATOM     19  H   UNL     1       8.131   5.883  15.373  0.00  0.00    +0.000 HD
BRANCH  16  20
ATOM     20  N   UNL     1       8.451   5.807  13.265  0.00  0.00    +0.000 NA
ATOM     21  H   UNL     1       7.877   5.474  12.489  0.00  0.00    +0.000 HD
ATOM     22  H   UNL     1       9.319   5.262  13.228  0.00  0.00    +0.000 HD
ENDBRANCH  16  20
ENDBRANCH   1  17
TORSDOF 3
ENDMDL
MODEL 2
REMARK VINA RESULT:      -8.3      1.040      1.040
REMARK  Name = 
REMARK  3 active torsions:
REMARK  status: ('A' for Active; 'I' for Inactive)
REMARK    1  A    between atoms: N_1  and  N_2
REMARK    2  A    between atoms: C_3  and  C_5
REMARK    3  A    between atoms: C_7  and  C_8
REMARK                            x       y       z     vdW  Elec       q    Type
REMARK                         _______ _______ _______ _____ _____    ______ ____
ROOT
ATOM      1  C   UNL     1       6.348   4.325  15.946  0.00  0.00    +0.000 A 
ATOM      2  C   UNL     1       4.998   4.095  16.334  0.00  0.00    +0.000 A 
ATOM      3  C   UNL     1       5.008   3.966  17.710  0.00  0.00    +0.000 A 
ATOM      4  N   UNL     1       6.327   4.141  18.060  0.00  0.00    +0.000 N 
ATOM      5  N   UNL     1       7.163   4.339  17.023  0.00  0.00    +0.000 NA
ATOM      6  H   UNL     1       6.716   4.127  18.999  0.00  0.00    +0.000 HD
ENDROOT
BRANCH   3   7
ATOM      7  C   UNL     1       3.937   3.688  18.675  0.00  0.00    +0.000 A 
ATOM      8  C   UNL     1       3.490   4.691  19.547  0.00  0.00    +0.000 A 
ATOM      9  C   UNL     1       2.443   4.438  20.433  0.00  0.00    +0.000 A 
ATOM     10  F   UNL     1       2.024   5.415  21.247  0.00  0.00    +0.000 F 
ATOM     11  C   UNL     1       1.831   3.191  20.469  0.00  0.00    +0.000 A 
ATOM     12  F   UNL     1       0.817   2.960  21.312  0.00  0.00    +0.000 F 
ATOM     13  C   UNL     1       2.261   2.176  19.627  0.00  0.00    +0.000 A 
ATOM     14  C   UNL     1       3.306   2.430  18.742  0.00  0.00    +0.000 A 
ATOM     15  F   UNL     1       3.699   1.434  17.932  0.00  0.00    +0.000 F 
ENDBRANCH   3   7
BRANCH   1  17
ATOM     16  N   UNL     1       6.347   3.614  13.667  0.00  0.00    +0.000 N 
ATOM     17  C   UNL     1       6.854   4.534  14.579  0.00  0.00    +0.000 C 
ATOM     18  O   UNL     1       7.656   5.422  14.300  0.00  0.00    +0.000 OA
ATOM     19  H   UNL     1       5.626   2.980  14.020  0.00  0.00    +0.000 HD
BRANCH  16  20
ATOM     20  N   UNL     1       6.677   3.676  12.298  0.00  0.00    +0.000 NA
ATOM     21  H   UNL     1       6.578   2.748  11.886  0.00  0.00    +0.000 HD
ATOM     22  H   UNL     1       7.674   3.908  12.233  0.00  0.00    +0.000 HD
ENDBRANCH  16  20
ENDBRANCH   1  17
TORSDOF 3
ENDMDL
MODEL 3
REMARK VINA RESULT:      -8.2      1.286      1.523
REMARK  Name = 
REMARK  3 active torsions:
REMARK  status: ('A' for Active; 'I' for Inactive)
REMARK    1  A    between atoms: N_1  and  N_2
REMARK    2  A    between atoms: C_3  and  C_5
REMARK    3  A    between atoms: C_7  and  C_8
REMARK                            x       y       z     vdW  Elec       q    Type
REMARK                         _______ _______ _______ _____ _____    ______ ____
ROOT
ATOM      1  C   UNL     1       6.238   4.297  15.985  0.00  0.00    +0.000 A 
ATOM      2  C   UNL     1       4.888   4.041  16.360  0.00  0.00    +0.000 A 
ATOM      3  C   UNL     1       4.878   3.964  17.740  0.00  0.00    +0.000 A 
ATOM      4  N   UNL     1       6.186   4.190  18.103  0.00  0.00    +0.000 N 
ATOM      5  N   UNL     1       7.033   4.375  17.073  0.00  0.00    +0.000 NA
ATOM      6  H   UNL     1       6.559   4.222  19.048  0.00  0.00    +0.000 HD
ENDROOT
BRANCH   3   7
ATOM      7  C   UNL     1       3.800   3.689  18.697  0.00  0.00    +0.000 A 
ATOM      8  C   UNL     1       4.051   2.930  19.849  0.00  0.00    +0.000 A 
ATOM      9  C   UNL     1       3.036   2.707  20.779  0.00  0.00    +0.000 A 
ATOM     10  F   UNL     1       3.303   1.991  21.879  0.00  0.00    +0.000 F 
ATOM     11  C   UNL     1       1.764   3.227  20.579  0.00  0.00    +0.000 A 
ATOM     12  F   UNL     1       0.799   3.020  21.483  0.00  0.00    +0.000 F 
ATOM     13  C   UNL     1       1.483   3.969  19.441  0.00  0.00    +0.000 A 
ATOM     14  C   UNL     1       2.498   4.193  18.513  0.00  0.00    +0.000 A 
ATOM     15  F   UNL     1       2.203   4.921  17.424  0.00  0.00    +0.000 F 
ENDBRANCH   3   7
BRANCH   1  17
ATOM     16  N   UNL     1       7.719   5.472  14.528  0.00  0.00    +0.000 N 
ATOM     17  C   UNL     1       6.760   4.469  14.619  0.00  0.00    +0.000 C 
ATOM     18  O   UNL     1       6.361   3.799  13.669  0.00  0.00    +0.000 OA
ATOM     19  H   UNL     1       8.015   5.894  15.411  0.00  0.00    +0.000 HD
BRANCH  16  20
ATOM     20  N   UNL     1       8.372   5.759  13.311  0.00  0.00    +0.000 NA
ATOM     21  H   UNL     1       8.297   6.758  13.118  0.00  0.00    +0.000 HD
ATOM     22  H   UNL     1       7.851   5.287  12.565  0.00  0.00    +0.000 HD
ENDBRANCH  16  20
ENDBRANCH   1  17
TORSDOF 3
ENDMDL
MODEL 4
REMARK VINA RESULT:      -8.2      0.912      1.939
REMARK  Name = 
REMARK  3 active torsions:
REMARK  status: ('A' for Active; 'I' for Inactive)
REMARK    1  A    between atoms: N_1  and  N_2
REMARK    2  A    between atoms: C_3  and  C_5
REMARK    3  A    between atoms: C_7  and  C_8
REMARK                            x       y       z     vdW  Elec       q    Type
REMARK                         _______ _______ _______ _____ _____    ______ ____
ROOT
ATOM      1  C   UNL     1       6.347   4.372  15.883  0.00  0.00    +0.000 A 
ATOM      2  C   UNL     1       4.984   4.215  16.262  0.00  0.00    +0.000 A 
ATOM      3  C   UNL     1       4.978   4.075  17.637  0.00  0.00    +0.000 A 
ATOM      4  N   UNL     1       6.304   4.172  17.995  0.00  0.00    +0.000 N 
ATOM      5  N   UNL     1       7.156   4.331  16.964  0.00  0.00    +0.000 NA
ATOM      6  H   UNL     1       6.685   4.129  18.936  0.00  0.00    +0.000 HD
ENDROOT
BRANCH   3   7
ATOM      7  C   UNL     1       3.888   3.850  18.593  0.00  0.00    +0.000 A 
ATOM      8  C   UNL     1       3.096   2.695  18.505  0.00  0.00    +0.000 A 
ATOM      9  C   UNL     1       2.089   2.461  19.441  0.00  0.00    +0.000 A 
ATOM     10  F   UNL     1       1.354   1.345  19.346  0.00  0.00    +0.000 F 
ATOM     11  C   UNL     1       1.851   3.365  20.468  0.00  0.00    +0.000 A 
ATOM     12  F   UNL     1       0.891   3.127  21.370  0.00  0.00    +0.000 F 
ATOM     13  C   UNL     1       2.609   4.522  20.571  0.00  0.00    +0.000 A 
ATOM     14  C   UNL     1       3.616   4.755  19.637  0.00  0.00    +0.000 A 
ATOM     15  F   UNL     1       4.341   5.878  19.763  0.00  0.00    +0.000 F 
ENDBRANCH   3   7
BRANCH   1  17
ATOM     16  N   UNL     1       7.869   5.529  14.453  0.00  0.00    +0.000 N 
ATOM     17  C   UNL     1       6.872   4.562  14.520  0.00  0.00    +0.000 C 
ATOM     18  O   UNL     1       6.444   3.935  13.554  0.00  0.00    +0.000 OA
ATOM     19  H   UNL     1       8.183   5.915  15.346  0.00  0.00    +0.000 HD
BRANCH  16  20
ATOM     20  N   UNL     1       8.529   5.825  13.243  0.00  0.00    +0.000 NA
ATOM     21  H   UNL     1       7.836   6.067  12.533  0.00  0.00    +0.000 HD
ATOM     22  H   UNL     1       8.975   4.960  12.917  0.00  0.00    +0.000 HD
ENDBRANCH  16  20
ENDBRANCH   1  17
TORSDOF 3
ENDMDL
MODEL 5
REMARK VINA RESULT:      -8.2      1.927      2.439
REMARK  Name = 
REMARK  3 active torsions:
REMARK  status: ('A' for Active; 'I' for Inactive)
REMARK    1  A    between atoms: N_1  and  N_2
REMARK    2  A    between atoms: C_3  and  C_5
REMARK    3  A    between atoms: C_7  and  C_8
REMARK                            x       y       z     vdW  Elec       q    Type
REMARK                         _______ _______ _______ _____ _____    ______ ____
ROOT
ATOM      1  C   UNL     1       5.691   5.018  15.377  0.00  0.00    +0.000 A 
ATOM      2  C   UNL     1       4.945   4.088  16.155  0.00  0.00    +0.000 A 
ATOM      3  C   UNL     1       4.216   4.838  17.059  0.00  0.00    +0.000 A 
ATOM      4  N   UNL     1       4.545   6.142  16.764  0.00  0.00    +0.000 N 
ATOM      5  N   UNL     1       5.443   6.285  15.771  0.00  0.00    +0.000 NA
ATOM      6  H   UNL     1       4.188   6.978  17.218  0.00  0.00    +0.000 HD
ENDROOT
BRANCH   3   7
ATOM      7  C   UNL     1       3.296   4.451  18.135  0.00  0.00    +0.000 A 
ATOM      8  C   UNL     1       2.189   3.633  17.861  0.00  0.00    +0.000 A 
ATOM      9  C   UNL     1       1.341   3.230  18.892  0.00  0.00    +0.000 A 
ATOM     10  F   UNL     1       0.299   2.437  18.610  0.00  0.00    +0.000 F 
ATOM     11  C   UNL     1       1.574   3.634  20.201  0.00  0.00    +0.000 A 
ATOM     12  F   UNL     1       0.763   3.232  21.187  0.00  0.00    +0.000 F 
ATOM     13  C   UNL     1       2.652   4.454  20.498  0.00  0.00    +0.000 A 
ATOM     14  C   UNL     1       3.500   4.855  19.468  0.00  0.00    +0.000 A 
ATOM     15  F   UNL     1       4.541   5.643  19.782  0.00  0.00    +0.000 F 
ENDBRANCH   3   7
BRANCH   1  17
ATOM     16  N   UNL     1       6.185   3.649  13.484  0.00  0.00    +0.000 N 
ATOM     17  C   UNL     1       6.617   4.708  14.274  0.00  0.00    +0.000 C 
ATOM     18  O   UNL     1       7.668   5.322  14.102  0.00  0.00    +0.000 OA
ATOM     19  H   UNL     1       5.253   3.282  13.692  0.00  0.00    +0.000 HD
BRANCH  16  20
ATOM     20  N   UNL     1       6.912   3.230  12.351  0.00  0.00    +0.000 NA
ATOM     21  H   UNL     1       6.773   2.228  12.215  0.00  0.00    +0.000 HD
ATOM     22  H   UNL     1       7.908   3.349  12.565  0.00  0.00    +0.000 HD
ENDBRANCH  16  20
ENDBRANCH   1  17
TORSDOF 3
ENDMDL
MODEL 6
REMARK VINA RESULT:      -8.1      1.663      1.855
REMARK  Name = 
REMARK  3 active torsions:
REMARK  status: ('A' for Active; 'I' for Inactive)
REMARK    1  A    between atoms: N_1  and  N_2
REMARK    2  A    between atoms: C_3  and  C_5
REMARK    3  A    between atoms: C_7  and  C_8
REMARK                            x       y       z     vdW  Elec       q    Type
REMARK                         _______ _______ _______ _____ _____    ______ ____
ROOT
ATOM      1  C   UNL     1       6.252   4.275  16.039  0.00  0.00    +0.000 A 
ATOM      2  C   UNL     1       4.901   4.014  16.403  0.00  0.00    +0.000 A 
ATOM      3  C   UNL     1       4.878   3.950  17.783  0.00  0.00    +0.000 A 
ATOM      4  N   UNL     1       6.181   4.189  18.158  0.00  0.00    +0.000 N 
ATOM      5  N   UNL     1       7.037   4.369  17.134  0.00  0.00    +0.000 NA
ATOM      6  H   UNL     1       6.544   4.233  19.105  0.00  0.00    +0.000 HD
ENDROOT
BRANCH   3   7
ATOM      7  C   UNL     1       3.792   3.678  18.733  0.00  0.00    +0.000 A 
ATOM      8  C   UNL     1       4.034   2.917  19.887  0.00  0.00    +0.000 A 
ATOM      9  C   UNL     1       3.012   2.696  20.809  0.00  0.00    +0.000 A 
ATOM     10  F   UNL     1       3.270   1.978  21.911  0.00  0.00    +0.000 F 
ATOM     11  C   UNL     1       1.742   3.219  20.600  0.00  0.00    +0.000 A 
ATOM     12  F   UNL     1       0.771   3.013  21.498  0.00  0.00    +0.000 F 
ATOM     13  C   UNL     1       1.472   3.963  19.462  0.00  0.00    +0.000 A 
ATOM     14  C   UNL     1       2.493   4.185  18.541  0.00  0.00    +0.000 A 
ATOM     15  F   UNL     1       2.208   4.915  17.450  0.00  0.00    +0.000 F 
ENDBRANCH   3   7
BRANCH   1  17
ATOM     16  N   UNL     1       6.304   3.484  13.787  0.00  0.00    +0.000 N 
ATOM     17  C   UNL     1       6.787   4.438  14.676  0.00  0.00    +0.000 C 
ATOM     18  O   UNL     1       7.591   5.320  14.383  0.00  0.00    +0.000 OA
ATOM     19  H   UNL     1       5.579   2.859  14.146  0.00  0.00    +0.000 HD
BRANCH  16  20
ATOM     20  N   UNL     1       6.664   3.499  12.423  0.00  0.00    +0.000 NA
ATOM     21  H   UNL     1       7.681   3.508  12.345  0.00  0.00    +0.000 HD
ATOM     22  H   UNL     1       6.344   4.391  12.031  0.00  0.00    +0.000 HD
ENDBRANCH  16  20
ENDBRANCH   1  17
TORSDOF 3
ENDMDL
MODEL 7
REMARK VINA RESULT:      -8.0      1.524      2.206
REMARK  Name = 
REMARK  3 active torsions:
REMARK  status: ('A' for Active; 'I' for Inactive)
REMARK    1  A    between atoms: N_1  and  N_2
REMARK    2  A    between atoms: C_3  and  C_5
REMARK    3  A    between atoms: C_7  and  C_8
REMARK                            x       y       z     vdW  Elec       q    Type
REMARK                         _______ _______ _______ _____ _____    ______ ____
ROOT
ATOM      1  C   UNL     1       6.310   4.402  15.649  0.00  0.00    +0.000 A 
ATOM      2  C   UNL     1       4.927   4.319  15.980  0.00  0.00    +0.000 A 
ATOM      3  C   UNL     1       4.866   4.194  17.355  0.00  0.00    +0.000 A 
ATOM      4  N   UNL     1       6.181   4.226  17.760  0.00  0.00    +0.000 N 
ATOM      5  N   UNL     1       7.076   4.331  16.759  0.00  0.00    +0.000 NA
ATOM      6  H   UNL     1       6.527   4.173  18.714  0.00  0.00    +0.000 HD
ENDROOT
BRANCH   3   7
ATOM      7  C   UNL     1       3.732   4.034  18.274  0.00  0.00    +0.000 A 
ATOM      8  C   UNL     1       2.690   3.147  17.966  0.00  0.00    +0.000 A 
ATOM      9  C   UNL     1       1.636   2.964  18.860  0.00  0.00    +0.000 A 
ATOM     10  F   UNL     1       0.659   2.101  18.551  0.00  0.00    +0.000 F 
ATOM     11  C   UNL     1       1.597   3.658  20.063  0.00  0.00    +0.000 A 
ATOM     12  F   UNL     1       0.588   3.467  20.921  0.00  0.00    +0.000 F 
ATOM     13  C   UNL     1       2.607   4.552  20.387  0.00  0.00    +0.000 A 
ATOM     14  C   UNL     1       3.661   4.733  19.494  0.00  0.00    +0.000 A 
ATOM     15  F   UNL     1       4.630   5.598  19.834  0.00  0.00    +0.000 F 
ENDBRANCH   3   7
BRANCH   1  17
ATOM     16  N   UNL     1       6.376   3.642  13.387  0.00  0.00    +0.000 N 
ATOM     17  C   UNL     1       6.891   4.551  14.304  0.00  0.00    +0.000 C 
ATOM     18  O   UNL     1       7.756   5.385  14.048  0.00  0.00    +0.000 OA
ATOM     19  H   UNL     1       5.604   3.058  13.716  0.00  0.00    +0.000 HD
BRANCH  16  20
ATOM     20  N   UNL     1       6.774   3.655  12.034  0.00  0.00    +0.000 NA
ATOM     21  H   UNL     1       7.196   4.558  11.817  0.00  0.00    +0.000 HD
ATOM     22  H   UNL     1       5.923   3.597  11.463  0.00  0.00    +0.000 HD
ENDBRANCH  16  20
ENDBRANCH   1  17
TORSDOF 3
ENDMDL
MODEL 8
REMARK VINA RESULT:      -8.0      1.989      2.113
REMARK  Name = 
REMARK  3 active torsions:
REMARK  status: ('A' for Active; 'I' for Inactive)
REMARK    1  A    between atoms: N_1  and  N_2
REMARK    2  A    between atoms: C_3  and  C_5
REMARK    3  A    between atoms: C_7  and  C_8
REMARK                            x       y       z     vdW  Elec       q    Type
REMARK                         _______ _______ _______ _____ _____    ______ ____
ROOT
ATOM      1  C   UNL     1       5.546   4.803  15.646  0.00  0.00    +0.000 A 
ATOM      2  C   UNL     1       4.868   3.791  16.383  0.00  0.00    +0.000 A 
ATOM      3  C   UNL     1       4.135   4.446  17.355  0.00  0.00    +0.000 A 
ATOM      4  N   UNL     1       4.396   5.780  17.137  0.00  0.00    +0.000 N 
ATOM      5  N   UNL     1       5.255   6.030  16.131  0.00  0.00    +0.000 NA
ATOM      6  H   UNL     1       4.016   6.567  17.656  0.00  0.00    +0.000 HD
ENDROOT
BRANCH   3   7
ATOM      7  C   UNL     1       3.268   3.948  18.429  0.00  0.00    +0.000 A 
ATOM      8  C   UNL     1       3.820   3.275  19.530  0.00  0.00    +0.000 A 
ATOM      9  C   UNL     1       3.001   2.840  20.571  0.00  0.00    +0.000 A 
ATOM     10  F   UNL     1       3.551   2.213  21.619  0.00  0.00    +0.000 F 
ATOM     11  C   UNL     1       1.629   3.061  20.533  0.00  0.00    +0.000 A 
ATOM     12  F   UNL     1       0.851   2.652  21.543  0.00  0.00    +0.000 F 
ATOM     13  C   UNL     1       1.055   3.711  19.451  0.00  0.00    +0.000 A 
ATOM     14  C   UNL     1       1.875   4.146  18.412  0.00  0.00    +0.000 A 
ATOM     15  F   UNL     1       1.296   4.779  17.379  0.00  0.00    +0.000 F 
ENDBRANCH   3   7
BRANCH   1  17
ATOM     16  N   UNL     1       6.038   3.587  13.652  0.00  0.00    +0.000 N 
ATOM     17  C   UNL     1       6.450   4.609  14.500  0.00  0.00    +0.000 C 
ATOM     18  O   UNL     1       7.468   5.279  14.340  0.00  0.00    +0.000 OA
ATOM     19  H   UNL     1       5.130   3.166  13.861  0.00  0.00    +0.000 HD
BRANCH  16  20
ATOM     20  N   UNL     1       6.747   3.278  12.472  0.00  0.00    +0.000 NA
ATOM     21  H   UNL     1       7.311   4.082  12.199  0.00  0.00    +0.000 HD
ATOM     22  H   UNL     1       6.057   3.151  11.724  0.00  0.00    +0.000 HD
ENDBRANCH  16  20
ENDBRANCH   1  17
TORSDOF 3
ENDMDL
MODEL 9
REMARK VINA RESULT:      -8.0      1.605      2.192
REMARK  Name = 
REMARK  3 active torsions:
REMARK  status: ('A' for Active; 'I' for Inactive)
REMARK    1  A    between atoms: N_1  and  N_2
REMARK    2  A    between atoms: C_3  and  C_5
REMARK    3  A    between atoms: C_7  and  C_8
REMARK                            x       y       z     vdW  Elec       q    Type
REMARK                         _______ _______ _______ _____ _____    ______ ____
ROOT
ATOM      1  C   UNL     1       5.649   5.034  15.432  0.00  0.00    +0.000 A 
ATOM      2  C   UNL     1       4.910   4.085  16.194  0.00  0.00    +0.000 A 
ATOM      3  C   UNL     1       4.169   4.814  17.105  0.00  0.00    +0.000 A 
ATOM      4  N   UNL     1       4.485   6.125  16.831  0.00  0.00    +0.000 N 
ATOM      5  N   UNL     1       5.386   6.293  15.845  0.00  0.00    +0.000 NA
ATOM      6  H   UNL     1       4.117   6.950  17.296  0.00  0.00    +0.000 HD
ENDROOT
BRANCH   3   7
ATOM      7  C   UNL     1       3.248   4.401  18.171  0.00  0.00    +0.000 A 
ATOM      8  C   UNL     1       2.158   3.566  17.882  0.00  0.00    +0.000 A 
ATOM      9  C   UNL     1       1.310   3.139  18.903  0.00  0.00    +0.000 A 
ATOM     10  F   UNL     1       0.283   2.332  18.606  0.00  0.00    +0.000 F 
ATOM     11  C   UNL     1       1.527   3.535  20.217  0.00  0.00    +0.000 A 
ATOM     12  F   UNL     1       0.716   3.110  21.194  0.00  0.00    +0.000 F 
ATOM     13  C   UNL     1       2.589   4.371  20.530  0.00  0.00    +0.000 A 
ATOM     14  C   UNL     1       3.436   4.796  19.509  0.00  0.00    +0.000 A 
ATOM     15  F   UNL     1       4.461   5.598  19.838  0.00  0.00    +0.000 F 
ENDBRANCH   3   7
BRANCH   1  17
ATOM     16  N   UNL     1       7.619   5.675  14.246  0.00  0.00    +0.000 N 
ATOM     17  C   UNL     1       6.584   4.750  14.330  0.00  0.00    +0.000 C 
ATOM     18  O   UNL     1       6.433   3.802  13.563  0.00  0.00    +0.000 OA
ATOM     19  H   UNL     1       7.668   6.367  14.997  0.00  0.00    +0.000 HD
BRANCH  16  20
ATOM     20  N   UNL     1       8.642   5.549  13.283  0.00  0.00    +0.000 NA
ATOM     21  H   UNL     1       8.644   6.377  12.686  0.00  0.00    +0.000 HD
ATOM     22  H   UNL     1       8.395   4.762  12.674  0.00  0.00    +0.000 HD
ENDBRANCH  16  20
ENDBRANCH   1  17
TORSDOF 3
ENDMDL
