MODEL 1
REMARK VINA RESULT:      -7.1      0.000      0.000
REMARK  Name = 
REMARK  6 active torsions:
REMARK  status: ('A' for Active; 'I' for Inactive)
REMARK    1  A    between atoms: C_1  and  C_2
REMARK    2  A    between atoms: C_2  and  O_3
REMARK    3  A    between atoms: C_2  and  C_4
REMARK    4  A    between atoms: C_8  and  C_9
REMARK    5  A    between atoms: C_17  and  N_18
REMARK    6  A    between atoms: N_18  and  C_19
REMARK                            x       y       z     vdW  Elec       q    Type
REMARK                         _______ _______ _______ _____ _____    ______ ____
ROOT
ATOM      1  C   UNL     1       6.065   4.075  15.383  0.00  0.00    +0.000 C 
ATOM      2  C   UNL     1       7.183   4.708  16.183  0.00  0.00    +0.000 C 
ATOM      3  O   UNL     1       8.239   4.225  16.542  0.00  0.00    +0.000 OA
ATOM      4  N   UNL     1       6.368   5.723  16.618  0.00  0.00    +0.000 N 
ATOM      5  C   UNL     1       5.955   5.736  17.947  0.00  0.00    +0.000 C 
ATOM      6  C   UNL     1       4.638   5.467  18.067  0.00  0.00    +0.000 C 
ATOM      7  C   UNL     1       4.016   5.222  16.710  0.00  0.00    +0.000 C 
ATOM      8  C   UNL     1       3.294   3.877  16.626  0.00  0.00    +0.000 C 
ATOM      9  C   UNL     1       2.382   3.651  17.821  0.00  0.00    +0.000 C 
ATOM     10  C   UNL     1       3.180   3.775  19.122  0.00  0.00    +0.000 C 
ATOM     11  C   UNL     1       3.816   5.178  19.311  0.00  0.00    +0.000 C 
ATOM     12  C   UNL     1       5.219   5.315  15.768  0.00  0.00    +0.000 C 
ENDROOT
BRANCH  11  13
ATOM     13  N   UNL     1       2.799   6.215  19.636  0.00  0.00    +0.000 N 
ATOM     14  C   UNL     1       2.649   7.392  18.795  0.00  0.00    +0.000 C 
ATOM     15  C   UNL     1       1.970   6.153  20.744  0.00  0.00    +0.000 C 
ATOM     16  N   UNL     1       2.170   5.128  21.604  0.00  0.00    +0.000 N 
ATOM     17  O   UNL     1       1.054   6.937  20.982  0.00  0.00    +0.000 OA
ATOM     18  H   UNL     1       3.122   4.841  21.784  0.00  0.00    +0.000 HD
ATOM     19  H   UNL     1       1.595   5.196  22.433  0.00  0.00    +0.000 HD
ENDBRANCH  11  13
BRANCH   5  20
ATOM     20  C   UNL     1       7.015   5.818  19.114  0.00  0.00    +0.000 C 
ATOM     21  O   UNL     1       7.964   6.632  18.921  0.00  0.00    +0.000 OA
ATOM     22  O   UNL     1       6.849   4.947  20.020  0.00  0.00    +0.000 OA
ENDBRANCH   5  20
BRANCH   1  24
ATOM     23  C   UNL     1       7.311   4.760  13.363  0.00  0.00    +0.000 C 
ATOM     24  C   UNL     1       6.342   3.735  13.941  0.00  0.00    +0.000 C 
BRANCH  24  25
ATOM     25  O   UNL     1       5.092   3.840  13.241  0.00  0.00    +0.000 OA
ATOM     26  H   UNL     1       4.931   4.796  13.113  0.00  0.00    +0.000 HD
ENDBRANCH  24  25
ENDBRANCH   1  24
TORSDOF 4
ENDMDL
MODEL 2
REMARK VINA RESULT:      -6.7      2.498      5.383
REMARK  Name = 
REMARK  6 active torsions:
REMARK  status: ('A' for Active; 'I' for Inactive)
REMARK    1  A    between atoms: C_1  and  C_2
REMARK    2  A    between atoms: C_2  and  O_3
REMARK    3  A    between atoms: C_2  and  C_4
REMARK    4  A    between atoms: C_8  and  C_9
REMARK    5  A    between atoms: C_17  and  N_18
REMARK    6  A    between atoms: N_18  and  C_19
REMARK                            x       y       z     vdW  Elec       q    Type
REMARK                         _______ _______ _______ _____ _____    ______ ____
ROOT
ATOM      1  C   UNL     1       2.917   3.342  17.653  0.00  0.00    +0.000 C 
ATOM      2  C   UNL     1       2.101   4.554  18.047  0.00  0.00    +0.000 C 
ATOM      3  O   UNL     1       1.096   5.004  17.530  0.00  0.00    +0.000 OA
ATOM      4  N   UNL     1       3.121   5.058  18.814  0.00  0.00    +0.000 N 
ATOM      5  C   UNL     1       3.817   6.175  18.363  0.00  0.00    +0.000 C 
ATOM      6  C   UNL     1       5.079   5.868  17.998  0.00  0.00    +0.000 C 
ATOM      7  C   UNL     1       5.345   4.390  18.182  0.00  0.00    +0.000 C 
ATOM      8  C   UNL     1       5.843   3.715  16.904  0.00  0.00    +0.000 C 
ATOM      9  C   UNL     1       6.960   4.510  16.246  0.00  0.00    +0.000 C 
ATOM     10  C   UNL     1       6.495   5.943  15.975  0.00  0.00    +0.000 C 
ATOM     11  C   UNL     1       6.112   6.711  17.269  0.00  0.00    +0.000 C 
ATOM     12  C   UNL     1       3.987   3.861  18.648  0.00  0.00    +0.000 C 
ENDROOT
BRANCH  11  13
ATOM     13  N   UNL     1       7.306   7.069  18.082  0.00  0.00    +0.000 N 
ATOM     14  C   UNL     1       7.892   6.103  18.998  0.00  0.00    +0.000 C 
ATOM     15  C   UNL     1       7.906   8.316  18.052  0.00  0.00    +0.000 C 
ATOM     16  N   UNL     1       7.309   9.267  17.295  0.00  0.00    +0.000 N 
ATOM     17  O   UNL     1       8.950   8.609  18.630  0.00  0.00    +0.000 OA
ATOM     18  H   UNL     1       6.299   9.294  17.282  0.00  0.00    +0.000 HD
ATOM     19  H   UNL     1       7.747  10.173  17.392  0.00  0.00    +0.000 HD
ENDBRANCH  11  13
BRANCH   5  20
ATOM     20  C   UNL     1       3.065   7.540  18.112  0.00  0.00    +0.000 C 
ATOM     21  O   UNL     1       2.315   7.922  19.056  0.00  0.00    +0.000 OA
ATOM     22  O   UNL     1       3.201   7.992  16.935  0.00  0.00    +0.000 OA
ENDBRANCH   5  20
BRANCH   1  24
ATOM     23  C   UNL     1       1.266   2.050  18.960  0.00  0.00    +0.000 C 
ATOM     24  C   UNL     1       2.283   1.985  17.827  0.00  0.00    +0.000 C 
BRANCH  24  25
ATOM     25  O   UNL     1       3.333   1.080  18.203  0.00  0.00    +0.000 OA
ATOM     26  H   UNL     1       4.025   1.626  18.626  0.00  0.00    +0.000 HD
ENDBRANCH  24  25
ENDBRANCH   1  24
TORSDOF 4
ENDMDL
MODEL 3
REMARK VINA RESULT:      -6.5      1.543      1.723
REMARK  Name = 
REMARK  6 active torsions:
REMARK  status: ('A' for Active; 'I' for Inactive)
REMARK    1  A    between atoms: C_1  and  C_2
REMARK    2  A    between atoms: C_2  and  O_3
REMARK    3  A    between atoms: C_2  and  C_4
REMARK    4  A    between atoms: C_8  and  C_9
REMARK    5  A    between atoms: C_17  and  N_18
REMARK    6  A    between atoms: N_18  and  C_19
REMARK                            x       y       z     vdW  Elec       q    Type
REMARK                         _______ _______ _______ _____ _____    ______ ____
ROOT
ATOM      1  C   UNL     1       5.770   4.348  14.976  0.00  0.00    +0.000 C 
ATOM      2  C   UNL     1       6.895   4.958  15.784  0.00  0.00    +0.000 C 
ATOM      3  O   UNL     1       8.076   4.668  15.797  0.00  0.00    +0.000 OA
ATOM      4  N   UNL     1       6.018   5.545  16.661  0.00  0.00    +0.000 N 
ATOM      5  C   UNL     1       5.910   5.035  17.952  0.00  0.00    +0.000 C 
ATOM      6  C   UNL     1       4.725   4.420  18.151  0.00  0.00    +0.000 C 
ATOM      7  C   UNL     1       3.881   4.465  16.897  0.00  0.00    +0.000 C 
ATOM      8  C   UNL     1       3.424   3.079  16.442  0.00  0.00    +0.000 C 
ATOM      9  C   UNL     1       2.853   2.267  17.594  0.00  0.00    +0.000 C 
ATOM     10  C   UNL     1       3.878   2.172  18.728  0.00  0.00    +0.000 C 
ATOM     11  C   UNL     1       4.263   3.557  19.313  0.00  0.00    +0.000 C 
ATOM     12  C   UNL     1       4.809   5.149  15.892  0.00  0.00    +0.000 C 
ENDROOT
BRANCH  11  13
ATOM     13  N   UNL     1       3.164   4.148  20.125  0.00  0.00    +0.000 N 
ATOM     14  C   UNL     1       2.711   5.507  19.876  0.00  0.00    +0.000 C 
ATOM     15  C   UNL     1       2.537   3.482  21.164  0.00  0.00    +0.000 C 
ATOM     16  N   UNL     1       3.020   2.260  21.491  0.00  0.00    +0.000 N 
ATOM     17  O   UNL     1       1.561   3.902  21.781  0.00  0.00    +0.000 OA
ATOM     18  H   UNL     1       4.020   2.124  21.457  0.00  0.00    +0.000 HD
ATOM     19  H   UNL     1       2.576   1.873  22.312  0.00  0.00    +0.000 HD
ENDBRANCH  11  13
BRANCH   5  20
ATOM     20  C   UNL     1       7.164   5.010  18.911  0.00  0.00    +0.000 C 
ATOM     21  O   UNL     1       8.142   4.323  18.498  0.00  0.00    +0.000 OA
ATOM     22  O   UNL     1       6.961   5.562  20.034  0.00  0.00    +0.000 OA
ENDBRANCH   5  20
BRANCH   1  24
ATOM     23  C   UNL     1       5.429   3.251  12.789  0.00  0.00    +0.000 C 
ATOM     24  C   UNL     1       5.786   4.560  13.484  0.00  0.00    +0.000 C 
BRANCH  24  25
ATOM     25  O   UNL     1       7.131   4.916  13.128  0.00  0.00    +0.000 OA
ATOM     26  H   UNL     1       7.669   4.110  13.256  0.00  0.00    +0.000 HD
ENDBRANCH  24  25
ENDBRANCH   1  24
TORSDOF 4
ENDMDL
MODEL 4
REMARK VINA RESULT:      -6.3      1.954      6.172
REMARK  Name = 
REMARK  6 active torsions:
REMARK  status: ('A' for Active; 'I' for Inactive)
REMARK    1  A    between atoms: C_1  and  C_2
REMARK    2  A    between atoms: C_2  and  O_3
REMARK    3  A    between atoms: C_2  and  C_4
REMARK    4  A    between atoms: C_8  and  C_9
REMARK    5  A    between atoms: C_17  and  N_18
REMARK    6  A    between atoms: N_18  and  C_19
REMARK                            x       y       z     vdW  Elec       q    Type
REMARK                         _______ _______ _______ _____ _____    ______ ____
ROOT
ATOM      1  C   UNL     1       2.392   6.620  19.874  0.00  0.00    +0.000 C 
ATOM      2  C   UNL     1       2.220   5.170  20.274  0.00  0.00    +0.000 C 
ATOM      3  O   UNL     1       2.353   4.655  21.367  0.00  0.00    +0.000 OA
ATOM      4  N   UNL     1       2.299   4.746  18.971  0.00  0.00    +0.000 N 
ATOM      5  C   UNL     1       3.441   4.073  18.547  0.00  0.00    +0.000 C 
ATOM      6  C   UNL     1       4.176   4.818  17.695  0.00  0.00    +0.000 C 
ATOM      7  C   UNL     1       3.532   6.168  17.472  0.00  0.00    +0.000 C 
ATOM      8  C   UNL     1       4.477   7.331  17.773  0.00  0.00    +0.000 C 
ATOM      9  C   UNL     1       5.838   7.134  17.126  0.00  0.00    +0.000 C 
ATOM     10  C   UNL     1       6.441   5.797  17.567  0.00  0.00    +0.000 C 
ATOM     11  C   UNL     1       5.575   4.577  17.154  0.00  0.00    +0.000 C 
ATOM     12  C   UNL     1       2.322   6.122  18.407  0.00  0.00    +0.000 C 
ENDROOT
BRANCH  11  13
ATOM     13  N   UNL     1       5.637   4.317  15.689  0.00  0.00    +0.000 N 
ATOM     14  C   UNL     1       4.453   3.877  14.967  0.00  0.00    +0.000 C 
ATOM     15  C   UNL     1       6.793   4.439  14.938  0.00  0.00    +0.000 C 
ATOM     16  N   UNL     1       7.932   4.734  15.608  0.00  0.00    +0.000 N 
ATOM     17  O   UNL     1       6.853   4.333  13.715  0.00  0.00    +0.000 OA
ATOM     18  H   UNL     1       8.071   4.308  16.514  0.00  0.00    +0.000 HD
ATOM     19  H   UNL     1       8.749   4.717  15.013  0.00  0.00    +0.000 HD
ENDBRANCH  11  13
BRANCH   5  20
ATOM     20  C   UNL     1       3.868   2.713  19.226  0.00  0.00    +0.000 C 
ATOM     21  O   UNL     1       4.888   2.781  19.970  0.00  0.00    +0.000 OA
ATOM     22  O   UNL     1       3.215   1.707  18.814  0.00  0.00    +0.000 OA
ENDBRANCH   5  20
BRANCH   1  24
ATOM     23  C   UNL     1       1.440   8.877  19.553  0.00  0.00    +0.000 C 
ATOM     24  C   UNL     1       1.395   7.616  20.408  0.00  0.00    +0.000 C 
BRANCH  24  25
ATOM     25  O   UNL     1       1.813   7.949  21.741  0.00  0.00    +0.000 OA
ATOM     26  H   UNL     1       1.380   7.303  22.333  0.00  0.00    +0.000 HD
ENDBRANCH  24  25
ENDBRANCH   1  24
TORSDOF 4
ENDMDL
MODEL 5
REMARK VINA RESULT:      -6.2      1.026      1.458
REMARK  Name = 
REMARK  6 active torsions:
REMARK  status: ('A' for Active; 'I' for Inactive)
REMARK    1  A    between atoms: C_1  and  C_2
REMARK    2  A    between atoms: C_2  and  O_3
REMARK    3  A    between atoms: C_2  and  C_4
REMARK    4  A    between atoms: C_8  and  C_9
REMARK    5  A    between atoms: C_17  and  N_18
REMARK    6  A    between atoms: N_18  and  C_19
REMARK                            x       y       z     vdW  Elec       q    Type
REMARK                         _______ _______ _______ _____ _____    ______ ____
ROOT
ATOM      1  C   UNL     1       5.952   3.775  15.336  0.00  0.00    +0.000 C 
ATOM      2  C   UNL     1       6.842   4.781  16.033  0.00  0.00    +0.000 C 
ATOM      3  O   UNL     1       8.044   4.746  16.216  0.00  0.00    +0.000 OA
ATOM      4  N   UNL     1       5.772   5.383  16.647  0.00  0.00    +0.000 N 
ATOM      5  C   UNL     1       5.589   5.203  18.014  0.00  0.00    +0.000 C 
ATOM      6  C   UNL     1       4.512   4.433  18.280  0.00  0.00    +0.000 C 
ATOM      7  C   UNL     1       3.840   3.992  16.999  0.00  0.00    +0.000 C 
ATOM      8  C   UNL     1       3.691   2.473  16.903  0.00  0.00    +0.000 C 
ATOM      9  C   UNL     1       3.126   1.880  18.183  0.00  0.00    +0.000 C 
ATOM     10  C   UNL     1       3.997   2.281  19.377  0.00  0.00    +0.000 C 
ATOM     11  C   UNL     1       4.060   3.816  19.593  0.00  0.00    +0.000 C 
ATOM     12  C   UNL     1       4.758   4.572  15.921  0.00  0.00    +0.000 C 
ENDROOT
BRANCH  11  13
ATOM     13  N   UNL     1       2.781   4.360  20.125  0.00  0.00    +0.000 N 
ATOM     14  C   UNL     1       1.730   3.463  20.582  0.00  0.00    +0.000 C 
ATOM     15  C   UNL     1       2.493   5.713  20.192  0.00  0.00    +0.000 C 
ATOM     16  N   UNL     1       3.406   6.562  19.666  0.00  0.00    +0.000 N 
ATOM     17  O   UNL     1       1.493   6.194  20.720  0.00  0.00    +0.000 OA
ATOM     18  H   UNL     1       3.878   6.281  18.817  0.00  0.00    +0.000 HD
ATOM     19  H   UNL     1       3.091   7.522  19.666  0.00  0.00    +0.000 HD
ENDBRANCH  11  13
BRANCH   5  20
ATOM     20  C   UNL     1       6.694   5.671  19.039  0.00  0.00    +0.000 C 
ATOM     21  O   UNL     1       7.425   6.624  18.642  0.00  0.00    +0.000 OA
ATOM     22  O   UNL     1       6.793   4.929  20.062  0.00  0.00    +0.000 OA
ENDBRANCH   5  20
BRANCH   1  24
ATOM     23  C   UNL     1       7.069   4.678  13.326  0.00  0.00    +0.000 C 
ATOM     24  C   UNL     1       6.122   3.604  13.848  0.00  0.00    +0.000 C 
BRANCH  24  25
ATOM     25  O   UNL     1       4.829   3.805  13.256  0.00  0.00    +0.000 OA
ATOM     26  H   UNL     1       4.583   2.953  12.843  0.00  0.00    +0.000 HD
ENDBRANCH  24  25
ENDBRANCH   1  24
TORSDOF 4
ENDMDL
MODEL 6
REMARK VINA RESULT:      -6.2      1.974      6.042
REMARK  Name = 
REMARK  6 active torsions:
REMARK  status: ('A' for Active; 'I' for Inactive)
REMARK    1  A    between atoms: C_1  and  C_2
REMARK    2  A    between atoms: C_2  and  O_3
REMARK    3  A    between atoms: C_2  and  C_4
REMARK    4  A    between atoms: C_8  and  C_9
REMARK    5  A    between atoms: C_17  and  N_18
REMARK    6  A    between atoms: N_18  and  C_19
REMARK                            x       y       z     vdW  Elec       q    Type
REMARK                         _______ _______ _______ _____ _____    ______ ____
ROOT
ATOM      1  C   UNL     1       2.569   6.677  19.730  0.00  0.00    +0.000 C 
ATOM      2  C   UNL     1       2.348   5.201  19.981  0.00  0.00    +0.000 C 
ATOM      3  O   UNL     1       2.358   4.591  21.033  0.00  0.00    +0.000 OA
ATOM      4  N   UNL     1       2.567   4.889  18.663  0.00  0.00    +0.000 N 
ATOM      5  C   UNL     1       3.746   4.239  18.309  0.00  0.00    +0.000 C 
ATOM      6  C   UNL     1       4.573   5.045  17.609  0.00  0.00    +0.000 C 
ATOM      7  C   UNL     1       3.963   6.418  17.436  0.00  0.00    +0.000 C 
ATOM      8  C   UNL     1       4.874   7.538  17.938  0.00  0.00    +0.000 C 
ATOM      9  C   UNL     1       6.297   7.378  17.429  0.00  0.00    +0.000 C 
ATOM     10  C   UNL     1       6.842   6.000  17.814  0.00  0.00    +0.000 C 
ATOM     11  C   UNL     1       6.022   4.832  17.204  0.00  0.00    +0.000 C 
ATOM     12  C   UNL     1       2.658   6.307  18.227  0.00  0.00    +0.000 C 
ENDROOT
BRANCH  11  13
ATOM     13  N   UNL     1       6.243   4.698  15.739  0.00  0.00    +0.000 N 
ATOM     14  C   UNL     1       6.661   5.845  14.947  0.00  0.00    +0.000 C 
ATOM     15  C   UNL     1       6.040   3.522  15.038  0.00  0.00    +0.000 C 
ATOM     16  N   UNL     1       5.539   2.473  15.732  0.00  0.00    +0.000 N 
ATOM     17  O   UNL     1       6.312   3.353  13.852  0.00  0.00    +0.000 OA
ATOM     18  H   UNL     1       4.836   2.662  16.432  0.00  0.00    +0.000 HD
ATOM     19  H   UNL     1       5.332   1.679  15.141  0.00  0.00    +0.000 HD
ENDBRANCH  11  13
BRANCH   5  20
ATOM     20  C   UNL     1       4.090   2.820  18.909  0.00  0.00    +0.000 C 
ATOM     21  O   UNL     1       4.911   2.829  19.871  0.00  0.00    +0.000 OA
ATOM     22  O   UNL     1       3.609   1.853  18.246  0.00  0.00    +0.000 OA
ENDBRANCH   5  20
BRANCH   1  24
ATOM     23  C   UNL     1       1.515   8.879  19.354  0.00  0.00    +0.000 C 
ATOM     24  C   UNL     1       1.523   7.637  20.237  0.00  0.00    +0.000 C 
BRANCH  24  25
ATOM     25  O   UNL     1       1.919   8.019  21.564  0.00  0.00    +0.000 OA
ATOM     26  H   UNL     1       2.211   8.950  21.503  0.00  0.00    +0.000 HD
ENDBRANCH  24  25
ENDBRANCH   1  24
TORSDOF 4
ENDMDL
MODEL 7
REMARK VINA RESULT:      -6.2      8.632     11.107
REMARK  Name = 
REMARK  6 active torsions:
REMARK  status: ('A' for Active; 'I' for Inactive)
REMARK    1  A    between atoms: C_1  and  C_2
REMARK    2  A    between atoms: C_2  and  O_3
REMARK    3  A    between atoms: C_2  and  C_4
REMARK    4  A    between atoms: C_8  and  C_9
REMARK    5  A    between atoms: C_17  and  N_18
REMARK    6  A    between atoms: N_18  and  C_19
REMARK                            x       y       z     vdW  Elec       q    Type
REMARK                         _______ _______ _______ _____ _____    ______ ____
ROOT
ATOM      1  C   UNL     1       7.221  12.810  22.487  0.00  0.00    +0.000 C 
ATOM      2  C   UNL     1       6.666  14.077  21.871  0.00  0.00    +0.000 C 
ATOM      3  O   UNL     1       5.512  14.371  21.628  0.00  0.00    +0.000 OA
ATOM      4  N   UNL     1       7.897  14.441  21.383  0.00  0.00    +0.000 N 
ATOM      5  C   UNL     1       8.133  14.358  20.014  0.00  0.00    +0.000 C 
ATOM      6  C   UNL     1       8.999  13.368  19.712  0.00  0.00    +0.000 C 
ATOM      7  C   UNL     1       9.439  12.642  20.964  0.00  0.00    +0.000 C 
ATOM      8  C   UNL     1       9.195  11.135  20.889  0.00  0.00    +0.000 C 
ATOM      9  C   UNL     1       9.690  10.548  19.576  0.00  0.00    +0.000 C 
ATOM     10  C   UNL     1       9.039  11.277  18.397  0.00  0.00    +0.000 C 
ATOM     11  C   UNL     1       9.380  12.791  18.359  0.00  0.00    +0.000 C 
ATOM     12  C   UNL     1       8.617  13.328  22.057  0.00  0.00    +0.000 C 
ENDROOT
BRANCH  11  13
ATOM     13  N   UNL     1      10.791  13.038  17.955  0.00  0.00    +0.000 N 
ATOM     14  C   UNL     1      11.845  12.118  18.355  0.00  0.00    +0.000 C 
ATOM     15  C   UNL     1      11.196  14.140  17.222  0.00  0.00    +0.000 C 
ATOM     16  N   UNL     1      10.253  15.069  16.938  0.00  0.00    +0.000 N 
ATOM     17  O   UNL     1      12.331  14.317  16.787  0.00  0.00    +0.000 OA
ATOM     18  H   UNL     1       9.565  15.275  17.649  0.00  0.00    +0.000 HD
ATOM     19  H   UNL     1      10.636  15.886  16.483  0.00  0.00    +0.000 HD
ENDBRANCH  11  13
BRANCH   5  20
ATOM     20  C   UNL     1       7.261  15.196  18.999  0.00  0.00    +0.000 C 
ATOM     21  O   UNL     1       7.350  16.451  19.123  0.00  0.00    +0.000 OA
ATOM     22  O   UNL     1       6.475  14.493  18.295  0.00  0.00    +0.000 OA
ENDBRANCH   5  20
BRANCH   1  24
ATOM     23  C   UNL     1       8.039  11.740  24.558  0.00  0.00    +0.000 C 
ATOM     24  C   UNL     1       6.901  12.540  23.935  0.00  0.00    +0.000 C 
BRANCH  24  25
ATOM     25  O   UNL     1       5.711  11.736  23.955  0.00  0.00    +0.000 OA
ATOM     26  H   UNL     1       5.641  11.330  23.068  0.00  0.00    +0.000 HD
ENDBRANCH  24  25
ENDBRANCH   1  24
TORSDOF 4
ENDMDL
MODEL 8
REMARK VINA RESULT:      -6.1      2.680      5.189
REMARK  Name = 
REMARK  6 active torsions:
REMARK  status: ('A' for Active; 'I' for Inactive)
REMARK    1  A    between atoms: C_1  and  C_2
REMARK    2  A    between atoms: C_2  and  O_3
REMARK    3  A    between atoms: C_2  and  C_4
REMARK    4  A    between atoms: C_8  and  C_9
REMARK    5  A    between atoms: C_17  and  N_18
REMARK    6  A    between atoms: N_18  and  C_19
REMARK                            x       y       z     vdW  Elec       q    Type
REMARK                         _______ _______ _______ _____ _____    ______ ____
ROOT
ATOM      1  C   UNL     1       2.262   7.814  18.491  0.00  0.00    +0.000 C 
ATOM      2  C   UNL     1       3.445   7.479  17.609  0.00  0.00    +0.000 C 
ATOM      3  O   UNL     1       3.555   7.577  16.402  0.00  0.00    +0.000 OA
ATOM      4  N   UNL     1       4.029   6.718  18.590  0.00  0.00    +0.000 N 
ATOM      5  C   UNL     1       4.048   5.334  18.450  0.00  0.00    +0.000 C 
ATOM      6  C   UNL     1       3.230   4.728  19.337  0.00  0.00    +0.000 C 
ATOM      7  C   UNL     1       2.531   5.750  20.206  0.00  0.00    +0.000 C 
ATOM      8  C   UNL     1       1.009   5.610  20.176  0.00  0.00    +0.000 C 
ATOM      9  C   UNL     1       0.572   4.167  20.371  0.00  0.00    +0.000 C 
ATOM     10  C   UNL     1       1.235   3.270  19.322  0.00  0.00    +0.000 C 
ATOM     11  C   UNL     1       2.784   3.277  19.412  0.00  0.00    +0.000 C 
ATOM     12  C   UNL     1       3.022   7.077  19.624  0.00  0.00    +0.000 C 
ENDROOT
BRANCH  11  13
ATOM     13  N   UNL     1       3.279   2.538  20.605  0.00  0.00    +0.000 N 
ATOM     14  C   UNL     1       2.420   2.347  21.764  0.00  0.00    +0.000 C 
ATOM     15  C   UNL     1       4.560   2.024  20.711  0.00  0.00    +0.000 C 
ATOM     16  N   UNL     1       5.414   2.290  19.695  0.00  0.00    +0.000 N 
ATOM     17  O   UNL     1       4.963   1.323  21.636  0.00  0.00    +0.000 OA
ATOM     18  H   UNL     1       5.370   3.205  19.268  0.00  0.00    +0.000 HD
ATOM     19  H   UNL     1       6.353   1.964  19.879  0.00  0.00    +0.000 HD
ENDBRANCH  11  13
BRANCH   5  20
ATOM     20  C   UNL     1       4.774   4.662  17.220  0.00  0.00    +0.000 C 
ATOM     21  O   UNL     1       4.005   4.228  16.315  0.00  0.00    +0.000 OA
ATOM     22  O   UNL     1       6.024   4.518  17.377  0.00  0.00    +0.000 OA
ENDBRANCH   5  20
BRANCH   1  24
ATOM     23  C   UNL     1       0.683   9.382  19.564  0.00  0.00    +0.000 C 
ATOM     24  C   UNL     1       1.878   9.266  18.625  0.00  0.00    +0.000 C 
BRANCH  24  25
ATOM     25  O   UNL     1       1.481   9.713  17.319  0.00  0.00    +0.000 OA
ATOM     26  H   UNL     1       1.996  10.526  17.142  0.00  0.00    +0.000 HD
ENDBRANCH  24  25
ENDBRANCH   1  24
TORSDOF 4
ENDMDL
MODEL 9
REMARK VINA RESULT:      -6.1      1.392      1.812
REMARK  Name = 
REMARK  6 active torsions:
REMARK  status: ('A' for Active; 'I' for Inactive)
REMARK    1  A    between atoms: C_1  and  C_2
REMARK    2  A    between atoms: C_2  and  O_3
REMARK    3  A    between atoms: C_2  and  C_4
REMARK    4  A    between atoms: C_8  and  C_9
REMARK    5  A    between atoms: C_17  and  N_18
REMARK    6  A    between atoms: N_18  and  C_19
REMARK                            x       y       z     vdW  Elec       q    Type
REMARK                         _______ _______ _______ _____ _____    ______ ____
ROOT
ATOM      1  C   UNL     1       6.034   3.973  14.614  0.00  0.00    +0.000 C 
ATOM      2  C   UNL     1       6.869   5.212  14.857  0.00  0.00    +0.000 C 
ATOM      3  O   UNL     1       8.078   5.336  14.853  0.00  0.00    +0.000 OA
ATOM      4  N   UNL     1       5.816   5.873  15.439  0.00  0.00    +0.000 N 
ATOM      5  C   UNL     1       5.829   6.087  16.814  0.00  0.00    +0.000 C 
ATOM      6  C   UNL     1       4.900   5.339  17.448  0.00  0.00    +0.000 C 
ATOM      7  C   UNL     1       4.136   4.485  16.460  0.00  0.00    +0.000 C 
ATOM      8  C   UNL     1       4.170   2.998  16.814  0.00  0.00    +0.000 C 
ATOM      9  C   UNL     1       3.849   2.760  18.281  0.00  0.00    +0.000 C 
ATOM     10  C   UNL     1       4.805   3.566  19.165  0.00  0.00    +0.000 C 
ATOM     11  C   UNL     1       4.698   5.097  18.934  0.00  0.00    +0.000 C 
ATOM     12  C   UNL     1       4.831   4.801  15.134  0.00  0.00    +0.000 C 
ENDROOT
BRANCH  11  13
ATOM     13  N   UNL     1       3.437   5.661  19.487  0.00  0.00    +0.000 N 
ATOM     14  C   UNL     1       2.665   4.918  20.471  0.00  0.00    +0.000 C 
ATOM     15  C   UNL     1       2.906   6.878  19.096  0.00  0.00    +0.000 C 
ATOM     16  N   UNL     1       3.543   7.534  18.098  0.00  0.00    +0.000 N 
ATOM     17  O   UNL     1       1.926   7.415  19.607  0.00  0.00    +0.000 OA
ATOM     18  H   UNL     1       3.922   6.985  17.339  0.00  0.00    +0.000 HD
ATOM     19  H   UNL     1       3.052   8.366  17.802  0.00  0.00    +0.000 HD
ENDBRANCH  11  13
BRANCH   5  20
ATOM     20  C   UNL     1       6.985   6.928  17.483  0.00  0.00    +0.000 C 
ATOM     21  O   UNL     1       7.083   8.122  17.078  0.00  0.00    +0.000 OA
ATOM     22  O   UNL     1       7.751   6.245  18.227  0.00  0.00    +0.000 OA
ENDBRANCH   5  20
BRANCH   1  24
ATOM     23  C   UNL     1       7.049   4.141  12.368  0.00  0.00    +0.000 C 
ATOM     24  C   UNL     1       6.037   3.389  13.225  0.00  0.00    +0.000 C 
BRANCH  24  25
ATOM     25  O   UNL     1       4.726   3.604  12.680  0.00  0.00    +0.000 OA
ATOM     26  H   UNL     1       4.094   3.321  13.371  0.00  0.00    +0.000 HD
ENDBRANCH  24  25
ENDBRANCH   1  24
TORSDOF 4
ENDMDL
