MODEL 1
REMARK VINA RESULT:      -7.2      0.000      0.000
REMARK  Name = 
REMARK  1 active torsions:
REMARK  status: ('A' for Active; 'I' for Inactive)
REMARK    1  A    between atoms: C_4  and  C_5
REMARK                            x       y       z     vdW  Elec       q    Type
REMARK                         _______ _______ _______ _____ _____    ______ ____
ROOT
ATOM      1  O   UNL     1       1.852  12.969  21.298  0.00  0.00    +0.000 OA
ATOM      2  C   UNL     1       1.084  12.626  20.412  0.00  0.00    +0.000 C 
ATOM      3  C   UNL     1       1.537  12.076  19.083  0.00  0.00    +0.000 C 
ATOM      4  C   UNL     1       0.584  10.985  18.581  0.00  0.00    +0.000 C 
ATOM      5  C   UNL     1      -0.859  11.404  18.770  0.00  0.00    +0.000 C 
ATOM      6  C   UNL     1      -1.238  12.292  19.706  0.00  0.00    +0.000 C 
ATOM      7  N   UNL     1      -0.271  12.826  20.533  0.00  0.00    +0.000 N 
ATOM      8  C   UNL     1      -2.665  12.612  19.949  0.00  0.00    +0.000 A 
ATOM      9  C   UNL     1      -3.081  13.532  20.932  0.00  0.00    +0.000 A 
ATOM     10  C   UNL     1      -4.437  13.787  21.168  0.00  0.00    +0.000 A 
ATOM     11  C   UNL     1      -5.414  13.139  20.422  0.00  0.00    +0.000 A 
ATOM     12  C   UNL     1      -5.034  12.237  19.435  0.00  0.00    +0.000 A 
ATOM     13  C   UNL     1      -3.673  11.977  19.203  0.00  0.00    +0.000 A 
ATOM     14  C   UNL     1      -3.321  11.012  18.151  0.00  0.00    +0.000 C 
ATOM     15  O   UNL     1      -4.181  10.436  17.499  0.00  0.00    +0.000 OA
ATOM     16  C   UNL     1      -1.851  10.739  17.892  0.00  0.00    +0.000 C 
ATOM     17  O   UNL     1      -1.516   9.993  16.984  0.00  0.00    +0.000 OA
ATOM     18  H   UNL     1      -0.521  13.330  21.373  0.00  0.00    +0.000 HD
ENDROOT
BRANCH   4  19
ATOM     19  C   UNL     1       0.922   9.655  19.253  0.00  0.00    +0.000 A 
ATOM     20  C   UNL     1       0.490   9.341  20.553  0.00  0.00    +0.000 A 
ATOM     21  C   UNL     1       0.945   8.192  21.201  0.00  0.00    +0.000 A 
ATOM     22  C   UNL     1       1.809   7.317  20.549  0.00  0.00    +0.000 A 
ATOM     23  C   UNL     1       2.202   7.581  19.239  0.00  0.00    +0.000 A 
ATOM     24  C   UNL     1       1.767   8.744  18.607  0.00  0.00    +0.000 A 
ATOM     25  F   UNL     1       2.207   9.002  17.367  0.00  0.00    +0.000 F 
ENDBRANCH   4  19
TORSDOF 1
ENDMDL
MODEL 2
REMARK VINA RESULT:      -6.8      2.431      4.660
REMARK  Name = 
REMARK  1 active torsions:
REMARK  status: ('A' for Active; 'I' for Inactive)
REMARK    1  A    between atoms: C_4  and  C_5
REMARK                            x       y       z     vdW  Elec       q    Type
REMARK                         _______ _______ _______ _____ _____    ______ ____
ROOT
ATOM      1  O   UNL     1      -2.052  11.290  16.499  0.00  0.00    +0.000 OA
ATOM      2  C   UNL     1      -1.719  11.630  17.625  0.00  0.00    +0.000 C 
ATOM      3  C   UNL     1      -1.962  10.791  18.855  0.00  0.00    +0.000 C 
ATOM      4  C   UNL     1      -0.804  10.921  19.851  0.00  0.00    +0.000 C 
ATOM      5  C   UNL     1      -0.381  12.368  19.998  0.00  0.00    +0.000 C 
ATOM      6  C   UNL     1      -0.583  13.282  19.033  0.00  0.00    +0.000 C 
ATOM      7  N   UNL     1      -1.186  12.875  17.860  0.00  0.00    +0.000 N 
ATOM      8  C   UNL     1      -0.069  14.668  19.147  0.00  0.00    +0.000 A 
ATOM      9  C   UNL     1      -0.263  15.636  18.142  0.00  0.00    +0.000 A 
ATOM     10  C   UNL     1       0.266  16.926  18.258  0.00  0.00    +0.000 A 
ATOM     11  C   UNL     1       0.994  17.289  19.385  0.00  0.00    +0.000 A 
ATOM     12  C   UNL     1       1.189  16.360  20.400  0.00  0.00    +0.000 A 
ATOM     13  C   UNL     1       0.663  15.063  20.280  0.00  0.00    +0.000 A 
ATOM     14  C   UNL     1       0.899  14.115  21.378  0.00  0.00    +0.000 C 
ATOM     15  O   UNL     1       1.546  14.431  22.367  0.00  0.00    +0.000 OA
ATOM     16  C   UNL     1       0.321  12.718  21.256  0.00  0.00    +0.000 C 
ATOM     17  O   UNL     1       0.441  11.921  22.175  0.00  0.00    +0.000 OA
ATOM     18  H   UNL     1      -1.176  13.461  17.035  0.00  0.00    +0.000 HD
ENDROOT
BRANCH   4  19
ATOM     19  C   UNL     1       0.338   9.994  19.439  0.00  0.00    +0.000 A 
ATOM     20  C   UNL     1       0.923  10.047  18.161  0.00  0.00    +0.000 A 
ATOM     21  C   UNL     1       1.851   9.087  17.758  0.00  0.00    +0.000 A 
ATOM     22  C   UNL     1       2.241   8.079  18.635  0.00  0.00    +0.000 A 
ATOM     23  C   UNL     1       1.717   8.044  19.925  0.00  0.00    +0.000 A 
ATOM     24  C   UNL     1       0.769   8.989  20.313  0.00  0.00    +0.000 A 
ATOM     25  F   UNL     1       0.239   8.897  21.541  0.00  0.00    +0.000 F 
ENDBRANCH   4  19
TORSDOF 1
ENDMDL
MODEL 3
REMARK VINA RESULT:      -6.7      1.545      2.003
REMARK  Name = 
REMARK  1 active torsions:
REMARK  status: ('A' for Active; 'I' for Inactive)
REMARK    1  A    between atoms: C_4  and  C_5
REMARK                            x       y       z     vdW  Elec       q    Type
REMARK                         _______ _______ _______ _____ _____    ______ ____
ROOT
ATOM      1  O   UNL     1      -0.574  13.375  23.420  0.00  0.00    +0.000 OA
ATOM      2  C   UNL     1      -0.993  13.205  22.284  0.00  0.00    +0.000 C 
ATOM      3  C   UNL     1      -0.108  13.187  21.063  0.00  0.00    +0.000 C 
ATOM      4  C   UNL     1      -0.604  12.165  20.034  0.00  0.00    +0.000 C 
ATOM      5  C   UNL     1      -2.108  12.252  19.873  0.00  0.00    +0.000 C 
ATOM      6  C   UNL     1      -2.913  12.722  20.842  0.00  0.00    +0.000 C 
ATOM      7  N   UNL     1      -2.342  13.124  22.032  0.00  0.00    +0.000 N 
ATOM      8  C   UNL     1      -4.390  12.703  20.711  0.00  0.00    +0.000 A 
ATOM      9  C   UNL     1      -5.249  13.182  21.719  0.00  0.00    +0.000 A 
ATOM     10  C   UNL     1      -6.641  13.116  21.586  0.00  0.00    +0.000 A 
ATOM     11  C   UNL     1      -7.212  12.580  20.439  0.00  0.00    +0.000 A 
ATOM     12  C   UNL     1      -6.390  12.114  19.420  0.00  0.00    +0.000 A 
ATOM     13  C   UNL     1      -4.994  12.174  19.557  0.00  0.00    +0.000 A 
ATOM     14  C   UNL     1      -4.166  11.664  18.454  0.00  0.00    +0.000 C 
ATOM     15  O   UNL     1      -4.669  11.186  17.446  0.00  0.00    +0.000 OA
ATOM     16  C   UNL     1      -2.657  11.740  18.595  0.00  0.00    +0.000 C 
ATOM     17  O   UNL     1      -1.936  11.386  17.674  0.00  0.00    +0.000 OA
ATOM     18  H   UNL     1      -2.906  13.287  22.855  0.00  0.00    +0.000 HD
ENDROOT
BRANCH   4  19
ATOM     19  C   UNL     1      -0.116  10.769  20.415  0.00  0.00    +0.000 A 
ATOM     20  C   UNL     1      -0.454  10.163  21.638  0.00  0.00    +0.000 A 
ATOM     21  C   UNL     1       0.133   8.960  22.029  0.00  0.00    +0.000 A 
ATOM     22  C   UNL     1       1.040   8.320  21.190  0.00  0.00    +0.000 A 
ATOM     23  C   UNL     1       1.344   8.874  19.949  0.00  0.00    +0.000 A 
ATOM     24  C   UNL     1       0.776  10.090  19.576  0.00  0.00    +0.000 A 
ATOM     25  F   UNL     1       1.131  10.629  18.401  0.00  0.00    +0.000 F 
ENDBRANCH   4  19
TORSDOF 1
ENDMDL
MODEL 4
REMARK VINA RESULT:      -6.6      2.762      6.210
REMARK  Name = 
REMARK  1 active torsions:
REMARK  status: ('A' for Active; 'I' for Inactive)
REMARK    1  A    between atoms: C_4  and  C_5
REMARK                            x       y       z     vdW  Elec       q    Type
REMARK                         _______ _______ _______ _____ _____    ______ ____
ROOT
ATOM      1  O   UNL     1      -0.332  14.391  18.164  0.00  0.00    +0.000 OA
ATOM      2  C   UNL     1      -0.065  13.625  19.079  0.00  0.00    +0.000 C 
ATOM      3  C   UNL     1      -0.186  13.994  20.536  0.00  0.00    +0.000 C 
ATOM      4  C   UNL     1      -0.662  12.801  21.372  0.00  0.00    +0.000 C 
ATOM      5  C   UNL     1       0.072  11.537  20.973  0.00  0.00    +0.000 C 
ATOM      6  C   UNL     1       0.613  11.370  19.754  0.00  0.00    +0.000 C 
ATOM      7  N   UNL     1       0.475  12.386  18.830  0.00  0.00    +0.000 N 
ATOM      8  C   UNL     1       1.235  10.089  19.342  0.00  0.00    +0.000 A 
ATOM      9  C   UNL     1       1.798   9.893  18.066  0.00  0.00    +0.000 A 
ATOM     10  C   UNL     1       2.344   8.660  17.689  0.00  0.00    +0.000 A 
ATOM     11  C   UNL     1       2.355   7.594  18.581  0.00  0.00    +0.000 A 
ATOM     12  C   UNL     1       1.820   7.762  19.853  0.00  0.00    +0.000 A 
ATOM     13  C   UNL     1       1.266   8.997  20.227  0.00  0.00    +0.000 A 
ATOM     14  C   UNL     1       0.709   9.126  21.582  0.00  0.00    +0.000 C 
ATOM     15  O   UNL     1       0.711   8.185  22.365  0.00  0.00    +0.000 OA
ATOM     16  C   UNL     1       0.121  10.462  21.992  0.00  0.00    +0.000 C 
ATOM     17  O   UNL     1      -0.293  10.628  23.130  0.00  0.00    +0.000 OA
ATOM     18  H   UNL     1       0.677  12.235  17.850  0.00  0.00    +0.000 HD
ENDROOT
BRANCH   4  19
ATOM     19  C   UNL     1      -2.181  12.675  21.273  0.00  0.00    +0.000 A 
ATOM     20  C   UNL     1      -2.843  12.521  20.043  0.00  0.00    +0.000 A 
ATOM     21  C   UNL     1      -4.235  12.570  19.966  0.00  0.00    +0.000 A 
ATOM     22  C   UNL     1      -4.994  12.735  21.121  0.00  0.00    +0.000 A 
ATOM     23  C   UNL     1      -4.359  12.831  22.357  0.00  0.00    +0.000 A 
ATOM     24  C   UNL     1      -2.968  12.810  22.424  0.00  0.00    +0.000 A 
ATOM     25  F   UNL     1      -2.382  12.962  23.621  0.00  0.00    +0.000 F 
ENDBRANCH   4  19
TORSDOF 1
ENDMDL
MODEL 5
REMARK VINA RESULT:      -6.5      2.147      2.898
REMARK  Name = 
REMARK  1 active torsions:
REMARK  status: ('A' for Active; 'I' for Inactive)
REMARK    1  A    between atoms: C_4  and  C_5
REMARK                            x       y       z     vdW  Elec       q    Type
REMARK                         _______ _______ _______ _____ _____    ______ ____
ROOT
ATOM      1  O   UNL     1      -2.108  14.036  23.898  0.00  0.00    +0.000 OA
ATOM      2  C   UNL     1      -2.157  13.745  22.712  0.00  0.00    +0.000 C 
ATOM      3  C   UNL     1      -0.964  13.798  21.791  0.00  0.00    +0.000 C 
ATOM      4  C   UNL     1      -1.005  12.661  20.764  0.00  0.00    +0.000 C 
ATOM      5  C   UNL     1      -2.397  12.509  20.186  0.00  0.00    +0.000 C 
ATOM      6  C   UNL     1      -3.501  12.900  20.847  0.00  0.00    +0.000 C 
ATOM      7  N   UNL     1      -3.354  13.446  22.106  0.00  0.00    +0.000 N 
ATOM      8  C   UNL     1      -4.863  12.649  20.315  0.00  0.00    +0.000 A 
ATOM      9  C   UNL     1      -6.030  13.043  20.997  0.00  0.00    +0.000 A 
ATOM     10  C   UNL     1      -7.304  12.759  20.491  0.00  0.00    +0.000 A 
ATOM     11  C   UNL     1      -7.446  12.084  19.285  0.00  0.00    +0.000 A 
ATOM     12  C   UNL     1      -6.312  11.695  18.581  0.00  0.00    +0.000 A 
ATOM     13  C   UNL     1      -5.035  11.975  19.093  0.00  0.00    +0.000 A 
ATOM     14  C   UNL     1      -3.865  11.541  18.315  0.00  0.00    +0.000 C 
ATOM     15  O   UNL     1      -3.990  10.940  17.256  0.00  0.00    +0.000 OA
ATOM     16  C   UNL     1      -2.485  11.853  18.860  0.00  0.00    +0.000 C 
ATOM     17  O   UNL     1      -1.489  11.566  18.212  0.00  0.00    +0.000 OA
ATOM     18  H   UNL     1      -4.148  13.564  22.722  0.00  0.00    +0.000 HD
ENDROOT
BRANCH   4  19
ATOM     19  C   UNL     1      -0.468  11.377  21.394  0.00  0.00    +0.000 A 
ATOM     20  C   UNL     1      -1.001  10.843  22.580  0.00  0.00    +0.000 A 
ATOM     21  C   UNL     1      -0.390   9.763  23.218  0.00  0.00    +0.000 A 
ATOM     22  C   UNL     1       0.742   9.173  22.665  0.00  0.00    +0.000 A 
ATOM     23  C   UNL     1       1.251   9.651  21.459  0.00  0.00    +0.000 A 
ATOM     24  C   UNL     1       0.653  10.747  20.841  0.00  0.00    +0.000 A 
ATOM     25  F   UNL     1       1.199  11.222  19.712  0.00  0.00    +0.000 F 
ENDBRANCH   4  19
TORSDOF 1
ENDMDL
MODEL 6
REMARK VINA RESULT:      -6.5      5.925      7.952
REMARK  Name = 
REMARK  1 active torsions:
REMARK  status: ('A' for Active; 'I' for Inactive)
REMARK    1  A    between atoms: C_4  and  C_5
REMARK                            x       y       z     vdW  Elec       q    Type
REMARK                         _______ _______ _______ _____ _____    ______ ____
ROOT
ATOM      1  O   UNL     1      -7.183  10.072  20.119  0.00  0.00    +0.000 OA
ATOM      2  C   UNL     1      -7.436  11.242  20.363  0.00  0.00    +0.000 C 
ATOM      3  C   UNL     1      -7.916  11.728  21.708  0.00  0.00    +0.000 C 
ATOM      4  C   UNL     1      -7.339  13.109  22.038  0.00  0.00    +0.000 C 
ATOM      5  C   UNL     1      -7.419  14.025  20.835  0.00  0.00    +0.000 C 
ATOM      6  C   UNL     1      -7.455  13.561  19.573  0.00  0.00    +0.000 C 
ATOM      7  N   UNL     1      -7.401  12.197  19.375  0.00  0.00    +0.000 N 
ATOM      8  C   UNL     1      -7.425  14.471  18.403  0.00  0.00    +0.000 A 
ATOM      9  C   UNL     1      -7.453  14.002  17.075  0.00  0.00    +0.000 A 
ATOM     10  C   UNL     1      -7.384  14.882  15.988  0.00  0.00    +0.000 A 
ATOM     11  C   UNL     1      -7.299  16.253  16.197  0.00  0.00    +0.000 A 
ATOM     12  C   UNL     1      -7.285  16.746  17.497  0.00  0.00    +0.000 A 
ATOM     13  C   UNL     1      -7.347  15.862  18.587  0.00  0.00    +0.000 A 
ATOM     14  C   UNL     1      -7.325  16.431  19.942  0.00  0.00    +0.000 C 
ATOM     15  O   UNL     1      -7.243  17.638  20.127  0.00  0.00    +0.000 OA
ATOM     16  C   UNL     1      -7.404  15.479  21.121  0.00  0.00    +0.000 C 
ATOM     17  O   UNL     1      -7.454  15.917  22.261  0.00  0.00    +0.000 OA
ATOM     18  H   UNL     1      -7.218  11.807  18.459  0.00  0.00    +0.000 HD
ENDROOT
BRANCH   4  19
ATOM     19  C   UNL     1      -5.924  12.958  22.592  0.00  0.00    +0.000 A 
ATOM     20  C   UNL     1      -4.793  12.905  21.758  0.00  0.00    +0.000 A 
ATOM     21  C   UNL     1      -3.533  12.607  22.277  0.00  0.00    +0.000 A 
ATOM     22  C   UNL     1      -3.372  12.393  23.642  0.00  0.00    +0.000 A 
ATOM     23  C   UNL     1      -4.469  12.499  24.493  0.00  0.00    +0.000 A 
ATOM     24  C   UNL     1      -5.730  12.769  23.966  0.00  0.00    +0.000 A 
ATOM     25  F   UNL     1      -6.779  12.808  24.801  0.00  0.00    +0.000 F 
ENDBRANCH   4  19
TORSDOF 1
ENDMDL
MODEL 7
REMARK VINA RESULT:      -6.4      2.568      4.559
REMARK  Name = 
REMARK  1 active torsions:
REMARK  status: ('A' for Active; 'I' for Inactive)
REMARK    1  A    between atoms: C_4  and  C_5
REMARK                            x       y       z     vdW  Elec       q    Type
REMARK                         _______ _______ _______ _____ _____    ______ ____
ROOT
ATOM      1  O   UNL     1       2.309   9.397  18.086  0.00  0.00    +0.000 OA
ATOM      2  C   UNL     1       1.243   9.755  18.563  0.00  0.00    +0.000 C 
ATOM      3  C   UNL     1       1.022   9.977  20.039  0.00  0.00    +0.000 C 
ATOM      4  C   UNL     1       0.075  11.156  20.287  0.00  0.00    +0.000 C 
ATOM      5  C   UNL     1      -1.113  11.097  19.348  0.00  0.00    +0.000 C 
ATOM      6  C   UNL     1      -1.065  10.471  18.159  0.00  0.00    +0.000 C 
ATOM      7  N   UNL     1       0.121   9.877  17.778  0.00  0.00    +0.000 N 
ATOM      8  C   UNL     1      -2.200  10.512  17.206  0.00  0.00    +0.000 A 
ATOM      9  C   UNL     1      -2.163   9.872  15.952  0.00  0.00    +0.000 A 
ATOM     10  C   UNL     1      -3.234   9.959  15.055  0.00  0.00    +0.000 A 
ATOM     11  C   UNL     1      -4.375  10.678  15.390  0.00  0.00    +0.000 A 
ATOM     12  C   UNL     1      -4.446  11.308  16.627  0.00  0.00    +0.000 A 
ATOM     13  C   UNL     1      -3.369  11.226  17.523  0.00  0.00    +0.000 A 
ATOM     14  C   UNL     1      -3.489  11.913  18.818  0.00  0.00    +0.000 C 
ATOM     15  O   UNL     1      -4.491  12.552  19.110  0.00  0.00    +0.000 OA
ATOM     16  C   UNL     1      -2.331  11.815  19.792  0.00  0.00    +0.000 C 
ATOM     17  O   UNL     1      -2.419  12.317  20.903  0.00  0.00    +0.000 OA
ATOM     18  H   UNL     1       0.274   9.578  16.824  0.00  0.00    +0.000 HD
ENDROOT
BRANCH   4  19
ATOM     19  C   UNL     1       0.850  12.469  20.199  0.00  0.00    +0.000 A 
ATOM     20  C   UNL     1       1.677  12.781  19.106  0.00  0.00    +0.000 A 
ATOM     21  C   UNL     1       2.495  13.910  19.126  0.00  0.00    +0.000 A 
ATOM     22  C   UNL     1       2.477  14.769  20.221  0.00  0.00    +0.000 A 
ATOM     23  C   UNL     1       1.622  14.508  21.289  0.00  0.00    +0.000 A 
ATOM     24  C   UNL     1       0.827  13.364  21.276  0.00  0.00    +0.000 A 
ATOM     25  F   UNL     1       0.057  13.107  22.343  0.00  0.00    +0.000 F 
ENDBRANCH   4  19
TORSDOF 1
ENDMDL
MODEL 8
REMARK VINA RESULT:      -6.4      3.291      6.331
REMARK  Name = 
REMARK  1 active torsions:
REMARK  status: ('A' for Active; 'I' for Inactive)
REMARK    1  A    between atoms: C_4  and  C_5
REMARK                            x       y       z     vdW  Elec       q    Type
REMARK                         _______ _______ _______ _____ _____    ______ ____
ROOT
ATOM      1  O   UNL     1      -1.064  15.922  21.411  0.00  0.00    +0.000 OA
ATOM      2  C   UNL     1      -0.830  14.774  21.756  0.00  0.00    +0.000 C 
ATOM      3  C   UNL     1      -1.083  14.254  23.149  0.00  0.00    +0.000 C 
ATOM      4  C   UNL     1      -1.561  12.798  23.120  0.00  0.00    +0.000 C 
ATOM      5  C   UNL     1      -0.732  11.980  22.150  0.00  0.00    +0.000 C 
ATOM      6  C   UNL     1      -0.089  12.531  21.106  0.00  0.00    +0.000 C 
ATOM      7  N   UNL     1      -0.207  13.891  20.906  0.00  0.00    +0.000 N 
ATOM      8  C   UNL     1       0.630  11.706  20.106  0.00  0.00    +0.000 A 
ATOM      9  C   UNL     1       1.301  12.264  19.000  0.00  0.00    +0.000 A 
ATOM     10  C   UNL     1       1.940  11.459  18.049  0.00  0.00    +0.000 A 
ATOM     11  C   UNL     1       1.936  10.077  18.183  0.00  0.00    +0.000 A 
ATOM     12  C   UNL     1       1.295   9.497  19.272  0.00  0.00    +0.000 A 
ATOM     13  C   UNL     1       0.649  10.305  20.222  0.00  0.00    +0.000 A 
ATOM     14  C   UNL     1      -0.018   9.646  21.354  0.00  0.00    +0.000 C 
ATOM     15  O   UNL     1      -0.028   8.428  21.468  0.00  0.00    +0.000 OA
ATOM     16  C   UNL     1      -0.706  10.518  22.387  0.00  0.00    +0.000 C 
ATOM     17  O   UNL     1      -1.216  10.012  23.376  0.00  0.00    +0.000 OA
ATOM     18  H   UNL     1       0.079  14.320  20.035  0.00  0.00    +0.000 HD
ENDROOT
BRANCH   4  19
ATOM     19  C   UNL     1      -3.059  12.752  22.824  0.00  0.00    +0.000 A 
ATOM     20  C   UNL     1      -3.563  12.628  21.517  0.00  0.00    +0.000 A 
ATOM     21  C   UNL     1      -4.928  12.750  21.261  0.00  0.00    +0.000 A 
ATOM     22  C   UNL     1      -5.820  12.958  22.308  0.00  0.00    +0.000 A 
ATOM     23  C   UNL     1      -5.347  13.024  23.617  0.00  0.00    +0.000 A 
ATOM     24  C   UNL     1      -3.979  12.931  23.864  0.00  0.00    +0.000 A 
ATOM     25  F   UNL     1      -3.547  13.057  25.127  0.00  0.00    +0.000 F 
ENDBRANCH   4  19
TORSDOF 1
ENDMDL
MODEL 9
REMARK VINA RESULT:      -6.4      3.847      7.182
REMARK  Name = 
REMARK  1 active torsions:
REMARK  status: ('A' for Active; 'I' for Inactive)
REMARK    1  A    between atoms: C_4  and  C_5
REMARK                            x       y       z     vdW  Elec       q    Type
REMARK                         _______ _______ _______ _____ _____    ______ ____
ROOT
ATOM      1  O   UNL     1      -7.874  13.928  18.207  0.00  0.00    +0.000 OA
ATOM      2  C   UNL     1      -6.734  13.818  18.634  0.00  0.00    +0.000 C 
ATOM      3  C   UNL     1      -6.159  14.702  19.712  0.00  0.00    +0.000 C 
ATOM      4  C   UNL     1      -5.218  13.916  20.631  0.00  0.00    +0.000 C 
ATOM      5  C   UNL     1      -4.301  13.021  19.822  0.00  0.00    +0.000 C 
ATOM      6  C   UNL     1      -4.625  12.573  18.597  0.00  0.00    +0.000 C 
ATOM      7  N   UNL     1      -5.848  12.932  18.069  0.00  0.00    +0.000 N 
ATOM      8  C   UNL     1      -3.765  11.614  17.861  0.00  0.00    +0.000 A 
ATOM      9  C   UNL     1      -4.094  11.126  16.581  0.00  0.00    +0.000 A 
ATOM     10  C   UNL     1      -3.284  10.191  15.926  0.00  0.00    +0.000 A 
ATOM     11  C   UNL     1      -2.119   9.727  16.525  0.00  0.00    +0.000 A 
ATOM     12  C   UNL     1      -1.762  10.202  17.781  0.00  0.00    +0.000 A 
ATOM     13  C   UNL     1      -2.578  11.135  18.441  0.00  0.00    +0.000 A 
ATOM     14  C   UNL     1      -2.160  11.605  19.770  0.00  0.00    +0.000 C 
ATOM     15  O   UNL     1      -1.138  11.191  20.302  0.00  0.00    +0.000 OA
ATOM     16  C   UNL     1      -3.034  12.622  20.479  0.00  0.00    +0.000 C 
ATOM     17  O   UNL     1      -2.688  13.085  21.556  0.00  0.00    +0.000 OA
ATOM     18  H   UNL     1      -6.226  12.464  17.255  0.00  0.00    +0.000 HD
ENDROOT
BRANCH   4  19
ATOM     19  C   UNL     1      -6.033  13.158  21.678  0.00  0.00    +0.000 A 
ATOM     20  C   UNL     1      -7.013  12.214  21.327  0.00  0.00    +0.000 A 
ATOM     21  C   UNL     1      -7.850  11.657  22.294  0.00  0.00    +0.000 A 
ATOM     22  C   UNL     1      -7.700  12.004  23.633  0.00  0.00    +0.000 A 
ATOM     23  C   UNL     1      -6.695  12.893  24.009  0.00  0.00    +0.000 A 
ATOM     24  C   UNL     1      -5.881  13.468  23.035  0.00  0.00    +0.000 A 
ATOM     25  F   UNL     1      -4.961  14.365  23.418  0.00  0.00    +0.000 F 
ENDBRANCH   4  19
TORSDOF 1
ENDMDL
