MODEL 1
REMARK VINA RESULT:      -7.4      0.000      0.000
REMARK  Name = 
REMARK  7 active torsions:
REMARK  status: ('A' for Active; 'I' for Inactive)
REMARK    1  A    between atoms: C_2  and  C_3
REMARK    2  A    between atoms: C_5  and  N_6
REMARK    3  A    between atoms: C_11  and  N_12
REMARK    4  A    between atoms: C_13  and  C_15
REMARK    5  A    between atoms: C_15  and  O_16
REMARK    6  A    between atoms: O_16  and  C_17
REMARK    7  A    between atoms: C_17  and  C_19
REMARK                            x       y       z     vdW  Elec       q    Type
REMARK                         _______ _______ _______ _____ _____    ______ ____
ROOT
ATOM      1  N   UNL     1       4.188   5.017  19.148  0.00  0.00    +0.000 N 
ATOM      2  C   UNL     1       3.107   5.854  19.402  0.00  0.00    +0.000 C 
ATOM      3  O   UNL     1       2.688   6.725  18.642  0.00  0.00    +0.000 OA
ATOM      4  H   UNL     1       4.573   4.534  19.958  0.00  0.00    +0.000 HD
ENDROOT
BRANCH   1  10
ATOM      5  C   UNL     1       6.339   5.132  17.939  0.00  0.00    +0.000 A 
ATOM      6  C   UNL     1       7.067   5.103  16.732  0.00  0.00    +0.000 A 
ATOM      7  C   UNL     1       6.399   4.925  15.517  0.00  0.00    +0.000 A 
ATOM      8  C   UNL     1       5.017   4.753  15.496  0.00  0.00    +0.000 A 
ATOM      9  C   UNL     1       4.303   4.761  16.698  0.00  0.00    +0.000 A 
ATOM     10  C   UNL     1       4.935   4.972  17.935  0.00  0.00    +0.000 A 
BRANCH   7  11
ATOM     11  N   UNL     1       7.150   4.927  14.253  0.00  0.00    +0.000 N 
ATOM     12  O   UNL     1       6.740   4.193  13.346  0.00  0.00    +0.000 OA
ATOM     13  O   UNL     1       8.143   5.662  14.175  0.00  0.00    +0.000 OA
ENDBRANCH   7  11
BRANCH   5  15
ATOM     14  N   UNL     1       7.674   5.556  20.123  0.00  0.00    +0.000 NA
ATOM     15  C   UNL     1       7.077   5.369  19.147  0.00  0.00    +0.000 C 
ENDBRANCH   5  15
ENDBRANCH   1  10
BRANCH   2  16
ATOM     16  C   UNL     1       2.459   5.666  20.777  0.00  0.00    +0.000 C 
BRANCH  16  17
ATOM     17  O   UNL     1       1.386   4.726  20.711  0.00  0.00    +0.000 OA
BRANCH  17  18
ATOM     18  C   UNL     1       1.706   3.485  21.151  0.00  0.00    +0.000 C 
ATOM     19  O   UNL     1       1.437   3.046  22.262  0.00  0.00    +0.000 OA
BRANCH  18  20
ATOM     20  C   UNL     1       2.408   2.707  20.096  0.00  0.00    +0.000 A 
ATOM     21  C   UNL     1       1.773   2.507  18.880  0.00  0.00    +0.000 A 
ATOM     22  N   UNL     1       2.362   1.844  17.850  0.00  0.00    +0.000 NA
ATOM     23  C   UNL     1       3.618   1.401  18.089  0.00  0.00    +0.000 A 
ATOM     24  C   UNL     1       4.254   1.600  19.305  0.00  0.00    +0.000 A 
ATOM     25  N   UNL     1       3.668   2.247  20.336  0.00  0.00    +0.000 NA
ENDBRANCH  18  20
ENDBRANCH  17  18
ENDBRANCH  16  17
ENDBRANCH   2  16
TORSDOF 7
ENDMDL
MODEL 2
REMARK VINA RESULT:      -7.0      2.845      6.736
REMARK  Name = 
REMARK  7 active torsions:
REMARK  status: ('A' for Active; 'I' for Inactive)
REMARK    1  A    between atoms: C_2  and  C_3
REMARK    2  A    between atoms: C_5  and  N_6
REMARK    3  A    between atoms: C_11  and  N_12
REMARK    4  A    between atoms: C_13  and  C_15
REMARK    5  A    between atoms: C_15  and  O_16
REMARK    6  A    between atoms: O_16  and  C_17
REMARK    7  A    between atoms: C_17  and  C_19
REMARK                            x       y       z     vdW  Elec       q    Type
REMARK                         _______ _______ _______ _____ _____    ______ ____
ROOT
ATOM      1  N   UNL     1       3.436   5.865  18.205  0.00  0.00    +0.000 N 
ATOM      2  C   UNL     1       2.900   4.754  17.565  0.00  0.00    +0.000 C 
ATOM      3  O   UNL     1       1.704   4.478  17.504  0.00  0.00    +0.000 OA
ATOM      4  H   UNL     1       4.436   5.827  18.395  0.00  0.00    +0.000 HD
ENDROOT
BRANCH   1  10
ATOM      5  C   UNL     1       2.098   6.732  20.092  0.00  0.00    +0.000 A 
ATOM      6  C   UNL     1       1.344   7.766  20.684  0.00  0.00    +0.000 A 
ATOM      7  C   UNL     1       1.165   8.977  20.008  0.00  0.00    +0.000 A 
ATOM      8  C   UNL     1       1.750   9.173  18.759  0.00  0.00    +0.000 A 
ATOM      9  C   UNL     1       2.514   8.152  18.186  0.00  0.00    +0.000 A 
ATOM     10  C   UNL     1       2.687   6.911  18.819  0.00  0.00    +0.000 A 
BRANCH   7  11
ATOM     11  N   UNL     1       0.352  10.044  20.606  0.00  0.00    +0.000 N 
ATOM     12  O   UNL     1      -0.758  10.262  20.106  0.00  0.00    +0.000 OA
ATOM     13  O   UNL     1       0.827  10.660  21.570  0.00  0.00    +0.000 OA
ENDBRANCH   7  11
BRANCH   5  15
ATOM     14  N   UNL     1       2.285   4.495  21.393  0.00  0.00    +0.000 NA
ATOM     15  C   UNL     1       2.202   5.496  20.814  0.00  0.00    +0.000 C 
ENDBRANCH   5  15
ENDBRANCH   1  10
BRANCH   2  16
ATOM     16  C   UNL     1       3.933   3.803  16.954  0.00  0.00    +0.000 C 
BRANCH  16  17
ATOM     17  O   UNL     1       4.454   4.332  15.734  0.00  0.00    +0.000 OA
BRANCH  17  18
ATOM     18  C   UNL     1       5.803   4.261  15.627  0.00  0.00    +0.000 C 
ATOM     19  O   UNL     1       6.403   3.605  14.786  0.00  0.00    +0.000 OA
BRANCH  18  20
ATOM     20  C   UNL     1       6.468   5.107  16.653  0.00  0.00    +0.000 A 
ATOM     21  C   UNL     1       7.230   4.490  17.634  0.00  0.00    +0.000 A 
ATOM     22  N   UNL     1       7.905   5.192  18.583  0.00  0.00    +0.000 NA
ATOM     23  C   UNL     1       7.789   6.538  18.498  0.00  0.00    +0.000 A 
ATOM     24  C   UNL     1       7.027   7.155  17.519  0.00  0.00    +0.000 A 
ATOM     25  N   UNL     1       6.345   6.461  16.581  0.00  0.00    +0.000 NA
ENDBRANCH  18  20
ENDBRANCH  17  18
ENDBRANCH  16  17
ENDBRANCH   2  16
TORSDOF 7
ENDMDL
MODEL 3
REMARK VINA RESULT:      -6.9      2.181      6.697
REMARK  Name = 
REMARK  7 active torsions:
REMARK  status: ('A' for Active; 'I' for Inactive)
REMARK    1  A    between atoms: C_2  and  C_3
REMARK    2  A    between atoms: C_5  and  N_6
REMARK    3  A    between atoms: C_11  and  N_12
REMARK    4  A    between atoms: C_13  and  C_15
REMARK    5  A    between atoms: C_15  and  O_16
REMARK    6  A    between atoms: O_16  and  C_17
REMARK    7  A    between atoms: C_17  and  C_19
REMARK                            x       y       z     vdW  Elec       q    Type
REMARK                         _______ _______ _______ _____ _____    ______ ____
ROOT
ATOM      1  N   UNL     1       5.390   5.696  18.216  0.00  0.00    +0.000 N 
ATOM      2  C   UNL     1       6.666   5.911  18.723  0.00  0.00    +0.000 C 
ATOM      3  O   UNL     1       7.049   5.585  19.845  0.00  0.00    +0.000 OA
ATOM      4  H   UNL     1       5.144   6.239  17.390  0.00  0.00    +0.000 HD
ENDROOT
BRANCH   1  10
ATOM      5  C   UNL     1       3.079   5.586  19.083  0.00  0.00    +0.000 A 
ATOM      6  C   UNL     1       2.056   4.884  19.752  0.00  0.00    +0.000 A 
ATOM      7  C   UNL     1       2.290   3.589  20.226  0.00  0.00    +0.000 A 
ATOM      8  C   UNL     1       3.526   2.981  20.019  0.00  0.00    +0.000 A 
ATOM      9  C   UNL     1       4.530   3.674  19.336  0.00  0.00    +0.000 A 
ATOM     10  C   UNL     1       4.343   4.988  18.876  0.00  0.00    +0.000 A 
BRANCH   7  11
ATOM     11  N   UNL     1       1.238   2.867  20.954  0.00  0.00    +0.000 N 
ATOM     12  O   UNL     1       0.195   2.609  20.341  0.00  0.00    +0.000 OA
ATOM     13  O   UNL     1       1.458   2.562  22.134  0.00  0.00    +0.000 OA
ENDBRANCH   7  11
BRANCH   5  15
ATOM     14  N   UNL     1       2.567   8.014  18.329  0.00  0.00    +0.000 NA
ATOM     15  C   UNL     1       2.793   6.929  18.667  0.00  0.00    +0.000 C 
ENDBRANCH   5  15
ENDBRANCH   1  10
BRANCH   2  16
ATOM     16  C   UNL     1       7.611   6.668  17.785  0.00  0.00    +0.000 C 
BRANCH  16  17
ATOM     17  O   UNL     1       7.356   6.330  16.422  0.00  0.00    +0.000 OA
BRANCH  17  18
ATOM     18  C   UNL     1       7.583   5.028  16.120  0.00  0.00    +0.000 C 
ATOM     19  O   UNL     1       7.946   4.177  16.921  0.00  0.00    +0.000 OA
BRANCH  18  20
ATOM     20  C   UNL     1       7.309   4.756  14.683  0.00  0.00    +0.000 A 
ATOM     21  C   UNL     1       6.319   3.843  14.354  0.00  0.00    +0.000 A 
ATOM     22  N   UNL     1       5.977   3.569  13.067  0.00  0.00    +0.000 NA
ATOM     23  C   UNL     1       6.665   4.258  12.127  0.00  0.00    +0.000 A 
ATOM     24  C   UNL     1       7.656   5.171  12.455  0.00  0.00    +0.000 A 
ATOM     25  N   UNL     1       8.007   5.437  13.732  0.00  0.00    +0.000 NA
ENDBRANCH  18  20
ENDBRANCH  17  18
ENDBRANCH  16  17
ENDBRANCH   2  16
TORSDOF 7
ENDMDL
MODEL 4
REMARK VINA RESULT:      -6.9      2.056      3.497
REMARK  Name = 
REMARK  7 active torsions:
REMARK  status: ('A' for Active; 'I' for Inactive)
REMARK    1  A    between atoms: C_2  and  C_3
REMARK    2  A    between atoms: C_5  and  N_6
REMARK    3  A    between atoms: C_11  and  N_12
REMARK    4  A    between atoms: C_13  and  C_15
REMARK    5  A    between atoms: C_15  and  O_16
REMARK    6  A    between atoms: O_16  and  C_17
REMARK    7  A    between atoms: C_17  and  C_19
REMARK                            x       y       z     vdW  Elec       q    Type
REMARK                         _______ _______ _______ _____ _____    ______ ____
ROOT
ATOM      1  N   UNL     1       4.565   4.195  17.851  0.00  0.00    +0.000 N 
ATOM      2  C   UNL     1       4.006   2.990  18.263  0.00  0.00    +0.000 C 
ATOM      3  O   UNL     1       4.051   1.935  17.634  0.00  0.00    +0.000 OA
ATOM      4  H   UNL     1       4.232   5.026  18.337  0.00  0.00    +0.000 HD
ENDROOT
BRANCH   1  10
ATOM      5  C   UNL     1       6.724   4.717  16.771  0.00  0.00    +0.000 A 
ATOM      6  C   UNL     1       7.492   4.921  15.606  0.00  0.00    +0.000 A 
ATOM      7  C   UNL     1       6.896   4.805  14.347  0.00  0.00    +0.000 A 
ATOM      8  C   UNL     1       5.549   4.467  14.238  0.00  0.00    +0.000 A 
ATOM      9  C   UNL     1       4.798   4.246  15.396  0.00  0.00    +0.000 A 
ATOM     10  C   UNL     1       5.353   4.386  16.679  0.00  0.00    +0.000 A 
BRANCH   7  11
ATOM     11  N   UNL     1       7.684   5.050  13.131  0.00  0.00    +0.000 N 
ATOM     12  O   UNL     1       7.351   4.443  12.106  0.00  0.00    +0.000 OA
ATOM     13  O   UNL     1       8.629   5.846  13.206  0.00  0.00    +0.000 OA
ENDBRANCH   7  11
BRANCH   5  15
ATOM     14  N   UNL     1       7.915   5.044  19.052  0.00  0.00    +0.000 NA
ATOM     15  C   UNL     1       7.382   4.901  18.033  0.00  0.00    +0.000 C 
ENDBRANCH   5  15
ENDBRANCH   1  10
BRANCH   2  16
ATOM     16  C   UNL     1       3.239   3.057  19.586  0.00  0.00    +0.000 C 
BRANCH  16  17
ATOM     17  O   UNL     1       3.276   4.376  20.131  0.00  0.00    +0.000 OA
BRANCH  17  18
ATOM     18  C   UNL     1       2.058   4.885  20.442  0.00  0.00    +0.000 C 
ATOM     19  O   UNL     1       1.155   4.258  20.978  0.00  0.00    +0.000 OA
BRANCH  18  20
ATOM     20  C   UNL     1       1.967   6.321  20.067  0.00  0.00    +0.000 A 
ATOM     21  C   UNL     1       2.420   6.715  18.817  0.00  0.00    +0.000 A 
ATOM     22  N   UNL     1       2.334   8.000  18.381  0.00  0.00    +0.000 NA
ATOM     23  C   UNL     1       1.764   8.868  19.249  0.00  0.00    +0.000 A 
ATOM     24  C   UNL     1       1.311   8.476  20.499  0.00  0.00    +0.000 A 
ATOM     25  N   UNL     1       1.406   7.203  20.941  0.00  0.00    +0.000 NA
ENDBRANCH  18  20
ENDBRANCH  17  18
ENDBRANCH  16  17
ENDBRANCH   2  16
TORSDOF 7
ENDMDL
MODEL 5
REMARK VINA RESULT:      -6.9      3.341      5.408
REMARK  Name = 
REMARK  7 active torsions:
REMARK  status: ('A' for Active; 'I' for Inactive)
REMARK    1  A    between atoms: C_2  and  C_3
REMARK    2  A    between atoms: C_5  and  N_6
REMARK    3  A    between atoms: C_11  and  N_12
REMARK    4  A    between atoms: C_13  and  C_15
REMARK    5  A    between atoms: C_15  and  O_16
REMARK    6  A    between atoms: O_16  and  C_17
REMARK    7  A    between atoms: C_17  and  C_19
REMARK                            x       y       z     vdW  Elec       q    Type
REMARK                         _______ _______ _______ _____ _____    ______ ____
ROOT
ATOM      1  N   UNL     1       2.695   5.673  18.323  0.00  0.00    +0.000 N 
ATOM      2  C   UNL     1       2.873   5.624  19.701  0.00  0.00    +0.000 C 
ATOM      3  O   UNL     1       3.915   5.309  20.272  0.00  0.00    +0.000 OA
ATOM      4  H   UNL     1       1.729   5.695  18.002  0.00  0.00    +0.000 HD
ENDROOT
BRANCH   1  10
ATOM      5  C   UNL     1       4.051   4.144  16.935  0.00  0.00    +0.000 A 
ATOM      6  C   UNL     1       5.069   3.935  15.982  0.00  0.00    +0.000 A 
ATOM      7  C   UNL     1       5.758   5.026  15.443  0.00  0.00    +0.000 A 
ATOM      8  C   UNL     1       5.425   6.323  15.829  0.00  0.00    +0.000 A 
ATOM      9  C   UNL     1       4.401   6.525  16.758  0.00  0.00    +0.000 A 
ATOM     10  C   UNL     1       3.711   5.453  17.347  0.00  0.00    +0.000 A 
BRANCH   7  11
ATOM     11  N   UNL     1       6.842   4.811  14.475  0.00  0.00    +0.000 N 
ATOM     12  O   UNL     1       6.638   4.002  13.563  0.00  0.00    +0.000 OA
ATOM     13  O   UNL     1       7.890   5.451  14.632  0.00  0.00    +0.000 OA
ENDBRANCH   7  11
BRANCH   5  15
ATOM     14  N   UNL     1       2.903   2.045  17.937  0.00  0.00    +0.000 NA
ATOM     15  C   UNL     1       3.418   2.981  17.488  0.00  0.00    +0.000 C 
ENDBRANCH   5  15
ENDBRANCH   1  10
BRANCH   2  16
ATOM     16  C   UNL     1       1.621   5.942  20.522  0.00  0.00    +0.000 C 
BRANCH  16  17
ATOM     17  O   UNL     1       1.760   7.190  21.202  0.00  0.00    +0.000 OA
BRANCH  17  18
ATOM     18  C   UNL     1       1.434   8.272  20.453  0.00  0.00    +0.000 C 
ATOM     19  O   UNL     1       1.753   8.434  19.283  0.00  0.00    +0.000 OA
BRANCH  18  20
ATOM     20  C   UNL     1       0.612   9.235  21.234  0.00  0.00    +0.000 A 
ATOM     21  C   UNL     1       0.699   9.217  22.618  0.00  0.00    +0.000 A 
ATOM     22  N   UNL     1       0.014  10.091  23.402  0.00  0.00    +0.000 NA
ATOM     23  C   UNL     1      -0.752  10.988  22.738  0.00  0.00    +0.000 A 
ATOM     24  C   UNL     1      -0.839  11.006  21.355  0.00  0.00    +0.000 A 
ATOM     25  N   UNL     1      -0.170  10.132  20.571  0.00  0.00    +0.000 NA
ENDBRANCH  18  20
ENDBRANCH  17  18
ENDBRANCH  16  17
ENDBRANCH   2  16
TORSDOF 7
ENDMDL
MODEL 6
REMARK VINA RESULT:      -6.9      4.797      8.299
REMARK  Name = 
REMARK  7 active torsions:
REMARK  status: ('A' for Active; 'I' for Inactive)
REMARK    1  A    between atoms: C_2  and  C_3
REMARK    2  A    between atoms: C_5  and  N_6
REMARK    3  A    between atoms: C_11  and  N_12
REMARK    4  A    between atoms: C_13  and  C_15
REMARK    5  A    between atoms: C_15  and  O_16
REMARK    6  A    between atoms: O_16  and  C_17
REMARK    7  A    between atoms: C_17  and  C_19
REMARK                            x       y       z     vdW  Elec       q    Type
REMARK                         _______ _______ _______ _____ _____    ______ ____
ROOT
ATOM      1  N   UNL     1       6.285   7.353  17.052  0.00  0.00    +0.000 N 
ATOM      2  C   UNL     1       7.475   7.447  17.765  0.00  0.00    +0.000 C 
ATOM      3  O   UNL     1       7.828   6.682  18.660  0.00  0.00    +0.000 OA
ATOM      4  H   UNL     1       6.013   8.187  16.534  0.00  0.00    +0.000 HD
ENDROOT
BRANCH   1  10
ATOM      5  C   UNL     1       5.455   5.105  16.456  0.00  0.00    +0.000 A 
ATOM      6  C   UNL     1       4.488   4.086  16.576  0.00  0.00    +0.000 A 
ATOM      7  C   UNL     1       3.379   4.268  17.409  0.00  0.00    +0.000 A 
ATOM      8  C   UNL     1       3.239   5.446  18.139  0.00  0.00    +0.000 A 
ATOM      9  C   UNL     1       4.212   6.444  18.032  0.00  0.00    +0.000 A 
ATOM     10  C   UNL     1       5.321   6.311  17.180  0.00  0.00    +0.000 A 
BRANCH   7  11
ATOM     11  N   UNL     1       2.351   3.223  17.511  0.00  0.00    +0.000 N 
ATOM     12  O   UNL     1       1.172   3.590  17.583  0.00  0.00    +0.000 OA
ATOM     13  O   UNL     1       2.727   2.043  17.520  0.00  0.00    +0.000 OA
ENDBRANCH   7  11
BRANCH   5  15
ATOM     14  N   UNL     1       7.418   4.698  14.809  0.00  0.00    +0.000 NA
ATOM     15  C   UNL     1       6.541   4.877  15.546  0.00  0.00    +0.000 C 
ENDBRANCH   5  15
ENDBRANCH   1  10
BRANCH   2  16
ATOM     16  C   UNL     1       8.349   8.650  17.400  0.00  0.00    +0.000 C 
BRANCH  16  17
ATOM     17  O   UNL     1       8.402   9.586  18.476  0.00  0.00    +0.000 OA
BRANCH  17  18
ATOM     18  C   UNL     1       8.645  10.863  18.092  0.00  0.00    +0.000 C 
ATOM     19  O   UNL     1       7.899  11.538  17.395  0.00  0.00    +0.000 OA
BRANCH  18  20
ATOM     20  C   UNL     1       9.933  11.354  18.650  0.00  0.00    +0.000 A 
ATOM     21  C   UNL     1      10.121  11.320  20.024  0.00  0.00    +0.000 A 
ATOM     22  N   UNL     1      11.284  11.711  20.611  0.00  0.00    +0.000 NA
ATOM     23  C   UNL     1      12.251  12.126  19.760  0.00  0.00    +0.000 A 
ATOM     24  C   UNL     1      12.064  12.160  18.387  0.00  0.00    +0.000 A 
ATOM     25  N   UNL     1      10.906  11.785  17.800  0.00  0.00    +0.000 NA
ENDBRANCH  18  20
ENDBRANCH  17  18
ENDBRANCH  16  17
ENDBRANCH   2  16
TORSDOF 7
ENDMDL
MODEL 7
REMARK VINA RESULT:      -6.8      4.884      8.216
REMARK  Name = 
REMARK  7 active torsions:
REMARK  status: ('A' for Active; 'I' for Inactive)
REMARK    1  A    between atoms: C_2  and  C_3
REMARK    2  A    between atoms: C_5  and  N_6
REMARK    3  A    between atoms: C_11  and  N_12
REMARK    4  A    between atoms: C_13  and  C_15
REMARK    5  A    between atoms: C_15  and  O_16
REMARK    6  A    between atoms: O_16  and  C_17
REMARK    7  A    between atoms: C_17  and  C_19
REMARK                            x       y       z     vdW  Elec       q    Type
REMARK                         _______ _______ _______ _____ _____    ______ ____
ROOT
ATOM      1  N   UNL     1       6.517   7.312  17.193  0.00  0.00    +0.000 N 
ATOM      2  C   UNL     1       7.685   7.555  17.908  0.00  0.00    +0.000 C 
ATOM      3  O   UNL     1       8.151   6.822  18.778  0.00  0.00    +0.000 OA
ATOM      4  H   UNL     1       6.125   8.114  16.703  0.00  0.00    +0.000 HD
ENDROOT
BRANCH   1  10
ATOM      5  C   UNL     1       5.872   5.074  16.371  0.00  0.00    +0.000 A 
ATOM      6  C   UNL     1       5.063   3.923  16.463  0.00  0.00    +0.000 A 
ATOM      7  C   UNL     1       4.089   3.831  17.462  0.00  0.00    +0.000 A 
ATOM      8  C   UNL     1       3.931   4.865  18.382  0.00  0.00    +0.000 A 
ATOM      9  C   UNL     1       4.750   5.994  18.299  0.00  0.00    +0.000 A 
ATOM     10  C   UNL     1       5.715   6.138  17.289  0.00  0.00    +0.000 A 
BRANCH   7  11
ATOM     11  N   UNL     1       3.220   2.649  17.541  0.00  0.00    +0.000 N 
ATOM     12  O   UNL     1       3.729   1.594  17.938  0.00  0.00    +0.000 OA
ATOM     13  O   UNL     1       2.035   2.780  17.205  0.00  0.00    +0.000 OA
ENDBRANCH   7  11
BRANCH   5  15
ATOM     14  N   UNL     1       7.586   5.173  14.426  0.00  0.00    +0.000 NA
ATOM     15  C   UNL     1       6.818   5.130  15.293  0.00  0.00    +0.000 C 
ENDBRANCH   5  15
ENDBRANCH   1  10
BRANCH   2  16
ATOM     16  C   UNL     1       8.374   8.883  17.582  0.00  0.00    +0.000 C 
BRANCH  16  17
ATOM     17  O   UNL     1       8.659   9.616  18.773  0.00  0.00    +0.000 OA
BRANCH  17  18
ATOM     18  C   UNL     1       9.444  10.704  18.583  0.00  0.00    +0.000 C 
ATOM     19  O   UNL     1      10.179  10.877  17.619  0.00  0.00    +0.000 OA
BRANCH  18  20
ATOM     20  C   UNL     1       9.282  11.682  19.692  0.00  0.00    +0.000 A 
ATOM     21  C   UNL     1       9.124  13.024  19.379  0.00  0.00    +0.000 A 
ATOM     22  N   UNL     1       8.927  13.976  20.330  0.00  0.00    +0.000 NA
ATOM     23  C   UNL     1       8.885  13.521  21.604  0.00  0.00    +0.000 A 
ATOM     24  C   UNL     1       9.043  12.181  21.917  0.00  0.00    +0.000 A 
ATOM     25  N   UNL     1       9.251  11.233  20.977  0.00  0.00    +0.000 NA
ENDBRANCH  18  20
ENDBRANCH  17  18
ENDBRANCH  16  17
ENDBRANCH   2  16
TORSDOF 7
ENDMDL
MODEL 8
REMARK VINA RESULT:      -6.8      2.752      6.670
REMARK  Name = 
REMARK  7 active torsions:
REMARK  status: ('A' for Active; 'I' for Inactive)
REMARK    1  A    between atoms: C_2  and  C_3
REMARK    2  A    between atoms: C_5  and  N_6
REMARK    3  A    between atoms: C_11  and  N_12
REMARK    4  A    between atoms: C_13  and  C_15
REMARK    5  A    between atoms: C_15  and  O_16
REMARK    6  A    between atoms: O_16  and  C_17
REMARK    7  A    between atoms: C_17  and  C_19
REMARK                            x       y       z     vdW  Elec       q    Type
REMARK                         _______ _______ _______ _____ _____    ______ ____
ROOT
ATOM      1  N   UNL     1       3.176   5.085  18.460  0.00  0.00    +0.000 N 
ATOM      2  C   UNL     1       2.554   4.242  17.545  0.00  0.00    +0.000 C 
ATOM      3  O   UNL     1       1.366   4.288  17.231  0.00  0.00    +0.000 OA
ATOM      4  H   UNL     1       4.080   4.771  18.807  0.00  0.00    +0.000 HD
ENDROOT
BRANCH   1  10
ATOM      5  C   UNL     1       1.995   6.048  20.404  0.00  0.00    +0.000 A 
ATOM      6  C   UNL     1       1.376   7.143  21.040  0.00  0.00    +0.000 A 
ATOM      7  C   UNL     1       1.313   8.382  20.395  0.00  0.00    +0.000 A 
ATOM      8  C   UNL     1       1.880   8.544  19.133  0.00  0.00    +0.000 A 
ATOM      9  C   UNL     1       2.511   7.459  18.516  0.00  0.00    +0.000 A 
ATOM     10  C   UNL     1       2.563   6.192  19.118  0.00  0.00    +0.000 A 
BRANCH   7  11
ATOM     11  N   UNL     1       0.639   9.518  21.039  0.00  0.00    +0.000 N 
ATOM     12  O   UNL     1       1.198  10.032  22.016  0.00  0.00    +0.000 OA
ATOM     13  O   UNL     1      -0.444   9.890  20.567  0.00  0.00    +0.000 OA
ENDBRANCH   7  11
BRANCH   5  15
ATOM     14  N   UNL     1       1.972   3.773  21.651  0.00  0.00    +0.000 NA
ATOM     15  C   UNL     1       1.981   4.791  21.097  0.00  0.00    +0.000 C 
ENDBRANCH   5  15
ENDBRANCH   1  10
BRANCH   2  16
ATOM     16  C   UNL     1       3.457   3.156  16.956  0.00  0.00    +0.000 C 
BRANCH  16  17
ATOM     17  O   UNL     1       4.831   3.432  17.228  0.00  0.00    +0.000 OA
BRANCH  17  18
ATOM     18  C   UNL     1       5.416   4.274  16.342  0.00  0.00    +0.000 C 
ATOM     19  O   UNL     1       5.256   4.236  15.129  0.00  0.00    +0.000 OA
BRANCH  18  20
ATOM     20  C   UNL     1       6.267   5.277  17.037  0.00  0.00    +0.000 A 
ATOM     21  C   UNL     1       6.995   4.878  18.148  0.00  0.00    +0.000 A 
ATOM     22  N   UNL     1       7.828   5.719  18.815  0.00  0.00    +0.000 NA
ATOM     23  C   UNL     1       7.907   6.974  18.313  0.00  0.00    +0.000 A 
ATOM     24  C   UNL     1       7.180   7.373  17.203  0.00  0.00    +0.000 A 
ATOM     25  N   UNL     1       6.342   6.544  16.544  0.00  0.00    +0.000 NA
ENDBRANCH  18  20
ENDBRANCH  17  18
ENDBRANCH  16  17
ENDBRANCH   2  16
TORSDOF 7
ENDMDL
MODEL 9
REMARK VINA RESULT:      -6.7      4.929      8.284
REMARK  Name = 
REMARK  7 active torsions:
REMARK  status: ('A' for Active; 'I' for Inactive)
REMARK    1  A    between atoms: C_2  and  C_3
REMARK    2  A    between atoms: C_5  and  N_6
REMARK    3  A    between atoms: C_11  and  N_12
REMARK    4  A    between atoms: C_13  and  C_15
REMARK    5  A    between atoms: C_15  and  O_16
REMARK    6  A    between atoms: O_16  and  C_17
REMARK    7  A    between atoms: C_17  and  C_19
REMARK                            x       y       z     vdW  Elec       q    Type
REMARK                         _______ _______ _______ _____ _____    ______ ____
ROOT
ATOM      1  N   UNL     1       6.453   7.458  17.177  0.00  0.00    +0.000 N 
ATOM      2  C   UNL     1       7.643   7.669  17.864  0.00  0.00    +0.000 C 
ATOM      3  O   UNL     1       8.122   6.910  18.705  0.00  0.00    +0.000 OA
ATOM      4  H   UNL     1       6.059   8.275  16.715  0.00  0.00    +0.000 HD
ENDROOT
BRANCH   1  10
ATOM      5  C   UNL     1       5.824   5.204  16.386  0.00  0.00    +0.000 A 
ATOM      6  C   UNL     1       5.002   4.062  16.472  0.00  0.00    +0.000 A 
ATOM      7  C   UNL     1       3.986   4.003  17.432  0.00  0.00    +0.000 A 
ATOM      8  C   UNL     1       3.798   5.061  18.318  0.00  0.00    +0.000 A 
ATOM      9  C   UNL     1       4.630   6.182  18.240  0.00  0.00    +0.000 A 
ATOM     10  C   UNL     1       5.638   6.292  17.268  0.00  0.00    +0.000 A 
BRANCH   7  11
ATOM     11  N   UNL     1       3.104   2.830  17.505  0.00  0.00    +0.000 N 
ATOM     12  O   UNL     1       1.906   3.001  17.252  0.00  0.00    +0.000 OA
ATOM     13  O   UNL     1       3.614   1.744  17.814  0.00  0.00    +0.000 OA
ENDBRANCH   7  11
BRANCH   5  15
ATOM     14  N   UNL     1       7.617   5.240  14.512  0.00  0.00    +0.000 NA
ATOM     15  C   UNL     1       6.814   5.224  15.347  0.00  0.00    +0.000 C 
ENDBRANCH   5  15
ENDBRANCH   1  10
BRANCH   2  16
ATOM     16  C   UNL     1       8.342   8.994  17.548  0.00  0.00    +0.000 C 
BRANCH  16  17
ATOM     17  O   UNL     1       8.630   9.717  18.745  0.00  0.00    +0.000 OA
BRANCH  17  18
ATOM     18  C   UNL     1       9.449  10.782  18.569  0.00  0.00    +0.000 C 
ATOM     19  O   UNL     1      10.243  10.908  17.646  0.00  0.00    +0.000 OA
BRANCH  18  20
ATOM     20  C   UNL     1       9.242  11.799  19.635  0.00  0.00    +0.000 A 
ATOM     21  C   UNL     1       9.462  11.435  20.955  0.00  0.00    +0.000 A 
ATOM     22  N   UNL     1       9.336  12.315  21.984  0.00  0.00    +0.000 NA
ATOM     23  C   UNL     1       8.992  13.575  21.630  0.00  0.00    +0.000 A 
ATOM     24  C   UNL     1       8.772  13.939  20.311  0.00  0.00    +0.000 A 
ATOM     25  N   UNL     1       8.883  13.065  19.286  0.00  0.00    +0.000 NA
ENDBRANCH  18  20
ENDBRANCH  17  18
ENDBRANCH  16  17
ENDBRANCH   2  16
TORSDOF 7
ENDMDL
