MODEL 1
REMARK VINA RESULT:      -6.9      0.000      0.000
REMARK  Name = 
REMARK  5 active torsions:
REMARK  status: ('A' for Active; 'I' for Inactive)
REMARK    1  A    between atoms: C_1  and  C_2
REMARK    2  A    between atoms: C_5  and  C_6
REMARK    3  A    between atoms: C_6  and  N_7
REMARK    4  A    between atoms: N_12  and  C_13
REMARK    5  A    between atoms: N_12  and  C_14
REMARK                            x       y       z     vdW  Elec       q    Type
REMARK                         _______ _______ _______ _____ _____    ______ ____
ROOT
ATOM      1  N   UNL     1       2.111   8.306  19.103  0.00  0.00    +0.000 N 
ATOM      2  C   UNL     1       1.774   8.798  17.874  0.00  0.00    +0.000 A 
ATOM      3  N   UNL     1       0.822   9.701  17.954  0.00  0.00    +0.000 NA
ATOM      4  C   UNL     1       0.494   9.781  19.300  0.00  0.00    +0.000 A 
ATOM      5  C   UNL     1      -0.496  10.513  20.017  0.00  0.00    +0.000 A 
ATOM      6  N   UNL     1      -1.466  11.337  19.467  0.00  0.00    +0.000 N 
ATOM      7  C   UNL     1      -1.575  11.582  18.039  0.00  0.00    +0.000 C 
ATOM      8  C   UNL     1      -2.227  12.227  20.329  0.00  0.00    +0.000 C 
ATOM      9  N   UNL     1      -0.506  10.317  21.376  0.00  0.00    +0.000 NA
ATOM     10  C   UNL     1       0.359   9.456  21.948  0.00  0.00    +0.000 A 
ATOM     11  N   UNL     1       1.301   8.706  21.355  0.00  0.00    +0.000 NA
ATOM     12  C   UNL     1       1.314   8.925  20.030  0.00  0.00    +0.000 A 
ENDROOT
BRANCH   1  13
ATOM     13  C   UNL     1       2.977   7.168  19.342  0.00  0.00    +0.000 C 
BRANCH  13  18
ATOM     14  C   UNL     1       0.550   1.888  18.964  0.00  0.00    +0.000 C 
ATOM     15  C   UNL     1       1.107   3.279  19.044  0.00  0.00    +0.000 A 
ATOM     16  C   UNL     1       1.629   3.908  17.913  0.00  0.00    +0.000 A 
ATOM     17  C   UNL     1       2.198   5.181  18.008  0.00  0.00    +0.000 A 
ATOM     18  C   UNL     1       2.264   5.847  19.242  0.00  0.00    +0.000 A 
ATOM     19  C   UNL     1       1.703   5.230  20.368  0.00  0.00    +0.000 A 
ATOM     20  C   UNL     1       1.135   3.952  20.270  0.00  0.00    +0.000 A 
ENDBRANCH  13  18
ENDBRANCH   1  13
TORSDOF 2
ENDMDL
MODEL 2
REMARK VINA RESULT:      -6.9      4.176      7.663
REMARK  Name = 
REMARK  5 active torsions:
REMARK  status: ('A' for Active; 'I' for Inactive)
REMARK    1  A    between atoms: C_1  and  C_2
REMARK    2  A    between atoms: C_5  and  C_6
REMARK    3  A    between atoms: C_6  and  N_7
REMARK    4  A    between atoms: N_12  and  C_13
REMARK    5  A    between atoms: N_12  and  C_14
REMARK                            x       y       z     vdW  Elec       q    Type
REMARK                         _______ _______ _______ _____ _____    ______ ____
ROOT
ATOM      1  N   UNL     1       4.346   4.913  18.214  0.00  0.00    +0.000 N 
ATOM      2  C   UNL     1       3.766   4.013  17.366  0.00  0.00    +0.000 A 
ATOM      3  N   UNL     1       4.440   3.897  16.243  0.00  0.00    +0.000 NA
ATOM      4  C   UNL     1       5.497   4.790  16.347  0.00  0.00    +0.000 A 
ATOM      5  C   UNL     1       6.530   5.183  15.447  0.00  0.00    +0.000 A 
ATOM      6  N   UNL     1       6.683   4.753  14.137  0.00  0.00    +0.000 N 
ATOM      7  C   UNL     1       5.788   3.796  13.511  0.00  0.00    +0.000 C 
ATOM      8  C   UNL     1       7.928   5.022  13.434  0.00  0.00    +0.000 C 
ATOM      9  N   UNL     1       7.408   6.121  15.928  0.00  0.00    +0.000 NA
ATOM     10  C   UNL     1       7.247   6.636  17.164  0.00  0.00    +0.000 A 
ATOM     11  N   UNL     1       6.294   6.351  18.066  0.00  0.00    +0.000 NA
ATOM     12  C   UNL     1       5.457   5.416  17.589  0.00  0.00    +0.000 A 
ENDROOT
BRANCH   1  13
ATOM     13  C   UNL     1       3.752   5.413  19.438  0.00  0.00    +0.000 C 
BRANCH  13  18
ATOM     14  C   UNL     1       0.712  10.339  18.805  0.00  0.00    +0.000 C 
ATOM     15  C   UNL     1       1.433   9.031  18.946  0.00  0.00    +0.000 A 
ATOM     16  C   UNL     1       1.405   8.324  20.149  0.00  0.00    +0.000 A 
ATOM     17  C   UNL     1       2.126   7.135  20.290  0.00  0.00    +0.000 A 
ATOM     18  C   UNL     1       2.899   6.635  19.230  0.00  0.00    +0.000 A 
ATOM     19  C   UNL     1       2.893   7.326  18.011  0.00  0.00    +0.000 A 
ATOM     20  C   UNL     1       2.170   8.519  17.873  0.00  0.00    +0.000 A 
ENDBRANCH  13  18
ENDBRANCH   1  13
TORSDOF 2
ENDMDL
MODEL 3
REMARK VINA RESULT:      -6.8      1.571      2.728
REMARK  Name = 
REMARK  5 active torsions:
REMARK  status: ('A' for Active; 'I' for Inactive)
REMARK    1  A    between atoms: C_1  and  C_2
REMARK    2  A    between atoms: C_5  and  C_6
REMARK    3  A    between atoms: C_6  and  N_7
REMARK    4  A    between atoms: N_12  and  C_13
REMARK    5  A    between atoms: N_12  and  C_14
REMARK                            x       y       z     vdW  Elec       q    Type
REMARK                         _______ _______ _______ _____ _____    ______ ____
ROOT
ATOM      1  N   UNL     1       2.065   7.788  19.175  0.00  0.00    +0.000 N 
ATOM      2  C   UNL     1       1.868   7.160  20.372  0.00  0.00    +0.000 A 
ATOM      3  N   UNL     1       1.180   7.906  21.207  0.00  0.00    +0.000 NA
ATOM      4  C   UNL     1       0.940   9.097  20.535  0.00  0.00    +0.000 A 
ATOM      5  C   UNL     1       0.316  10.319  20.917  0.00  0.00    +0.000 A 
ATOM      6  N   UNL     1      -0.186  10.626  22.173  0.00  0.00    +0.000 N 
ATOM      7  C   UNL     1      -0.157   9.691  23.284  0.00  0.00    +0.000 C 
ATOM      8  C   UNL     1      -1.035  11.795  22.341  0.00  0.00    +0.000 C 
ATOM      9  N   UNL     1       0.276  11.289  19.948  0.00  0.00    +0.000 NA
ATOM     10  C   UNL     1       0.832  11.071  18.739  0.00  0.00    +0.000 A 
ATOM     11  N   UNL     1       1.463   9.970  18.301  0.00  0.00    +0.000 NA
ATOM     12  C   UNL     1       1.474   9.022  19.252  0.00  0.00    +0.000 A 
ENDROOT
BRANCH   1  13
ATOM     13  C   UNL     1       2.944   7.325  18.120  0.00  0.00    +0.000 C 
BRANCH  13  18
ATOM     14  C   UNL     1       3.488   1.531  18.352  0.00  0.00    +0.000 C 
ATOM     15  C   UNL     1       3.371   3.021  18.219  0.00  0.00    +0.000 A 
ATOM     16  C   UNL     1       4.459   3.852  18.490  0.00  0.00    +0.000 A 
ATOM     17  C   UNL     1       4.325   5.242  18.419  0.00  0.00    +0.000 A 
ATOM     18  C   UNL     1       3.094   5.827  18.084  0.00  0.00    +0.000 A 
ATOM     19  C   UNL     1       2.015   4.990  17.773  0.00  0.00    +0.000 A 
ATOM     20  C   UNL     1       2.151   3.597  17.847  0.00  0.00    +0.000 A 
ENDBRANCH  13  18
ENDBRANCH   1  13
TORSDOF 2
ENDMDL
MODEL 4
REMARK VINA RESULT:      -6.7      4.125      7.546
REMARK  Name = 
REMARK  5 active torsions:
REMARK  status: ('A' for Active; 'I' for Inactive)
REMARK    1  A    between atoms: C_1  and  C_2
REMARK    2  A    between atoms: C_5  and  C_6
REMARK    3  A    between atoms: C_6  and  N_7
REMARK    4  A    between atoms: N_12  and  C_13
REMARK    5  A    between atoms: N_12  and  C_14
REMARK                            x       y       z     vdW  Elec       q    Type
REMARK                         _______ _______ _______ _____ _____    ______ ____
ROOT
ATOM      1  N   UNL     1       4.242   4.944  18.215  0.00  0.00    +0.000 N 
ATOM      2  C   UNL     1       3.616   4.091  17.350  0.00  0.00    +0.000 A 
ATOM      3  N   UNL     1       4.283   3.961  16.225  0.00  0.00    +0.000 NA
ATOM      4  C   UNL     1       5.385   4.796  16.344  0.00  0.00    +0.000 A 
ATOM      5  C   UNL     1       6.437   5.151  15.450  0.00  0.00    +0.000 A 
ATOM      6  N   UNL     1       6.567   4.739  14.133  0.00  0.00    +0.000 N 
ATOM      7  C   UNL     1       5.623   3.841  13.490  0.00  0.00    +0.000 C 
ATOM      8  C   UNL     1       7.824   4.955  13.433  0.00  0.00    +0.000 C 
ATOM      9  N   UNL     1       7.362   6.033  15.948  0.00  0.00    +0.000 NA
ATOM     10  C   UNL     1       7.229   6.533  17.193  0.00  0.00    +0.000 A 
ATOM     11  N   UNL     1       6.263   6.281  18.091  0.00  0.00    +0.000 NA
ATOM     12  C   UNL     1       5.378   5.399  17.598  0.00  0.00    +0.000 A 
ENDROOT
BRANCH   1  13
ATOM     13  C   UNL     1       3.676   5.452  19.448  0.00  0.00    +0.000 C 
BRANCH  13  18
ATOM     14  C   UNL     1       0.441  10.216  18.581  0.00  0.00    +0.000 C 
ATOM     15  C   UNL     1       1.332   9.034  18.825  0.00  0.00    +0.000 A 
ATOM     16  C   UNL     1       2.140   8.524  17.807  0.00  0.00    +0.000 A 
ATOM     17  C   UNL     1       2.924   7.388  18.026  0.00  0.00    +0.000 A 
ATOM     18  C   UNL     1       2.908   6.734  19.268  0.00  0.00    +0.000 A 
ATOM     19  C   UNL     1       2.128   7.271  20.300  0.00  0.00    +0.000 A 
ATOM     20  C   UNL     1       1.340   8.410  20.076  0.00  0.00    +0.000 A 
ENDBRANCH  13  18
ENDBRANCH   1  13
TORSDOF 2
ENDMDL
MODEL 5
REMARK VINA RESULT:      -6.6      1.586      2.678
REMARK  Name = 
REMARK  5 active torsions:
REMARK  status: ('A' for Active; 'I' for Inactive)
REMARK    1  A    between atoms: C_1  and  C_2
REMARK    2  A    between atoms: C_5  and  C_6
REMARK    3  A    between atoms: C_6  and  N_7
REMARK    4  A    between atoms: N_12  and  C_13
REMARK    5  A    between atoms: N_12  and  C_14
REMARK                            x       y       z     vdW  Elec       q    Type
REMARK                         _______ _______ _______ _____ _____    ______ ____
ROOT
ATOM      1  N   UNL     1       2.021   7.791  19.298  0.00  0.00    +0.000 N 
ATOM      2  C   UNL     1       1.744   7.194  20.495  0.00  0.00    +0.000 A 
ATOM      3  N   UNL     1       1.054   7.985  21.286  0.00  0.00    +0.000 NA
ATOM      4  C   UNL     1       0.898   9.173  20.585  0.00  0.00    +0.000 A 
ATOM      5  C   UNL     1       0.313  10.429  20.919  0.00  0.00    +0.000 A 
ATOM      6  N   UNL     1      -0.229  10.780  22.146  0.00  0.00    +0.000 N 
ATOM      7  C   UNL     1      -0.291   9.866  23.273  0.00  0.00    +0.000 C 
ATOM      8  C   UNL     1      -1.031  11.989  22.257  0.00  0.00    +0.000 C 
ATOM      9  N   UNL     1       0.359  11.382  19.933  0.00  0.00    +0.000 NA
ATOM     10  C   UNL     1       0.957  11.117  18.754  0.00  0.00    +0.000 A 
ATOM     11  N   UNL     1       1.556   9.981  18.363  0.00  0.00    +0.000 NA
ATOM     12  C   UNL     1       1.483   9.051  19.329  0.00  0.00    +0.000 A 
ENDROOT
BRANCH   1  13
ATOM     13  C   UNL     1       2.924   7.270  18.291  0.00  0.00    +0.000 C 
BRANCH  13  18
ATOM     14  C   UNL     1       3.611   1.489  18.151  0.00  0.00    +0.000 C 
ATOM     15  C   UNL     1       3.402   2.971  18.257  0.00  0.00    +0.000 A 
ATOM     16  C   UNL     1       2.215   3.560  17.820  0.00  0.00    +0.000 A 
ATOM     17  C   UNL     1       2.051   4.947  17.869  0.00  0.00    +0.000 A 
ATOM     18  C   UNL     1       3.079   5.774  18.348  0.00  0.00    +0.000 A 
ATOM     19  C   UNL     1       4.255   5.178  18.823  0.00  0.00    +0.000 A 
ATOM     20  C   UNL     1       4.417   3.786  18.770  0.00  0.00    +0.000 A 
ENDBRANCH  13  18
ENDBRANCH   1  13
TORSDOF 2
ENDMDL
MODEL 6
REMARK VINA RESULT:      -6.4      1.094      2.476
REMARK  Name = 
REMARK  5 active torsions:
REMARK  status: ('A' for Active; 'I' for Inactive)
REMARK    1  A    between atoms: C_1  and  C_2
REMARK    2  A    between atoms: C_5  and  C_6
REMARK    3  A    between atoms: C_6  and  N_7
REMARK    4  A    between atoms: N_12  and  C_13
REMARK    5  A    between atoms: N_12  and  C_14
REMARK                            x       y       z     vdW  Elec       q    Type
REMARK                         _______ _______ _______ _____ _____    ______ ____
ROOT
ATOM      1  N   UNL     1       1.475   8.410  20.305  0.00  0.00    +0.000 N 
ATOM      2  C   UNL     1       1.334   8.466  21.663  0.00  0.00    +0.000 A 
ATOM      3  N   UNL     1       0.461   9.379  22.025  0.00  0.00    +0.000 NA
ATOM      4  C   UNL     1       0.031   9.975  20.848  0.00  0.00    +0.000 A 
ATOM      5  C   UNL     1      -0.846  11.063  20.573  0.00  0.00    +0.000 A 
ATOM      6  N   UNL     1      -1.475  11.866  21.512  0.00  0.00    +0.000 N 
ATOM      7  C   UNL     1      -1.329  11.669  22.944  0.00  0.00    +0.000 C 
ATOM      8  C   UNL     1      -2.549  12.755  21.095  0.00  0.00    +0.000 C 
ATOM      9  N   UNL     1      -1.019  11.362  19.245  0.00  0.00    +0.000 NA
ATOM     10  C   UNL     1      -0.358  10.667  18.297  0.00  0.00    +0.000 A 
ATOM     11  N   UNL     1       0.505   9.652  18.461  0.00  0.00    +0.000 NA
ATOM     12  C   UNL     1       0.646   9.357  19.763  0.00  0.00    +0.000 A 
ENDROOT
BRANCH   1  13
ATOM     13  C   UNL     1       2.491   7.656  19.598  0.00  0.00    +0.000 C 
BRANCH  13  18
ATOM     14  C   UNL     1       0.733   2.158  18.832  0.00  0.00    +0.000 C 
ATOM     15  C   UNL     1       1.256   3.548  19.043  0.00  0.00    +0.000 A 
ATOM     16  C   UNL     1       1.263   4.125  20.314  0.00  0.00    +0.000 A 
ATOM     17  C   UNL     1       1.700   5.441  20.493  0.00  0.00    +0.000 A 
ATOM     18  C   UNL     1       2.129   6.209  19.399  0.00  0.00    +0.000 A 
ATOM     19  C   UNL     1       2.159   5.614  18.132  0.00  0.00    +0.000 A 
ATOM     20  C   UNL     1       1.718   4.295  17.955  0.00  0.00    +0.000 A 
ENDBRANCH  13  18
ENDBRANCH   1  13
TORSDOF 2
ENDMDL
MODEL 7
REMARK VINA RESULT:      -6.4      1.833      6.536
REMARK  Name = 
REMARK  5 active torsions:
REMARK  status: ('A' for Active; 'I' for Inactive)
REMARK    1  A    between atoms: C_1  and  C_2
REMARK    2  A    between atoms: C_5  and  C_6
REMARK    3  A    between atoms: C_6  and  N_7
REMARK    4  A    between atoms: N_12  and  C_13
REMARK    5  A    between atoms: N_12  and  C_14
REMARK                            x       y       z     vdW  Elec       q    Type
REMARK                         _______ _______ _______ _____ _____    ______ ____
ROOT
ATOM      1  N   UNL     1       1.216   9.534  19.797  0.00  0.00    +0.000 N 
ATOM      2  C   UNL     1       0.788   8.911  20.935  0.00  0.00    +0.000 A 
ATOM      3  N   UNL     1       1.226   7.675  21.010  0.00  0.00    +0.000 NA
ATOM      4  C   UNL     1       1.953   7.464  19.846  0.00  0.00    +0.000 A 
ATOM      5  C   UNL     1       2.613   6.322  19.306  0.00  0.00    +0.000 A 
ATOM      6  N   UNL     1       2.627   5.048  19.853  0.00  0.00    +0.000 N 
ATOM      7  C   UNL     1       1.967   4.719  21.104  0.00  0.00    +0.000 C 
ATOM      8  C   UNL     1       3.561   4.057  19.341  0.00  0.00    +0.000 C 
ATOM      9  N   UNL     1       3.234   6.517  18.097  0.00  0.00    +0.000 NA
ATOM     10  C   UNL     1       3.171   7.715  17.482  0.00  0.00    +0.000 A 
ATOM     11  N   UNL     1       2.553   8.832  17.898  0.00  0.00    +0.000 NA
ATOM     12  C   UNL     1       1.970   8.633  19.091  0.00  0.00    +0.000 A 
ENDROOT
BRANCH   1  13
ATOM     13  C   UNL     1       0.753  10.822  19.321  0.00  0.00    +0.000 C 
BRANCH  13  18
ATOM     14  C   UNL     1      -4.646  11.019  17.148  0.00  0.00    +0.000 C 
ATOM     15  C   UNL     1      -3.279  10.915  17.758  0.00  0.00    +0.000 A 
ATOM     16  C   UNL     1      -2.916  11.714  18.843  0.00  0.00    +0.000 A 
ATOM     17  C   UNL     1      -1.622  11.652  19.368  0.00  0.00    +0.000 A 
ATOM     18  C   UNL     1      -0.662  10.794  18.810  0.00  0.00    +0.000 A 
ATOM     19  C   UNL     1      -1.041   9.964  17.747  0.00  0.00    +0.000 A 
ATOM     20  C   UNL     1      -2.339  10.030  17.220  0.00  0.00    +0.000 A 
ENDBRANCH  13  18
ENDBRANCH   1  13
TORSDOF 2
ENDMDL
MODEL 8
REMARK VINA RESULT:      -6.4      2.348      4.513
REMARK  Name = 
REMARK  5 active torsions:
REMARK  status: ('A' for Active; 'I' for Inactive)
REMARK    1  A    between atoms: C_1  and  C_2
REMARK    2  A    between atoms: C_5  and  C_6
REMARK    3  A    between atoms: C_6  and  N_7
REMARK    4  A    between atoms: N_12  and  C_13
REMARK    5  A    between atoms: N_12  and  C_14
REMARK                            x       y       z     vdW  Elec       q    Type
REMARK                         _______ _______ _______ _____ _____    ______ ____
ROOT
ATOM      1  N   UNL     1      -0.656  11.331  19.021  0.00  0.00    +0.000 N 
ATOM      2  C   UNL     1      -1.126  12.111  20.040  0.00  0.00    +0.000 A 
ATOM      3  N   UNL     1      -2.430  12.265  19.975  0.00  0.00    +0.000 NA
ATOM      4  C   UNL     1      -2.832  11.578  18.838  0.00  0.00    +0.000 A 
ATOM      5  C   UNL     1      -4.092  11.425  18.189  0.00  0.00    +0.000 A 
ATOM      6  N   UNL     1      -5.284  12.027  18.562  0.00  0.00    +0.000 N 
ATOM      7  C   UNL     1      -5.400  12.898  19.718  0.00  0.00    +0.000 C 
ATOM      8  C   UNL     1      -6.534  11.566  17.979  0.00  0.00    +0.000 C 
ATOM      9  N   UNL     1      -4.082  10.651  17.056  0.00  0.00    +0.000 NA
ATOM     10  C   UNL     1      -2.930  10.119  16.603  0.00  0.00    +0.000 A 
ATOM     11  N   UNL     1      -1.699  10.231  17.126  0.00  0.00    +0.000 NA
ATOM     12  C   UNL     1      -1.728  10.971  18.247  0.00  0.00    +0.000 A 
ENDROOT
BRANCH   1  13
ATOM     13  C   UNL     1       0.741  11.132  18.694  0.00  0.00    +0.000 C 
BRANCH  13  18
ATOM     14  C   UNL     1       2.922   5.826  19.698  0.00  0.00    +0.000 C 
ATOM     15  C   UNL     1       2.295   7.160  19.417  0.00  0.00    +0.000 A 
ATOM     16  C   UNL     1       2.390   7.744  18.153  0.00  0.00    +0.000 A 
ATOM     17  C   UNL     1       1.852   9.012  17.915  0.00  0.00    +0.000 A 
ATOM     18  C   UNL     1       1.217   9.726  18.943  0.00  0.00    +0.000 A 
ATOM     19  C   UNL     1       1.087   9.120  20.200  0.00  0.00    +0.000 A 
ATOM     20  C   UNL     1       1.630   7.849  20.436  0.00  0.00    +0.000 A 
ENDBRANCH  13  18
ENDBRANCH   1  13
TORSDOF 2
ENDMDL
MODEL 9
REMARK VINA RESULT:      -6.3      2.299      6.857
REMARK  Name = 
REMARK  5 active torsions:
REMARK  status: ('A' for Active; 'I' for Inactive)
REMARK    1  A    between atoms: C_1  and  C_2
REMARK    2  A    between atoms: C_5  and  C_6
REMARK    3  A    between atoms: C_6  and  N_7
REMARK    4  A    between atoms: N_12  and  C_13
REMARK    5  A    between atoms: N_12  and  C_14
REMARK                            x       y       z     vdW  Elec       q    Type
REMARK                         _______ _______ _______ _____ _____    ______ ____
ROOT
ATOM      1  N   UNL     1       2.319   8.046  18.795  0.00  0.00    +0.000 N 
ATOM      2  C   UNL     1       1.676   7.830  19.981  0.00  0.00    +0.000 A 
ATOM      3  N   UNL     1       1.913   6.626  20.452  0.00  0.00    +0.000 NA
ATOM      4  C   UNL     1       2.727   6.009  19.512  0.00  0.00    +0.000 A 
ATOM      5  C   UNL     1       3.265   4.694  19.405  0.00  0.00    +0.000 A 
ATOM      6  N   UNL     1       3.026   3.638  20.272  0.00  0.00    +0.000 N 
ATOM      7  C   UNL     1       2.187   3.759  21.452  0.00  0.00    +0.000 C 
ATOM      8  C   UNL     1       3.853   2.444  20.194  0.00  0.00    +0.000 C 
ATOM      9  N   UNL     1       4.040   4.462  18.297  0.00  0.00    +0.000 NA
ATOM     10  C   UNL     1       4.227   5.431  17.379  0.00  0.00    +0.000 A 
ATOM     11  N   UNL     1       3.741   6.682  17.380  0.00  0.00    +0.000 NA
ATOM     12  C   UNL     1       3.004   6.902  18.480  0.00  0.00    +0.000 A 
ENDROOT
BRANCH   1  13
ATOM     13  C   UNL     1       2.111   9.186  17.925  0.00  0.00    +0.000 C 
BRANCH  13  18
ATOM     14  C   UNL     1      -2.467  12.267  19.786  0.00  0.00    +0.000 C 
ATOM     15  C   UNL     1      -1.282  11.521  19.246  0.00  0.00    +0.000 A 
ATOM     16  C   UNL     1      -1.448  10.471  18.342  0.00  0.00    +0.000 A 
ATOM     17  C   UNL     1      -0.343   9.745  17.888  0.00  0.00    +0.000 A 
ATOM     18  C   UNL     1       0.950  10.049  18.341  0.00  0.00    +0.000 A 
ATOM     19  C   UNL     1       1.118  11.129  19.218  0.00  0.00    +0.000 A 
ATOM     20  C   UNL     1       0.008  11.855  19.672  0.00  0.00    +0.000 A 
ENDBRANCH  13  18
ENDBRANCH   1  13
TORSDOF 2
ENDMDL
