MODEL 1
REMARK VINA RESULT:      -8.5      0.000      0.000
REMARK  Name = 
REMARK  0 active torsions:
REMARK  status: ('A' for Active; 'I' for Inactive)
REMARK                            x       y       z     vdW  Elec       q    Type
REMARK                         _______ _______ _______ _____ _____    ______ ____
ROOT
ATOM      1  O   UNL     1      -6.558  12.196  17.246  0.00  0.00    +0.000 OA
ATOM      2  C   UNL     1      -5.407  11.817  17.330  0.00  0.00    +0.000 C 
ATOM      3  N   UNL     1      -4.712  11.271  16.244  0.00  0.00    +0.000 N 
ATOM      4  C   UNL     1      -3.310  10.929  16.461  0.00  0.00    +0.000 C 
ATOM      5  C   UNL     1      -3.221  11.265  17.878  0.00  0.00    +0.000 A 
ATOM      6  C   UNL     1      -4.425  11.827  18.376  0.00  0.00    +0.000 A 
ATOM      7  C   UNL     1      -4.314  12.287  19.707  0.00  0.00    +0.000 A 
ATOM      8  C   UNL     1      -5.316  12.773  20.566  0.00  0.00    +0.000 A 
ATOM      9  C   UNL     1      -6.701  13.035  20.417  0.00  0.00    +0.000 A 
ATOM     10  C   UNL     1      -7.451  13.503  21.496  0.00  0.00    +0.000 A 
ATOM     11  C   UNL     1      -6.862  13.697  22.740  0.00  0.00    +0.000 A 
ATOM     12  C   UNL     1      -5.502  13.445  22.950  0.00  0.00    +0.000 A 
ATOM     13  C   UNL     1      -4.713  13.004  21.872  0.00  0.00    +0.000 A 
ATOM     14  N   UNL     1      -3.336  12.712  21.842  0.00  0.00    +0.000 N 
ATOM     15  C   UNL     1      -3.198  12.388  20.543  0.00  0.00    +0.000 A 
ATOM     16  C   UNL     1      -2.003  12.118  19.915  0.00  0.00    +0.000 A 
ATOM     17  C   UNL     1      -2.123  11.422  18.726  0.00  0.00    +0.000 A 
ATOM     18  C   UNL     1      -0.814  10.934  18.612  0.00  0.00    +0.000 A 
ATOM     19  C   UNL     1      -0.171   9.797  18.097  0.00  0.00    +0.000 A 
ATOM     20  C   UNL     1       1.221   9.801  18.012  0.00  0.00    +0.000 A 
ATOM     21  C   UNL     1       1.935  10.968  18.292  0.00  0.00    +0.000 A 
ATOM     22  C   UNL     1       1.342  12.020  18.994  0.00  0.00    +0.000 A 
ATOM     23  C   UNL     1       0.005  11.858  19.360  0.00  0.00    +0.000 A 
ATOM     24  N   UNL     1      -0.772  12.410  20.395  0.00  0.00    +0.000 N 
ATOM     25  C   UNL     1      -0.425  12.556  21.791  0.00  0.00    +0.000 C 
ATOM     26  C   UNL     1      -0.693  13.938  22.382  0.00  0.00    +0.000 C 
ATOM     27  C   UNL     1      -1.701  13.662  23.486  0.00  0.00    +0.000 C 
ATOM     28  C   UNL     1      -2.416  12.438  22.946  0.00  0.00    +0.000 C 
ATOM     29  O   UNL     1      -1.303  11.645  22.505  0.00  0.00    +0.000 OA
ATOM     30  H   UNL     1      -5.156  11.263  15.336  0.00  0.00    +0.000 HD
ENDROOT
TORSDOF 0
ENDMDL
MODEL 2
REMARK VINA RESULT:      -8.0      1.723      6.995
REMARK  Name = 
REMARK  0 active torsions:
REMARK  status: ('A' for Active; 'I' for Inactive)
REMARK                            x       y       z     vdW  Elec       q    Type
REMARK                         _______ _______ _______ _____ _____    ______ ____
ROOT
ATOM      1  O   UNL     1      -0.346  11.716  21.235  0.00  0.00    +0.000 OA
ATOM      2  C   UNL     1      -1.407  12.067  21.713  0.00  0.00    +0.000 C 
ATOM      3  N   UNL     1      -1.526  12.520  23.033  0.00  0.00    +0.000 N 
ATOM      4  C   UNL     1      -2.842  12.986  23.455  0.00  0.00    +0.000 C 
ATOM      5  C   UNL     1      -3.579  12.695  22.230  0.00  0.00    +0.000 A 
ATOM      6  C   UNL     1      -2.739  12.205  21.198  0.00  0.00    +0.000 A 
ATOM      7  C   UNL     1      -3.408  12.051  19.964  0.00  0.00    +0.000 A 
ATOM      8  C   UNL     1      -2.945  11.474  18.768  0.00  0.00    +0.000 A 
ATOM      9  C   UNL     1      -1.704  10.933  18.349  0.00  0.00    +0.000 A 
ATOM     10  C   UNL     1      -1.562  10.396  17.070  0.00  0.00    +0.000 A 
ATOM     11  C   UNL     1      -2.638  10.360  16.191  0.00  0.00    +0.000 A 
ATOM     12  C   UNL     1      -3.890  10.870  16.552  0.00  0.00    +0.000 A 
ATOM     13  C   UNL     1      -4.055  11.447  17.824  0.00  0.00    +0.000 A 
ATOM     14  N   UNL     1      -5.202  12.036  18.390  0.00  0.00    +0.000 N 
ATOM     15  C   UNL     1      -4.702  12.416  19.580  0.00  0.00    +0.000 A 
ATOM     16  C   UNL     1      -5.374  13.162  20.521  0.00  0.00    +0.000 A 
ATOM     17  C   UNL     1      -4.849  13.085  21.798  0.00  0.00    +0.000 A 
ATOM     18  C   UNL     1      -5.958  13.530  22.531  0.00  0.00    +0.000 A 
ATOM     19  C   UNL     1      -6.530  13.298  23.792  0.00  0.00    +0.000 A 
ATOM     20  C   UNL     1      -7.567  14.129  24.214  0.00  0.00    +0.000 A 
ATOM     21  C   UNL     1      -7.915  15.252  23.462  0.00  0.00    +0.000 A 
ATOM     22  C   UNL     1      -7.509  15.375  22.130  0.00  0.00    +0.000 A 
ATOM     23  C   UNL     1      -6.717  14.348  21.616  0.00  0.00    +0.000 A 
ATOM     24  N   UNL     1      -6.505  13.874  20.308  0.00  0.00    +0.000 N 
ATOM     25  C   UNL     1      -7.490  13.604  19.285  0.00  0.00    +0.000 C 
ATOM     26  C   UNL     1      -7.175  14.194  17.912  0.00  0.00    +0.000 C 
ATOM     27  C   UNL     1      -7.077  12.970  17.015  0.00  0.00    +0.000 C 
ATOM     28  C   UNL     1      -6.605  11.912  17.994  0.00  0.00    +0.000 C 
ATOM     29  O   UNL     1      -7.478  12.162  19.107  0.00  0.00    +0.000 OA
ATOM     30  H   UNL     1      -0.687  12.633  23.585  0.00  0.00    +0.000 HD
ENDROOT
TORSDOF 0
ENDMDL
MODEL 3
REMARK VINA RESULT:      -7.7      1.812      5.299
REMARK  Name = 
REMARK  0 active torsions:
REMARK  status: ('A' for Active; 'I' for Inactive)
REMARK                            x       y       z     vdW  Elec       q    Type
REMARK                         _______ _______ _______ _____ _____    ______ ____
ROOT
ATOM      1  O   UNL     1      -7.166  12.111  17.717  0.00  0.00    +0.000 OA
ATOM      2  C   UNL     1      -6.749  12.768  18.651  0.00  0.00    +0.000 C 
ATOM      3  N   UNL     1      -7.566  13.633  19.388  0.00  0.00    +0.000 N 
ATOM      4  C   UNL     1      -6.957  14.301  20.533  0.00  0.00    +0.000 C 
ATOM      5  C   UNL     1      -5.596  13.797  20.381  0.00  0.00    +0.000 A 
ATOM      6  C   UNL     1      -5.481  12.866  19.317  0.00  0.00    +0.000 A 
ATOM      7  C   UNL     1      -4.207  12.262  19.242  0.00  0.00    +0.000 A 
ATOM      8  C   UNL     1      -3.686  11.405  18.256  0.00  0.00    +0.000 A 
ATOM      9  C   UNL     1      -4.219  10.807  17.088  0.00  0.00    +0.000 A 
ATOM     10  C   UNL     1      -3.417  10.002  16.277  0.00  0.00    +0.000 A 
ATOM     11  C   UNL     1      -2.079   9.791  16.587  0.00  0.00    +0.000 A 
ATOM     12  C   UNL     1      -1.495  10.364  17.722  0.00  0.00    +0.000 A 
ATOM     13  C   UNL     1      -2.287  11.154  18.576  0.00  0.00    +0.000 A 
ATOM     14  N   UNL     1      -1.926  11.805  19.771  0.00  0.00    +0.000 N 
ATOM     15  C   UNL     1      -3.112  12.341  20.108  0.00  0.00    +0.000 A 
ATOM     16  C   UNL     1      -3.376  13.010  21.282  0.00  0.00    +0.000 A 
ATOM     17  C   UNL     1      -4.499  13.816  21.245  0.00  0.00    +0.000 A 
ATOM     18  C   UNL     1      -4.222  14.648  22.339  0.00  0.00    +0.000 A 
ATOM     19  C   UNL     1      -4.462  15.979  22.718  0.00  0.00    +0.000 A 
ATOM     20  C   UNL     1      -4.170  16.359  24.028  0.00  0.00    +0.000 A 
ATOM     21  C   UNL     1      -3.796  15.398  24.969  0.00  0.00    +0.000 A 
ATOM     22  C   UNL     1      -3.357  14.133  24.566  0.00  0.00    +0.000 A 
ATOM     23  C   UNL     1      -3.352  13.876  23.194  0.00  0.00    +0.000 A 
ATOM     24  N   UNL     1      -2.606  12.991  22.395  0.00  0.00    +0.000 N 
ATOM     25  C   UNL     1      -1.183  12.738  22.431  0.00  0.00    +0.000 C 
ATOM     26  C   UNL     1      -0.788  11.264  22.453  0.00  0.00    +0.000 C 
ATOM     27  C   UNL     1       0.022  11.095  21.179  0.00  0.00    +0.000 C 
ATOM     28  C   UNL     1      -0.598  12.149  20.281  0.00  0.00    +0.000 C 
ATOM     29  O   UNL     1      -0.665  13.267  21.180  0.00  0.00    +0.000 OA
ATOM     30  H   UNL     1      -8.556  13.655  19.188  0.00  0.00    +0.000 HD
ENDROOT
TORSDOF 0
ENDMDL
MODEL 4
REMARK VINA RESULT:      -7.6      1.810      6.109
REMARK  Name = 
REMARK  0 active torsions:
REMARK  status: ('A' for Active; 'I' for Inactive)
REMARK                            x       y       z     vdW  Elec       q    Type
REMARK                         _______ _______ _______ _____ _____    ______ ____
ROOT
ATOM      1  O   UNL     1       0.740  10.619  18.635  0.00  0.00    +0.000 OA
ATOM      2  C   UNL     1       0.104  11.075  19.564  0.00  0.00    +0.000 C 
ATOM      3  N   UNL     1       0.690  11.386  20.798  0.00  0.00    +0.000 N 
ATOM      4  C   UNL     1      -0.171  12.001  21.801  0.00  0.00    +0.000 C 
ATOM      5  C   UNL     1      -1.427  11.973  21.059  0.00  0.00    +0.000 A 
ATOM      6  C   UNL     1      -1.262  11.479  19.739  0.00  0.00    +0.000 A 
ATOM      7  C   UNL     1      -2.436  11.575  18.960  0.00  0.00    +0.000 A 
ATOM      8  C   UNL     1      -2.690  11.074  17.671  0.00  0.00    +0.000 A 
ATOM      9  C   UNL     1      -1.907  10.396  16.703  0.00  0.00    +0.000 A 
ATOM     10  C   UNL     1      -2.471   9.995  15.492  0.00  0.00    +0.000 A 
ATOM     11  C   UNL     1      -3.814  10.230  15.222  0.00  0.00    +0.000 A 
ATOM     12  C   UNL     1      -4.639  10.885  16.142  0.00  0.00    +0.000 A 
ATOM     13  C   UNL     1      -4.090  11.331  17.359  0.00  0.00    +0.000 A 
ATOM     14  N   UNL     1      -4.715  12.024  18.413  0.00  0.00    +0.000 N 
ATOM     15  C   UNL     1      -3.665  12.180  19.239  0.00  0.00    +0.000 A 
ATOM     16  C   UNL     1      -3.676  12.910  20.407  0.00  0.00    +0.000 A 
ATOM     17  C   UNL     1      -2.652  12.605  21.284  0.00  0.00    +0.000 A 
ATOM     18  C   UNL     1      -3.195  13.131  22.464  0.00  0.00    +0.000 A 
ATOM     19  C   UNL     1      -3.162  12.848  23.840  0.00  0.00    +0.000 A 
ATOM     20  C   UNL     1      -3.710  13.777  24.723  0.00  0.00    +0.000 A 
ATOM     21  C   UNL     1      -4.138  15.020  24.254  0.00  0.00    +0.000 A 
ATOM     22  C   UNL     1      -4.370  15.231  22.892  0.00  0.00    +0.000 A 
ATOM     23  C   UNL     1      -4.114  14.158  22.036  0.00  0.00    +0.000 A 
ATOM     24  N   UNL     1      -4.618  13.811  20.770  0.00  0.00    +0.000 N 
ATOM     25  C   UNL     1      -5.992  13.818  20.322  0.00  0.00    +0.000 C 
ATOM     26  C   UNL     1      -6.232  14.505  18.979  0.00  0.00    +0.000 C 
ATOM     27  C   UNL     1      -6.791  13.393  18.108  0.00  0.00    +0.000 C 
ATOM     28  C   UNL     1      -6.138  12.168  18.720  0.00  0.00    +0.000 C 
ATOM     29  O   UNL     1      -6.341  12.422  20.119  0.00  0.00    +0.000 OA
ATOM     30  H   UNL     1       1.692  11.302  20.894  0.00  0.00    +0.000 HD
ENDROOT
TORSDOF 0
ENDMDL
MODEL 5
REMARK VINA RESULT:      -7.6      1.605      7.010
REMARK  Name = 
REMARK  0 active torsions:
REMARK  status: ('A' for Active; 'I' for Inactive)
REMARK                            x       y       z     vdW  Elec       q    Type
REMARK                         _______ _______ _______ _____ _____    ______ ____
ROOT
ATOM      1  O   UNL     1       0.175  12.720  21.995  0.00  0.00    +0.000 OA
ATOM      2  C   UNL     1      -0.951  13.054  22.306  0.00  0.00    +0.000 C 
ATOM      3  N   UNL     1      -1.229  13.776  23.473  0.00  0.00    +0.000 N 
ATOM      4  C   UNL     1      -2.614  14.181  23.686  0.00  0.00    +0.000 C 
ATOM      5  C   UNL     1      -3.209  13.545  22.515  0.00  0.00    +0.000 A 
ATOM      6  C   UNL     1      -2.239  12.929  21.684  0.00  0.00    +0.000 A 
ATOM      7  C   UNL     1      -2.777  12.430  20.477  0.00  0.00    +0.000 A 
ATOM      8  C   UNL     1      -2.158  11.652  19.483  0.00  0.00    +0.000 A 
ATOM      9  C   UNL     1      -0.842  11.167  19.286  0.00  0.00    +0.000 A 
ATOM     10  C   UNL     1      -0.538  10.375  18.179  0.00  0.00    +0.000 A 
ATOM     11  C   UNL     1      -1.523  10.027  17.262  0.00  0.00    +0.000 A 
ATOM     12  C   UNL     1      -2.843  10.468  17.409  0.00  0.00    +0.000 A 
ATOM     13  C   UNL     1      -3.172  11.295  18.498  0.00  0.00    +0.000 A 
ATOM     14  N   UNL     1      -4.413  11.870  18.833  0.00  0.00    +0.000 N 
ATOM     15  C   UNL     1      -4.058  12.559  19.933  0.00  0.00    +0.000 A 
ATOM     16  C   UNL     1      -4.877  13.421  20.627  0.00  0.00    +0.000 A 
ATOM     17  C   UNL     1      -4.464  13.690  21.919  0.00  0.00    +0.000 A 
ATOM     18  C   UNL     1      -5.669  14.167  22.452  0.00  0.00    +0.000 A 
ATOM     19  C   UNL     1      -6.331  14.164  23.691  0.00  0.00    +0.000 A 
ATOM     20  C   UNL     1      -7.471  14.952  23.838  0.00  0.00    +0.000 A 
ATOM     21  C   UNL     1      -7.848  15.833  22.823  0.00  0.00    +0.000 A 
ATOM     22  C   UNL     1      -7.336  15.697  21.529  0.00  0.00    +0.000 A 
ATOM     23  C   UNL     1      -6.412  14.672  21.323  0.00  0.00    +0.000 A 
ATOM     24  N   UNL     1      -6.042  13.942  20.179  0.00  0.00    +0.000 N 
ATOM     25  C   UNL     1      -6.903  13.345  19.182  0.00  0.00    +0.000 C 
ATOM     26  C   UNL     1      -6.519  13.641  17.735  0.00  0.00    +0.000 C 
ATOM     27  C   UNL     1      -6.233  12.265  17.156  0.00  0.00    +0.000 C 
ATOM     28  C   UNL     1      -5.758  11.510  18.384  0.00  0.00    +0.000 C 
ATOM     29  O   UNL     1      -6.747  11.909  19.346  0.00  0.00    +0.000 OA
ATOM     30  H   UNL     1      -0.457  14.100  24.039  0.00  0.00    +0.000 HD
ENDROOT
TORSDOF 0
ENDMDL
MODEL 6
REMARK VINA RESULT:      -7.6      1.506      6.863
REMARK  Name = 
REMARK  0 active torsions:
REMARK  status: ('A' for Active; 'I' for Inactive)
REMARK                            x       y       z     vdW  Elec       q    Type
REMARK                         _______ _______ _______ _____ _____    ______ ____
ROOT
ATOM      1  O   UNL     1       0.337  13.425  22.342  0.00  0.00    +0.000 OA
ATOM      2  C   UNL     1      -0.865  13.386  22.170  0.00  0.00    +0.000 C 
ATOM      3  N   UNL     1      -1.762  14.125  22.951  0.00  0.00    +0.000 N 
ATOM      4  C   UNL     1      -3.173  14.047  22.587  0.00  0.00    +0.000 C 
ATOM      5  C   UNL     1      -3.064  13.083  21.498  0.00  0.00    +0.000 A 
ATOM      6  C   UNL     1      -1.718  12.732  21.220  0.00  0.00    +0.000 A 
ATOM      7  C   UNL     1      -1.583  11.909  20.080  0.00  0.00    +0.000 A 
ATOM      8  C   UNL     1      -0.437  11.263  19.581  0.00  0.00    +0.000 A 
ATOM      9  C   UNL     1       0.928  11.245  19.958  0.00  0.00    +0.000 A 
ATOM     10  C   UNL     1       1.845  10.459  19.259  0.00  0.00    +0.000 A 
ATOM     11  C   UNL     1       1.433   9.662  18.198  0.00  0.00    +0.000 A 
ATOM     12  C   UNL     1       0.096   9.631  17.787  0.00  0.00    +0.000 A 
ATOM     13  C   UNL     1      -0.845  10.438  18.452  0.00  0.00    +0.000 A 
ATOM     14  N   UNL     1      -2.223  10.584  18.201  0.00  0.00    +0.000 N 
ATOM     15  C   UNL     1      -2.529  11.503  19.135  0.00  0.00    +0.000 A 
ATOM     16  C   UNL     1      -3.755  12.116  19.273  0.00  0.00    +0.000 A 
ATOM     17  C   UNL     1      -3.972  12.693  20.510  0.00  0.00    +0.000 A 
ATOM     18  C   UNL     1      -5.370  12.790  20.477  0.00  0.00    +0.000 A 
ATOM     19  C   UNL     1      -6.437  12.733  21.389  0.00  0.00    +0.000 A 
ATOM     20  C   UNL     1      -7.711  13.086  20.945  0.00  0.00    +0.000 A 
ATOM     21  C   UNL     1      -7.882  13.626  19.669  0.00  0.00    +0.000 A 
ATOM     22  C   UNL     1      -6.887  13.493  18.695  0.00  0.00    +0.000 A 
ATOM     23  C   UNL     1      -5.716  12.837  19.077  0.00  0.00    +0.000 A 
ATOM     24  N   UNL     1      -4.744  12.127  18.350  0.00  0.00    +0.000 N 
ATOM     25  C   UNL     1      -4.948  11.131  17.322  0.00  0.00    +0.000 C 
ATOM     26  C   UNL     1      -4.122  11.332  16.054  0.00  0.00    +0.000 C 
ATOM     27  C   UNL     1      -3.270  10.075  15.982  0.00  0.00    +0.000 C 
ATOM     28  C   UNL     1      -3.131   9.717  17.450  0.00  0.00    +0.000 C 
ATOM     29  O   UNL     1      -4.486   9.879  17.899  0.00  0.00    +0.000 OA
ATOM     30  H   UNL     1      -1.394  14.775  23.631  0.00  0.00    +0.000 HD
ENDROOT
TORSDOF 0
ENDMDL
MODEL 7
REMARK VINA RESULT:      -7.5      1.323      5.486
REMARK  Name = 
REMARK  0 active torsions:
REMARK  status: ('A' for Active; 'I' for Inactive)
REMARK                            x       y       z     vdW  Elec       q    Type
REMARK                         _______ _______ _______ _____ _____    ______ ____
ROOT
ATOM      1  O   UNL     1      -2.959   9.846  15.736  0.00  0.00    +0.000 OA
ATOM      2  C   UNL     1      -3.635  10.613  16.392  0.00  0.00    +0.000 C 
ATOM      3  N   UNL     1      -4.917  11.016  15.997  0.00  0.00    +0.000 N 
ATOM      4  C   UNL     1      -5.651  11.878  16.917  0.00  0.00    +0.000 C 
ATOM      5  C   UNL     1      -4.619  12.038  17.937  0.00  0.00    +0.000 A 
ATOM      6  C   UNL     1      -3.462  11.265  17.659  0.00  0.00    +0.000 A 
ATOM      7  C   UNL     1      -2.510  11.296  18.702  0.00  0.00    +0.000 A 
ATOM      8  C   UNL     1      -1.206  10.770  18.731  0.00  0.00    +0.000 A 
ATOM      9  C   UNL     1      -0.431  10.005  17.825  0.00  0.00    +0.000 A 
ATOM     10  C   UNL     1       0.880   9.649  18.142  0.00  0.00    +0.000 A 
ATOM     11  C   UNL     1       1.458  10.058  19.338  0.00  0.00    +0.000 A 
ATOM     12  C   UNL     1       0.745  10.824  20.267  0.00  0.00    +0.000 A 
ATOM     13  C   UNL     1      -0.591  11.170  19.990  0.00  0.00    +0.000 A 
ATOM     14  N   UNL     1      -1.498  11.905  20.775  0.00  0.00    +0.000 N 
ATOM     15  C   UNL     1      -2.584  11.851  19.983  0.00  0.00    +0.000 A 
ATOM     16  C   UNL     1      -3.834  12.323  20.316  0.00  0.00    +0.000 A 
ATOM     17  C   UNL     1      -4.672  12.541  19.239  0.00  0.00    +0.000 A 
ATOM     18  C   UNL     1      -5.602  13.400  19.839  0.00  0.00    +0.000 A 
ATOM     19  C   UNL     1      -6.415  14.480  19.459  0.00  0.00    +0.000 A 
ATOM     20  C   UNL     1      -7.373  14.942  20.361  0.00  0.00    +0.000 A 
ATOM     21  C   UNL     1      -7.611  14.244  21.546  0.00  0.00    +0.000 A 
ATOM     22  C   UNL     1      -6.686  13.313  22.028  0.00  0.00    +0.000 A 
ATOM     23  C   UNL     1      -5.549  13.094  21.249  0.00  0.00    +0.000 A 
ATOM     24  N   UNL     1      -4.254  12.643  21.562  0.00  0.00    +0.000 N 
ATOM     25  C   UNL     1      -3.405  13.054  22.658  0.00  0.00    +0.000 C 
ATOM     26  C   UNL     1      -2.773  11.912  23.450  0.00  0.00    +0.000 C 
ATOM     27  C   UNL     1      -1.281  12.133  23.262  0.00  0.00    +0.000 C 
ATOM     28  C   UNL     1      -1.242  12.804  21.901  0.00  0.00    +0.000 C 
ATOM     29  O   UNL     1      -2.298  13.767  22.043  0.00  0.00    +0.000 OA
ATOM     30  H   UNL     1      -5.328  10.594  15.177  0.00  0.00    +0.000 HD
ENDROOT
TORSDOF 0
ENDMDL
MODEL 8
REMARK VINA RESULT:      -7.4      2.049      4.457
REMARK  Name = 
REMARK  0 active torsions:
REMARK  status: ('A' for Active; 'I' for Inactive)
REMARK                            x       y       z     vdW  Elec       q    Type
REMARK                         _______ _______ _______ _____ _____    ______ ____
ROOT
ATOM      1  O   UNL     1      -4.581  14.734  23.619  0.00  0.00    +0.000 OA
ATOM      2  C   UNL     1      -3.611  14.745  22.887  0.00  0.00    +0.000 C 
ATOM      3  N   UNL     1      -2.454  15.477  23.179  0.00  0.00    +0.000 N 
ATOM      4  C   UNL     1      -1.334  15.339  22.255  0.00  0.00    +0.000 C 
ATOM      5  C   UNL     1      -1.967  14.465  21.274  0.00  0.00    +0.000 A 
ATOM      6  C   UNL     1      -3.276  14.077  21.661  0.00  0.00    +0.000 A 
ATOM      7  C   UNL     1      -3.851  13.121  20.795  0.00  0.00    +0.000 A 
ATOM      8  C   UNL     1      -5.161  12.609  20.782  0.00  0.00    +0.000 A 
ATOM      9  C   UNL     1      -6.298  12.785  21.609  0.00  0.00    +0.000 A 
ATOM     10  C   UNL     1      -7.497  12.139  21.309  0.00  0.00    +0.000 A 
ATOM     11  C   UNL     1      -7.607  11.331  20.184  0.00  0.00    +0.000 A 
ATOM     12  C   UNL     1      -6.521  11.127  19.325  0.00  0.00    +0.000 A 
ATOM     13  C   UNL     1      -5.289  11.739  19.620  0.00  0.00    +0.000 A 
ATOM     14  N   UNL     1      -4.069  11.661  18.921  0.00  0.00    +0.000 N 
ATOM     15  C   UNL     1      -3.298  12.421  19.719  0.00  0.00    +0.000 A 
ATOM     16  C   UNL     1      -1.942  12.603  19.572  0.00  0.00    +0.000 A 
ATOM     17  C   UNL     1      -1.437  13.715  20.221  0.00  0.00    +0.000 A 
ATOM     18  C   UNL     1      -0.229  13.860  19.526  0.00  0.00    +0.000 A 
ATOM     19  C   UNL     1       0.618  14.905  19.122  0.00  0.00    +0.000 A 
ATOM     20  C   UNL     1       1.869  14.582  18.598  0.00  0.00    +0.000 A 
ATOM     21  C   UNL     1       2.316  13.260  18.619  0.00  0.00    +0.000 A 
ATOM     22  C   UNL     1       1.422  12.204  18.817  0.00  0.00    +0.000 A 
ATOM     23  C   UNL     1       0.085  12.543  19.027  0.00  0.00    +0.000 A 
ATOM     24  N   UNL     1      -1.118  11.846  18.811  0.00  0.00    +0.000 N 
ATOM     25  C   UNL     1      -1.512  11.081  17.649  0.00  0.00    +0.000 C 
ATOM     26  C   UNL     1      -2.078   9.695  17.948  0.00  0.00    +0.000 C 
ATOM     27  C   UNL     1      -3.491   9.762  17.391  0.00  0.00    +0.000 C 
ATOM     28  C   UNL     1      -3.809  11.238  17.545  0.00  0.00    +0.000 C 
ATOM     29  O   UNL     1      -2.600  11.830  17.044  0.00  0.00    +0.000 OA
ATOM     30  H   UNL     1      -2.391  15.952  24.069  0.00  0.00    +0.000 HD
ENDROOT
TORSDOF 0
ENDMDL
MODEL 9
REMARK VINA RESULT:      -7.4      1.411      5.595
REMARK  Name = 
REMARK  0 active torsions:
REMARK  status: ('A' for Active; 'I' for Inactive)
REMARK                            x       y       z     vdW  Elec       q    Type
REMARK                         _______ _______ _______ _____ _____    ______ ____
ROOT
ATOM      1  O   UNL     1      -4.358  10.650  16.107  0.00  0.00    +0.000 OA
ATOM      2  C   UNL     1      -4.889  11.411  16.892  0.00  0.00    +0.000 C 
ATOM      3  N   UNL     1      -6.183  11.909  16.701  0.00  0.00    +0.000 N 
ATOM      4  C   UNL     1      -6.730  12.750  17.759  0.00  0.00    +0.000 C 
ATOM      5  C   UNL     1      -5.563  12.787  18.634  0.00  0.00    +0.000 A 
ATOM      6  C   UNL     1      -4.506  11.969  18.157  0.00  0.00    +0.000 A 
ATOM      7  C   UNL     1      -3.422  11.881  19.059  0.00  0.00    +0.000 A 
ATOM      8  C   UNL     1      -2.163  11.282  18.879  0.00  0.00    +0.000 A 
ATOM      9  C   UNL     1      -1.567  10.533  17.834  0.00  0.00    +0.000 A 
ATOM     10  C   UNL     1      -0.250  10.086  17.946  0.00  0.00    +0.000 A 
ATOM     11  C   UNL     1       0.508  10.385  19.072  0.00  0.00    +0.000 A 
ATOM     12  C   UNL     1      -0.024  11.129  20.131  0.00  0.00    +0.000 A 
ATOM     13  C   UNL     1      -1.359  11.566  20.061  0.00  0.00    +0.000 A 
ATOM     14  N   UNL     1      -2.104  12.299  21.004  0.00  0.00    +0.000 N 
ATOM     15  C   UNL     1      -3.288  12.356  20.367  0.00  0.00    +0.000 A 
ATOM     16  C   UNL     1      -4.449  12.875  20.895  0.00  0.00    +0.000 A 
ATOM     17  C   UNL     1      -5.408  13.208  19.957  0.00  0.00    +0.000 A 
ATOM     18  C   UNL     1      -6.192  14.078  20.727  0.00  0.00    +0.000 A 
ATOM     19  C   UNL     1      -6.978  15.225  20.522  0.00  0.00    +0.000 A 
ATOM     20  C   UNL     1      -7.774  15.680  21.572  0.00  0.00    +0.000 A 
ATOM     21  C   UNL     1      -7.895  14.923  22.739  0.00  0.00    +0.000 A 
ATOM     22  C   UNL     1      -6.976  13.913  23.036  0.00  0.00    +0.000 A 
ATOM     23  C   UNL     1      -5.970  13.681  22.096  0.00  0.00    +0.000 A 
ATOM     24  N   UNL     1      -4.676  13.139  22.203  0.00  0.00    +0.000 N 
ATOM     25  C   UNL     1      -3.663  13.431  23.191  0.00  0.00    +0.000 C 
ATOM     26  C   UNL     1      -3.005  12.208  23.825  0.00  0.00    +0.000 C 
ATOM     27  C   UNL     1      -1.541  12.356  23.445  0.00  0.00    +0.000 C 
ATOM     28  C   UNL     1      -1.642  13.109  22.131  0.00  0.00    +0.000 C 
ATOM     29  O   UNL     1      -2.605  14.119  22.470  0.00  0.00    +0.000 OA
ATOM     30  H   UNL     1      -6.727  11.563  15.923  0.00  0.00    +0.000 HD
ENDROOT
TORSDOF 0
ENDMDL
