MODEL 1
REMARK VINA RESULT:      -8.6      0.000      0.000
REMARK  Name = 
REMARK  4 active torsions:
REMARK  status: ('A' for Active; 'I' for Inactive)
REMARK    1  A    between atoms: S_2  and  N_4
REMARK    2  A    between atoms: S_2  and  C_16
REMARK    3  A    between atoms: N_4  and  C_5
REMARK    4  A    between atoms: C_9  and  N_10
REMARK                            x       y       z     vdW  Elec       q    Type
REMARK                         _______ _______ _______ _____ _____    ______ ____
ROOT
ATOM      1  N   UNL     1       4.418   2.951  18.384  0.00  0.00    +0.000 N 
ATOM      2  H   UNL     1       4.733   1.999  18.563  0.00  0.00    +0.000 HD
ENDROOT
BRANCH   1   3
ATOM      3  C   UNL     1       5.324   3.907  17.864  0.00  0.00    +0.000 A 
ATOM      4  C   UNL     1       5.790   4.936  18.677  0.00  0.00    +0.000 A 
ATOM      5  C   UNL     1       6.658   5.894  18.151  0.00  0.00    +0.000 A 
ATOM      6  C   UNL     1       7.040   5.831  16.811  0.00  0.00    +0.000 A 
ATOM      7  C   UNL     1       6.559   4.804  15.983  0.00  0.00    +0.000 A 
ATOM      8  C   UNL     1       5.704   3.830  16.520  0.00  0.00    +0.000 A 
BRANCH   7   9
ATOM      9  N   UNL     1       6.931   4.787  14.616  0.00  0.00    +0.000 N 
ATOM     10  C   UNL     1       6.438   4.038  13.577  0.00  0.00    +0.000 A 
ATOM     11  N   UNL     1       7.064   4.363  12.468  0.00  0.00    +0.000 NA
ATOM     12  N   UNL     1       7.963   5.334  12.820  0.00  0.00    +0.000 NA
ATOM     13  N   UNL     1       7.889   5.603  14.116  0.00  0.00    +0.000 NA
ENDBRANCH   7   9
ENDBRANCH   1   3
BRANCH   1  15
ATOM     14  O   UNL     1       2.526   3.320  16.763  0.00  0.00    +0.000 OA
ATOM     15  S   UNL     1       2.763   3.129  18.177  0.00  0.00    +0.000 S 
ATOM     16  O   UNL     1       2.116   2.045  18.889  0.00  0.00    +0.000 OA
BRANCH  15  17
ATOM     17  C   UNL     1       2.336   4.652  18.992  0.00  0.00    +0.000 A 
ATOM     18  C   UNL     1       2.374   5.831  18.230  0.00  0.00    +0.000 A 
ATOM     19  C   UNL     1       2.178   7.068  18.844  0.00  0.00    +0.000 A 
ATOM     20 BR   UNL     1       2.280   8.653  17.819  0.00  0.00    +0.000 Br
ATOM     21  C   UNL     1       1.936   7.148  20.211  0.00  0.00    +0.000 A 
ATOM     22  C   UNL     1       1.885   5.976  20.970  0.00  0.00    +0.000 A 
ATOM     23  C   UNL     1       2.088   4.724  20.368  0.00  0.00    +0.000 A 
ATOM     24 BR   UNL     1       1.976   3.220  21.522  0.00  0.00    +0.000 Br
ENDBRANCH  15  17
ENDBRANCH   1  15
TORSDOF 4
ENDMDL
MODEL 2
REMARK VINA RESULT:      -8.1      1.982      2.843
REMARK  Name = 
REMARK  4 active torsions:
REMARK  status: ('A' for Active; 'I' for Inactive)
REMARK    1  A    between atoms: S_2  and  N_4
REMARK    2  A    between atoms: S_2  and  C_16
REMARK    3  A    between atoms: N_4  and  C_5
REMARK    4  A    between atoms: C_9  and  N_10
REMARK                            x       y       z     vdW  Elec       q    Type
REMARK                         _______ _______ _______ _____ _____    ______ ____
ROOT
ATOM      1  N   UNL     1       4.363   2.840  17.959  0.00  0.00    +0.000 N 
ATOM      2  H   UNL     1       4.755   1.932  18.200  0.00  0.00    +0.000 HD
ENDROOT
BRANCH   1   3
ATOM      3  C   UNL     1       5.106   3.737  17.154  0.00  0.00    +0.000 A 
ATOM      4  C   UNL     1       5.209   3.517  15.783  0.00  0.00    +0.000 A 
ATOM      5  C   UNL     1       5.969   4.385  14.999  0.00  0.00    +0.000 A 
ATOM      6  C   UNL     1       6.639   5.457  15.590  0.00  0.00    +0.000 A 
ATOM      7  C   UNL     1       6.551   5.672  16.975  0.00  0.00    +0.000 A 
ATOM      8  C   UNL     1       5.769   4.811  17.757  0.00  0.00    +0.000 A 
BRANCH   7   9
ATOM      9  N   UNL     1       7.274   6.745  17.555  0.00  0.00    +0.000 N 
ATOM     10  C   UNL     1       8.051   6.774  18.685  0.00  0.00    +0.000 A 
ATOM     11  N   UNL     1       8.552   7.980  18.839  0.00  0.00    +0.000 NA
ATOM     12  N   UNL     1       8.082   8.715  17.784  0.00  0.00    +0.000 NA
ATOM     13  N   UNL     1       7.311   7.978  16.997  0.00  0.00    +0.000 NA
ENDBRANCH   7   9
ENDBRANCH   1   3
BRANCH   1  15
ATOM     14  O   UNL     1       2.198   3.092  16.697  0.00  0.00    +0.000 OA
ATOM     15  S   UNL     1       2.690   2.942  18.049  0.00  0.00    +0.000 S 
ATOM     16  O   UNL     1       2.231   1.847  18.880  0.00  0.00    +0.000 OA
BRANCH  15  17
ATOM     17  C   UNL     1       2.345   4.463  18.906  0.00  0.00    +0.000 A 
ATOM     18  C   UNL     1       2.360   5.651  18.156  0.00  0.00    +0.000 A 
ATOM     19  C   UNL     1       2.228   6.883  18.795  0.00  0.00    +0.000 A 
ATOM     20 BR   UNL     1       2.299   8.479  17.785  0.00  0.00    +0.000 Br
ATOM     21  C   UNL     1       2.073   6.950  20.175  0.00  0.00    +0.000 A 
ATOM     22  C   UNL     1       2.044   5.771  20.923  0.00  0.00    +0.000 A 
ATOM     23  C   UNL     1       2.185   4.522  20.296  0.00  0.00    +0.000 A 
ATOM     24 BR   UNL     1       2.113   3.006  21.437  0.00  0.00    +0.000 Br
ENDBRANCH  15  17
ENDBRANCH   1  15
TORSDOF 4
ENDMDL
MODEL 3
REMARK VINA RESULT:      -7.9      4.920      7.716
REMARK  Name = 
REMARK  4 active torsions:
REMARK  status: ('A' for Active; 'I' for Inactive)
REMARK    1  A    between atoms: S_2  and  N_4
REMARK    2  A    between atoms: S_2  and  C_16
REMARK    3  A    between atoms: N_4  and  C_5
REMARK    4  A    between atoms: C_9  and  N_10
REMARK                            x       y       z     vdW  Elec       q    Type
REMARK                         _______ _______ _______ _____ _____    ______ ____
ROOT
ATOM      1  N   UNL     1       2.897   6.368  20.259  0.00  0.00    +0.000 N 
ATOM      2  H   UNL     1       3.808   6.459  20.705  0.00  0.00    +0.000 HD
ENDROOT
BRANCH   1   3
ATOM      3  C   UNL     1       2.158   7.529  19.924  0.00  0.00    +0.000 A 
ATOM      4  C   UNL     1       2.133   7.981  18.608  0.00  0.00    +0.000 A 
ATOM      5  C   UNL     1       1.429   9.143  18.289  0.00  0.00    +0.000 A 
ATOM      6  C   UNL     1       0.771   9.860  19.289  0.00  0.00    +0.000 A 
ATOM      7  C   UNL     1       0.809   9.416  20.620  0.00  0.00    +0.000 A 
ATOM      8  C   UNL     1       1.498   8.236  20.935  0.00  0.00    +0.000 A 
BRANCH   7   9
ATOM      9  N   UNL     1       0.165  10.184  21.623  0.00  0.00    +0.000 N 
ATOM     10  C   UNL     1      -0.592   9.780  22.694  0.00  0.00    +0.000 A 
ATOM     11  N   UNL     1      -0.975  10.833  23.380  0.00  0.00    +0.000 NA
ATOM     12  N   UNL     1      -0.446  11.915  22.727  0.00  0.00    +0.000 NA
ATOM     13  N   UNL     1       0.250  11.535  21.665  0.00  0.00    +0.000 NA
ENDBRANCH   7   9
ENDBRANCH   1   3
BRANCH   1  15
ATOM     14  O   UNL     1       2.719   3.863  20.444  0.00  0.00    +0.000 OA
ATOM     15  S   UNL     1       2.636   4.917  19.458  0.00  0.00    +0.000 S 
ATOM     16  O   UNL     1       1.442   5.074  18.651  0.00  0.00    +0.000 OA
BRANCH  15  17
ATOM     17  C   UNL     1       4.019   4.718  18.357  0.00  0.00    +0.000 A 
ATOM     18  C   UNL     1       4.996   5.728  18.349  0.00  0.00    +0.000 A 
ATOM     19  C   UNL     1       6.031   5.692  17.416  0.00  0.00    +0.000 A 
ATOM     20 BR   UNL     1       7.313   7.081  17.381  0.00  0.00    +0.000 Br
ATOM     21  C   UNL     1       6.114   4.657  16.491  0.00  0.00    +0.000 A 
ATOM     22  C   UNL     1       5.152   3.645  16.504  0.00  0.00    +0.000 A 
ATOM     23  C   UNL     1       4.098   3.670  17.431  0.00  0.00    +0.000 A 
ATOM     24 BR   UNL     1       2.874   2.221  17.338  0.00  0.00    +0.000 Br
ENDBRANCH  15  17
ENDBRANCH   1  15
TORSDOF 4
ENDMDL
MODEL 4
REMARK VINA RESULT:      -7.5      4.294      7.218
REMARK  Name = 
REMARK  4 active torsions:
REMARK  status: ('A' for Active; 'I' for Inactive)
REMARK    1  A    between atoms: S_2  and  N_4
REMARK    2  A    between atoms: S_2  and  C_16
REMARK    3  A    between atoms: N_4  and  C_5
REMARK    4  A    between atoms: C_9  and  N_10
REMARK                            x       y       z     vdW  Elec       q    Type
REMARK                         _______ _______ _______ _____ _____    ______ ____
ROOT
ATOM      1  N   UNL     1       3.726   5.309  19.483  0.00  0.00    +0.000 N 
ATOM      2  H   UNL     1       4.521   5.311  20.120  0.00  0.00    +0.000 HD
ENDROOT
BRANCH   1   3
ATOM      3  C   UNL     1       3.022   6.511  19.230  0.00  0.00    +0.000 A 
ATOM      4  C   UNL     1       3.096   7.108  17.975  0.00  0.00    +0.000 A 
ATOM      5  C   UNL     1       2.426   8.310  17.741  0.00  0.00    +0.000 A 
ATOM      6  C   UNL     1       1.704   8.920  18.766  0.00  0.00    +0.000 A 
ATOM      7  C   UNL     1       1.642   8.330  20.039  0.00  0.00    +0.000 A 
ATOM      8  C   UNL     1       2.297   7.111  20.266  0.00  0.00    +0.000 A 
BRANCH   7   9
ATOM      9  N   UNL     1       0.935   8.991  21.073  0.00  0.00    +0.000 N 
ATOM     10  C   UNL     1      -0.311   9.567  21.062  0.00  0.00    +0.000 A 
ATOM     11  N   UNL     1      -0.580  10.050  22.254  0.00  0.00    +0.000 NA
ATOM     12  N   UNL     1       0.516   9.769  23.025  0.00  0.00    +0.000 NA
ATOM     13  N   UNL     1       1.438   9.125  22.324  0.00  0.00    +0.000 NA
ENDBRANCH   7   9
ENDBRANCH   1   3
BRANCH   1  15
ATOM     14  O   UNL     1       4.063   2.842  19.100  0.00  0.00    +0.000 OA
ATOM     15  S   UNL     1       3.697   4.043  18.382  0.00  0.00    +0.000 S 
ATOM     16  O   UNL     1       2.438   4.116  17.668  0.00  0.00    +0.000 OA
BRANCH  15  17
ATOM     17  C   UNL     1       5.005   4.383  17.224  0.00  0.00    +0.000 A 
ATOM     18  C   UNL     1       4.769   4.088  15.871  0.00  0.00    +0.000 A 
ATOM     19  C   UNL     1       5.800   4.208  14.939  0.00  0.00    +0.000 A 
ATOM     20 BR   UNL     1       5.488   3.761  13.129  0.00  0.00    +0.000 Br
ATOM     21  C   UNL     1       7.065   4.628  15.335  0.00  0.00    +0.000 A 
ATOM     22  C   UNL     1       7.300   4.935  16.677  0.00  0.00    +0.000 A 
ATOM     23  C   UNL     1       6.275   4.811  17.629  0.00  0.00    +0.000 A 
ATOM     24 BR   UNL     1       6.737   5.275  19.412  0.00  0.00    +0.000 Br
ENDBRANCH  15  17
ENDBRANCH   1  15
TORSDOF 4
ENDMDL
MODEL 5
REMARK VINA RESULT:      -7.3      5.156      6.908
REMARK  Name = 
REMARK  4 active torsions:
REMARK  status: ('A' for Active; 'I' for Inactive)
REMARK    1  A    between atoms: S_2  and  N_4
REMARK    2  A    between atoms: S_2  and  C_16
REMARK    3  A    between atoms: N_4  and  C_5
REMARK    4  A    between atoms: C_9  and  N_10
REMARK                            x       y       z     vdW  Elec       q    Type
REMARK                         _______ _______ _______ _____ _____    ______ ____
ROOT
ATOM      1  N   UNL     1       1.403   8.464  17.878  0.00  0.00    +0.000 N 
ATOM      2  H   UNL     1       1.058   8.589  16.927  0.00  0.00    +0.000 HD
ENDROOT
BRANCH   1   3
ATOM      3  C   UNL     1       2.415   7.510  18.139  0.00  0.00    +0.000 A 
ATOM      4  C   UNL     1       3.619   7.566  17.442  0.00  0.00    +0.000 A 
ATOM      5  C   UNL     1       4.601   6.604  17.681  0.00  0.00    +0.000 A 
ATOM      6  C   UNL     1       4.369   5.579  18.599  0.00  0.00    +0.000 A 
ATOM      7  C   UNL     1       3.149   5.510  19.291  0.00  0.00    +0.000 A 
ATOM      8  C   UNL     1       2.172   6.490  19.066  0.00  0.00    +0.000 A 
BRANCH   7   9
ATOM      9  N   UNL     1       2.924   4.435  20.188  0.00  0.00    +0.000 N 
ATOM     10  C   UNL     1       3.382   3.142  20.147  0.00  0.00    +0.000 A 
ATOM     11  N   UNL     1       2.941   2.490  21.200  0.00  0.00    +0.000 NA
ATOM     12  N   UNL     1       2.197   3.393  21.912  0.00  0.00    +0.000 NA
ATOM     13  N   UNL     1       2.182   4.574  21.312  0.00  0.00    +0.000 NA
ENDBRANCH   7   9
ENDBRANCH   1   3
BRANCH   1  15
ATOM     14  O   UNL     1       1.160   9.259  20.255  0.00  0.00    +0.000 OA
ATOM     15  S   UNL     1       1.161   9.770  18.903  0.00  0.00    +0.000 S 
ATOM     16  O   UNL     1       2.093  10.809  18.511  0.00  0.00    +0.000 OA
BRANCH  15  17
ATOM     17  C   UNL     1      -0.485  10.354  18.560  0.00  0.00    +0.000 A 
ATOM     18  C   UNL     1      -1.086   9.939  17.361  0.00  0.00    +0.000 A 
ATOM     19  C   UNL     1      -2.318  10.467  16.976  0.00  0.00    +0.000 A 
ATOM     20 BR   UNL     1      -3.097   9.941  15.336  0.00  0.00    +0.000 Br
ATOM     21  C   UNL     1      -2.968  11.401  17.777  0.00  0.00    +0.000 A 
ATOM     22  C   UNL     1      -2.379  11.806  18.977  0.00  0.00    +0.000 A 
ATOM     23  C   UNL     1      -1.135  11.290  19.374  0.00  0.00    +0.000 A 
ATOM     24 BR   UNL     1      -0.465  11.923  21.034  0.00  0.00    +0.000 Br
ENDBRANCH  15  17
ENDBRANCH   1  15
TORSDOF 4
ENDMDL
MODEL 6
REMARK VINA RESULT:      -7.2      4.856      5.942
REMARK  Name = 
REMARK  4 active torsions:
REMARK  status: ('A' for Active; 'I' for Inactive)
REMARK    1  A    between atoms: S_2  and  N_4
REMARK    2  A    between atoms: S_2  and  C_16
REMARK    3  A    between atoms: N_4  and  C_5
REMARK    4  A    between atoms: C_9  and  N_10
REMARK                            x       y       z     vdW  Elec       q    Type
REMARK                         _______ _______ _______ _____ _____    ______ ____
ROOT
ATOM      1  N   UNL     1       1.566   9.133  17.806  0.00  0.00    +0.000 N 
ATOM      2  H   UNL     1       1.585   9.547  16.876  0.00  0.00    +0.000 HD
ENDROOT
BRANCH   1   3
ATOM      3  C   UNL     1       2.350   7.987  18.083  0.00  0.00    +0.000 A 
ATOM      4  C   UNL     1       1.941   7.085  19.061  0.00  0.00    +0.000 A 
ATOM      5  C   UNL     1       2.733   5.974  19.353  0.00  0.00    +0.000 A 
ATOM      6  C   UNL     1       3.942   5.781  18.682  0.00  0.00    +0.000 A 
ATOM      7  C   UNL     1       4.366   6.698  17.707  0.00  0.00    +0.000 A 
ATOM      8  C   UNL     1       3.557   7.801  17.400  0.00  0.00    +0.000 A 
BRANCH   7   9
ATOM      9  N   UNL     1       5.616   6.499  17.070  0.00  0.00    +0.000 N 
ATOM     10  C   UNL     1       5.999   5.548  16.157  0.00  0.00    +0.000 A 
ATOM     11  N   UNL     1       7.251   5.752  15.814  0.00  0.00    +0.000 NA
ATOM     12  N   UNL     1       7.657   6.852  16.522  0.00  0.00    +0.000 NA
ATOM     13  N   UNL     1       6.675   7.316  17.283  0.00  0.00    +0.000 NA
ENDBRANCH   7   9
ENDBRANCH   1   3
BRANCH   1  15
ATOM     14  O   UNL     1       1.061   9.392  20.260  0.00  0.00    +0.000 OA
ATOM     15  S   UNL     1       1.077  10.163  19.037  0.00  0.00    +0.000 S 
ATOM     16  O   UNL     1       1.878  11.367  18.940  0.00  0.00    +0.000 OA
BRANCH  15  17
ATOM     17  C   UNL     1      -0.608  10.594  18.664  0.00  0.00    +0.000 A 
ATOM     18  C   UNL     1      -1.149  10.124  17.456  0.00  0.00    +0.000 A 
ATOM     19  C   UNL     1      -2.417  10.538  17.049  0.00  0.00    +0.000 A 
ATOM     20 BR   UNL     1      -3.116   9.939  15.398  0.00  0.00    +0.000 Br
ATOM     21  C   UNL     1      -3.162  11.410  17.835  0.00  0.00    +0.000 A 
ATOM     22  C   UNL     1      -2.633  11.870  19.043  0.00  0.00    +0.000 A 
ATOM     23  C   UNL     1      -1.354  11.470  19.463  0.00  0.00    +0.000 A 
ATOM     24 BR   UNL     1      -0.773  12.165  21.132  0.00  0.00    +0.000 Br
ENDBRANCH  15  17
ENDBRANCH   1  15
TORSDOF 4
ENDMDL
MODEL 7
REMARK VINA RESULT:      -7.2      5.170      7.842
REMARK  Name = 
REMARK  4 active torsions:
REMARK  status: ('A' for Active; 'I' for Inactive)
REMARK    1  A    between atoms: S_2  and  N_4
REMARK    2  A    between atoms: S_2  and  C_16
REMARK    3  A    between atoms: N_4  and  C_5
REMARK    4  A    between atoms: C_9  and  N_10
REMARK                            x       y       z     vdW  Elec       q    Type
REMARK                         _______ _______ _______ _____ _____    ______ ____
ROOT
ATOM      1  N   UNL     1       2.660   6.758  20.506  0.00  0.00    +0.000 N 
ATOM      2  H   UNL     1       3.657   6.879  20.677  0.00  0.00    +0.000 HD
ENDROOT
BRANCH   1   3
ATOM      3  C   UNL     1       1.893   7.841  20.015  0.00  0.00    +0.000 A 
ATOM      4  C   UNL     1       1.986   8.209  18.676  0.00  0.00    +0.000 A 
ATOM      5  C   UNL     1       1.252   9.297  18.204  0.00  0.00    +0.000 A 
ATOM      6  C   UNL     1       0.444  10.028  19.077  0.00  0.00    +0.000 A 
ATOM      7  C   UNL     1       0.361   9.671  20.432  0.00  0.00    +0.000 A 
ATOM      8  C   UNL     1       1.082   8.563  20.899  0.00  0.00    +0.000 A 
BRANCH   7   9
ATOM      9  N   UNL     1      -0.436  10.453  21.305  0.00  0.00    +0.000 N 
ATOM     10  C   UNL     1      -0.604  10.364  22.664  0.00  0.00    +0.000 A 
ATOM     11  N   UNL     1      -1.422  11.310  23.066  0.00  0.00    +0.000 NA
ATOM     12  N   UNL     1      -1.769  12.005  21.939  0.00  0.00    +0.000 NA
ATOM     13  N   UNL     1      -1.176  11.499  20.867  0.00  0.00    +0.000 NA
ENDBRANCH   7   9
ENDBRANCH   1   3
BRANCH   1  15
ATOM     14  O   UNL     1       2.497   4.437  21.472  0.00  0.00    +0.000 OA
ATOM     15  S   UNL     1       2.164   5.172  20.272  0.00  0.00    +0.000 S 
ATOM     16  O   UNL     1       0.798   5.210  19.790  0.00  0.00    +0.000 OA
BRANCH  15  17
ATOM     17  C   UNL     1       3.189   4.535  18.964  0.00  0.00    +0.000 A 
ATOM     18  C   UNL     1       4.262   5.330  18.531  0.00  0.00    +0.000 A 
ATOM     19  C   UNL     1       5.017   4.944  17.423  0.00  0.00    +0.000 A 
ATOM     20 BR   UNL     1       6.428   6.046  16.817  0.00  0.00    +0.000 Br
ATOM     21  C   UNL     1       4.723   3.768  16.743  0.00  0.00    +0.000 A 
ATOM     22  C   UNL     1       3.665   2.967  17.179  0.00  0.00    +0.000 A 
ATOM     23  C   UNL     1       2.889   3.346  18.286  0.00  0.00    +0.000 A 
ATOM     24 BR   UNL     1       1.493   2.153  18.770  0.00  0.00    +0.000 Br
ENDBRANCH  15  17
ENDBRANCH   1  15
TORSDOF 4
ENDMDL
MODEL 8
REMARK VINA RESULT:      -7.1      5.036      6.770
REMARK  Name = 
REMARK  4 active torsions:
REMARK  status: ('A' for Active; 'I' for Inactive)
REMARK    1  A    between atoms: S_2  and  N_4
REMARK    2  A    between atoms: S_2  and  C_16
REMARK    3  A    between atoms: N_4  and  C_5
REMARK    4  A    between atoms: C_9  and  N_10
REMARK                            x       y       z     vdW  Elec       q    Type
REMARK                         _______ _______ _______ _____ _____    ______ ____
ROOT
ATOM      1  N   UNL     1       1.426   8.791  17.633  0.00  0.00    +0.000 N 
ATOM      2  H   UNL     1       1.289   9.176  16.700  0.00  0.00    +0.000 HD
ENDROOT
BRANCH   1   3
ATOM      3  C   UNL     1       2.293   7.688  17.819  0.00  0.00    +0.000 A 
ATOM      4  C   UNL     1       3.648   7.812  17.527  0.00  0.00    +0.000 A 
ATOM      5  C   UNL     1       4.493   6.712  17.682  0.00  0.00    +0.000 A 
ATOM      6  C   UNL     1       3.977   5.487  18.107  0.00  0.00    +0.000 A 
ATOM      7  C   UNL     1       2.607   5.354  18.386  0.00  0.00    +0.000 A 
ATOM      8  C   UNL     1       1.764   6.466  18.251  0.00  0.00    +0.000 A 
BRANCH   7   9
ATOM      9  N   UNL     1       2.102   4.088  18.778  0.00  0.00    +0.000 N 
ATOM     10  C   UNL     1       2.283   3.390  19.946  0.00  0.00    +0.000 A 
ATOM     11  N   UNL     1       1.610   2.263  19.888  0.00  0.00    +0.000 NA
ATOM     12  N   UNL     1       0.996   2.258  18.664  0.00  0.00    +0.000 NA
ATOM     13  N   UNL     1       1.283   3.359  17.984  0.00  0.00    +0.000 NA
ENDBRANCH   7   9
ENDBRANCH   1   3
BRANCH   1  15
ATOM     14  O   UNL     1       1.054   9.053  20.110  0.00  0.00    +0.000 OA
ATOM     15  S   UNL     1       1.078   9.839  18.897  0.00  0.00    +0.000 S 
ATOM     16  O   UNL     1       1.968  10.976  18.776  0.00  0.00    +0.000 OA
BRANCH  15  17
ATOM     17  C   UNL     1      -0.583  10.409  18.606  0.00  0.00    +0.000 A 
ATOM     18  C   UNL     1      -1.198  10.037  17.400  0.00  0.00    +0.000 A 
ATOM     19  C   UNL     1      -2.444  10.561  17.059  0.00  0.00    +0.000 A 
ATOM     20 BR   UNL     1      -3.242  10.093  15.411  0.00  0.00    +0.000 Br
ATOM     21  C   UNL     1      -3.094  11.448  17.909  0.00  0.00    +0.000 A 
ATOM     22  C   UNL     1      -2.492  11.811  19.116  0.00  0.00    +0.000 A 
ATOM     23  C   UNL     1      -1.233  11.299  19.470  0.00  0.00    +0.000 A 
ATOM     24 BR   UNL     1      -0.545  11.871  21.145  0.00  0.00    +0.000 Br
ENDBRANCH  15  17
ENDBRANCH   1  15
TORSDOF 4
ENDMDL
MODEL 9
REMARK VINA RESULT:      -7.0      4.290      7.351
REMARK  Name = 
REMARK  4 active torsions:
REMARK  status: ('A' for Active; 'I' for Inactive)
REMARK    1  A    between atoms: S_2  and  N_4
REMARK    2  A    between atoms: S_2  and  C_16
REMARK    3  A    between atoms: N_4  and  C_5
REMARK    4  A    between atoms: C_9  and  N_10
REMARK                            x       y       z     vdW  Elec       q    Type
REMARK                         _______ _______ _______ _____ _____    ______ ____
ROOT
ATOM      1  N   UNL     1       3.742   5.832  17.681  0.00  0.00    +0.000 N 
ATOM      2  H   UNL     1       3.657   6.471  16.892  0.00  0.00    +0.000 HD
ENDROOT
BRANCH   1   3
ATOM      3  C   UNL     1       2.924   6.011  18.822  0.00  0.00    +0.000 A 
ATOM      4  C   UNL     1       2.440   4.902  19.510  0.00  0.00    +0.000 A 
ATOM      5  C   UNL     1       1.607   5.083  20.615  0.00  0.00    +0.000 A 
ATOM      6  C   UNL     1       1.244   6.369  21.016  0.00  0.00    +0.000 A 
ATOM      7  C   UNL     1       1.717   7.490  20.313  0.00  0.00    +0.000 A 
ATOM      8  C   UNL     1       2.571   7.306  19.217  0.00  0.00    +0.000 A 
BRANCH   7   9
ATOM      9  N   UNL     1       1.301   8.783  20.717  0.00  0.00    +0.000 N 
ATOM     10  C   UNL     1       1.161   9.312  21.975  0.00  0.00    +0.000 A 
ATOM     11  N   UNL     1       0.768  10.563  21.882  0.00  0.00    +0.000 NA
ATOM     12  N   UNL     1       0.664  10.821  20.541  0.00  0.00    +0.000 NA
ATOM     13  N   UNL     1       0.987   9.754  19.825  0.00  0.00    +0.000 NA
ENDBRANCH   7   9
ENDBRANCH   1   3
BRANCH   1  15
ATOM     14  O   UNL     1       5.230   3.949  18.445  0.00  0.00    +0.000 OA
ATOM     15  S   UNL     1       4.406   4.334  17.320  0.00  0.00    +0.000 S 
ATOM     16  O   UNL     1       3.327   3.477  16.873  0.00  0.00    +0.000 OA
BRANCH  15  17
ATOM     17  C   UNL     1       5.495   4.610  15.940  0.00  0.00    +0.000 A 
ATOM     18  C   UNL     1       5.201   3.949  14.737  0.00  0.00    +0.000 A 
ATOM     19  C   UNL     1       6.089   4.021  13.664  0.00  0.00    +0.000 A 
ATOM     20 BR   UNL     1       5.710   3.087  12.065  0.00  0.00    +0.000 Br
ATOM     21  C   UNL     1       7.267   4.752  13.769  0.00  0.00    +0.000 A 
ATOM     22  C   UNL     1       7.557   5.422  14.960  0.00  0.00    +0.000 A 
ATOM     23  C   UNL     1       6.678   5.352  16.053  0.00  0.00    +0.000 A 
ATOM     24 BR   UNL     1       7.196   6.323  17.600  0.00  0.00    +0.000 Br
ENDBRANCH  15  17
ENDBRANCH   1  15
TORSDOF 4
ENDMDL
