MODEL 1
REMARK VINA RESULT:      -7.7      0.000      0.000
REMARK  Name = 
REMARK  6 active torsions:
REMARK  status: ('A' for Active; 'I' for Inactive)
REMARK    1  A    between atoms: C_1  and  C_2
REMARK    2  A    between atoms: C_5  and  C_6
REMARK    3  A    between atoms: C_10  and  C_12
REMARK    4  A    between atoms: C_12  and  N_13
REMARK    5  A    between atoms: N_16  and  C_17
REMARK    6  A    between atoms: C_21  and  N_22
REMARK                            x       y       z     vdW  Elec       q    Type
REMARK                         _______ _______ _______ _____ _____    ______ ____
ROOT
ATOM      1  C   UNL     1       3.881   4.810  18.166  0.00  0.00    +0.000 A 
ATOM      2  N   UNL     1       3.349   6.030  18.340  0.00  0.00    +0.000 NA
ATOM      3  C   UNL     1       3.626   6.963  17.423  0.00  0.00    +0.000 A 
ATOM      4  N   UNL     1       3.084   8.257  17.525  0.00  0.00    +0.000 N 
ATOM      5  C   UNL     1       2.229   8.682  18.525  0.00  0.00    +0.000 C 
ATOM      6  O   UNL     1       1.822   8.012  19.473  0.00  0.00    +0.000 OA
ATOM      7  C   UNL     1       4.461   6.702  16.351  0.00  0.00    +0.000 A 
ATOM      8  C   UNL     1       4.945   5.409  16.245  0.00  0.00    +0.000 A 
ATOM      9  N   UNL     1       4.647   4.439  17.132  0.00  0.00    +0.000 NA
ATOM     10  H   UNL     1       3.290   8.911  16.785  0.00  0.00    +0.000 HD
ENDROOT
BRANCH   1  15
ATOM     11  C   UNL     1       1.356   2.710  21.680  0.00  0.00    +0.000 C 
ATOM     12  C   UNL     1       2.567   2.882  20.859  0.00  0.00    +0.000 A 
ATOM     13  C   UNL     1       3.766   2.201  20.773  0.00  0.00    +0.000 A 
ATOM     14  C   UNL     1       4.514   2.843  19.756  0.00  0.00    +0.000 A 
ATOM     15  C   UNL     1       3.727   3.867  19.263  0.00  0.00    +0.000 A 
ATOM     16  O   UNL     1       2.546   3.904  19.957  0.00  0.00    +0.000 OA
ENDBRANCH   1  15
BRANCH   8  17
ATOM     17  N   UNL     1       5.831   5.081  15.177  0.00  0.00    +0.000 N 
ATOM     18  C   UNL     1       5.574   4.209  14.140  0.00  0.00    +0.000 A 
ATOM     19  C   UNL     1       6.719   4.132  13.385  0.00  0.00    +0.000 A 
ATOM     20  C   UNL     1       7.621   4.992  14.028  0.00  0.00    +0.000 A 
ATOM     21  N   UNL     1       7.089   5.598  15.093  0.00  0.00    +0.000 NA
ENDBRANCH   8  17
BRANCH   5  22
ATOM     22  C   UNL     1       1.781  10.150  18.378  0.00  0.00    +0.000 C 
BRANCH  22  23
ATOM     23  N   UNL     1       0.689  10.505  19.311  0.00  0.00    +0.000 NA
ATOM     24  C   UNL     1      -0.497  10.974  18.551  0.00  0.00    +0.000 C 
ATOM     25  C   UNL     1      -1.673  11.412  19.466  0.00  0.00    +0.000 C 
ATOM     26  N   UNL     1      -1.332  12.358  20.546  0.00  0.00    +0.000 NA
ATOM     27  C   UNL     1      -1.234  13.734  20.062  0.00  0.00    +0.000 C 
ATOM     28  C   UNL     1      -0.086  11.926  21.207  0.00  0.00    +0.000 C 
ATOM     29  C   UNL     1       1.077  11.587  20.245  0.00  0.00    +0.000 C 
ENDBRANCH  22  23
ENDBRANCH   5  22
TORSDOF 4
ENDMDL
MODEL 2
REMARK VINA RESULT:      -7.4      5.420      7.720
REMARK  Name = 
REMARK  6 active torsions:
REMARK  status: ('A' for Active; 'I' for Inactive)
REMARK    1  A    between atoms: C_1  and  C_2
REMARK    2  A    between atoms: C_5  and  C_6
REMARK    3  A    between atoms: C_10  and  C_12
REMARK    4  A    between atoms: C_12  and  N_13
REMARK    5  A    between atoms: N_16  and  C_17
REMARK    6  A    between atoms: C_21  and  N_22
REMARK                            x       y       z     vdW  Elec       q    Type
REMARK                         _______ _______ _______ _____ _____    ______ ____
ROOT
ATOM      1  C   UNL     1       6.715   4.913  15.962  0.00  0.00    +0.000 A 
ATOM      2  N   UNL     1       7.187   6.052  16.491  0.00  0.00    +0.000 NA
ATOM      3  C   UNL     1       6.852   6.334  17.755  0.00  0.00    +0.000 A 
ATOM      4  N   UNL     1       7.330   7.498  18.384  0.00  0.00    +0.000 N 
ATOM      5  C   UNL     1       8.175   8.425  17.803  0.00  0.00    +0.000 C 
ATOM      6  O   UNL     1       8.627   8.386  16.659  0.00  0.00    +0.000 OA
ATOM      7  C   UNL     1       6.018   5.507  18.486  0.00  0.00    +0.000 A 
ATOM      8  C   UNL     1       5.598   4.345  17.863  0.00  0.00    +0.000 A 
ATOM      9  N   UNL     1       5.955   4.016  16.605  0.00  0.00    +0.000 NA
ATOM     10  H   UNL     1       7.082   7.642  19.352  0.00  0.00    +0.000 HD
ENDROOT
BRANCH   1  15
ATOM     11  C   UNL     1       5.744   2.829  11.737  0.00  0.00    +0.000 C 
ATOM     12  C   UNL     1       6.473   3.783  12.592  0.00  0.00    +0.000 A 
ATOM     13  C   UNL     1       7.393   4.780  12.337  0.00  0.00    +0.000 A 
ATOM     14  C   UNL     1       7.694   5.370  13.590  0.00  0.00    +0.000 A 
ATOM     15  C   UNL     1       6.930   4.715  14.538  0.00  0.00    +0.000 A 
ATOM     16  O   UNL     1       6.201   3.728  13.927  0.00  0.00    +0.000 OA
ENDBRANCH   1  15
BRANCH   8  17
ATOM     17  N   UNL     1       4.717   3.462  18.553  0.00  0.00    +0.000 N 
ATOM     18  C   UNL     1       3.573   2.884  18.041  0.00  0.00    +0.000 A 
ATOM     19  C   UNL     1       2.991   2.172  19.061  0.00  0.00    +0.000 A 
ATOM     20  C   UNL     1       3.847   2.364  20.155  0.00  0.00    +0.000 A 
ATOM     21  N   UNL     1       4.911   3.113  19.855  0.00  0.00    +0.000 NA
ENDBRANCH   8  17
BRANCH   5  22
ATOM     22  C   UNL     1       8.547   9.597  18.732  0.00  0.00    +0.000 C 
BRANCH  22  23
ATOM     23  N   UNL     1       9.334  10.641  18.040  0.00  0.00    +0.000 NA
ATOM     24  C   UNL     1      10.634  10.839  18.728  0.00  0.00    +0.000 C 
ATOM     25  C   UNL     1      11.500  11.957  18.086  0.00  0.00    +0.000 C 
ATOM     26  N   UNL     1      10.822  13.248  17.862  0.00  0.00    +0.000 NA
ATOM     27  C   UNL     1      10.744  14.049  19.081  0.00  0.00    +0.000 C 
ATOM     28  C   UNL     1       9.486  13.011  17.282  0.00  0.00    +0.000 C 
ATOM     29  C   UNL     1       8.637  11.949  18.018  0.00  0.00    +0.000 C 
ENDBRANCH  22  23
ENDBRANCH   5  22
TORSDOF 4
ENDMDL
MODEL 3
REMARK VINA RESULT:      -7.3      4.276      7.028
REMARK  Name = 
REMARK  6 active torsions:
REMARK  status: ('A' for Active; 'I' for Inactive)
REMARK    1  A    between atoms: C_1  and  C_2
REMARK    2  A    between atoms: C_5  and  C_6
REMARK    3  A    between atoms: C_10  and  C_12
REMARK    4  A    between atoms: C_12  and  N_13
REMARK    5  A    between atoms: N_16  and  C_17
REMARK    6  A    between atoms: C_21  and  N_22
REMARK                            x       y       z     vdW  Elec       q    Type
REMARK                         _______ _______ _______ _____ _____    ______ ____
ROOT
ATOM      1  C   UNL     1       6.504   4.927  15.526  0.00  0.00    +0.000 A 
ATOM      2  N   UNL     1       5.894   4.032  16.320  0.00  0.00    +0.000 NA
ATOM      3  C   UNL     1       5.853   4.294  17.631  0.00  0.00    +0.000 A 
ATOM      4  N   UNL     1       5.209   3.415  18.521  0.00  0.00    +0.000 N 
ATOM      5  C   UNL     1       4.559   2.251  18.155  0.00  0.00    +0.000 C 
ATOM      6  O   UNL     1       4.451   1.800  17.016  0.00  0.00    +0.000 OA
ATOM      7  C   UNL     1       6.450   5.422  18.165  0.00  0.00    +0.000 A 
ATOM      8  C   UNL     1       7.037   6.295  17.266  0.00  0.00    +0.000 A 
ATOM      9  N   UNL     1       7.054   6.077  15.936  0.00  0.00    +0.000 NA
ATOM     10  H   UNL     1       5.171   3.679  19.494  0.00  0.00    +0.000 HD
ENDROOT
BRANCH   1  15
ATOM     11  C   UNL     1       5.394   2.401  11.586  0.00  0.00    +0.000 C 
ATOM     12  C   UNL     1       6.185   3.404  12.321  0.00  0.00    +0.000 A 
ATOM     13  C   UNL     1       7.170   4.299  11.952  0.00  0.00    +0.000 A 
ATOM     14  C   UNL     1       7.511   5.019  13.123  0.00  0.00    +0.000 A 
ATOM     15  C   UNL     1       6.704   4.539  14.139  0.00  0.00    +0.000 A 
ATOM     16  O   UNL     1       5.911   3.534  13.650  0.00  0.00    +0.000 OA
ENDBRANCH   1  15
BRANCH   8  17
ATOM     17  N   UNL     1       7.691   7.464  17.753  0.00  0.00    +0.000 N 
ATOM     18  C   UNL     1       8.505   7.542  18.865  0.00  0.00    +0.000 A 
ATOM     19  C   UNL     1       8.860   8.861  19.013  0.00  0.00    +0.000 A 
ATOM     20  C   UNL     1       8.226   9.515  17.946  0.00  0.00    +0.000 A 
ATOM     21  N   UNL     1       7.544   8.680  17.158  0.00  0.00    +0.000 NA
ENDBRANCH   8  17
BRANCH   5  22
ATOM     22  C   UNL     1       3.931   1.491  19.341  0.00  0.00    +0.000 C 
BRANCH  22  23
ATOM     23  N   UNL     1       2.694   2.136  19.836  0.00  0.00    +0.000 NA
ATOM     24  C   UNL     1       2.167   3.074  18.814  0.00  0.00    +0.000 C 
ATOM     25  C   UNL     1       0.891   3.828  19.280  0.00  0.00    +0.000 C 
ATOM     26  N   UNL     1       0.975   4.480  20.601  0.00  0.00    +0.000 NA
ATOM     27  C   UNL     1       1.674   5.762  20.539  0.00  0.00    +0.000 C 
ATOM     28  C   UNL     1       1.608   3.563  21.567  0.00  0.00    +0.000 C 
ATOM     29  C   UNL     1       2.922   2.910  21.078  0.00  0.00    +0.000 C 
ENDBRANCH  22  23
ENDBRANCH   5  22
TORSDOF 4
ENDMDL
MODEL 4
REMARK VINA RESULT:      -7.3      2.019      4.882
REMARK  Name = 
REMARK  6 active torsions:
REMARK  status: ('A' for Active; 'I' for Inactive)
REMARK    1  A    between atoms: C_1  and  C_2
REMARK    2  A    between atoms: C_5  and  C_6
REMARK    3  A    between atoms: C_10  and  C_12
REMARK    4  A    between atoms: C_12  and  N_13
REMARK    5  A    between atoms: N_16  and  C_17
REMARK    6  A    between atoms: C_21  and  N_22
REMARK                            x       y       z     vdW  Elec       q    Type
REMARK                         _______ _______ _______ _____ _____    ______ ____
ROOT
ATOM      1  C   UNL     1       4.242   5.714  17.958  0.00  0.00    +0.000 A 
ATOM      2  N   UNL     1       3.528   6.849  17.899  0.00  0.00    +0.000 NA
ATOM      3  C   UNL     1       2.489   6.972  18.732  0.00  0.00    +0.000 A 
ATOM      4  N   UNL     1       1.710   8.143  18.745  0.00  0.00    +0.000 N 
ATOM      5  C   UNL     1       1.935   9.254  17.953  0.00  0.00    +0.000 C 
ATOM      6  O   UNL     1       2.828   9.389  17.118  0.00  0.00    +0.000 OA
ATOM      7  C   UNL     1       2.129   5.954  19.597  0.00  0.00    +0.000 A 
ATOM      8  C   UNL     1       2.936   4.830  19.601  0.00  0.00    +0.000 A 
ATOM      9  N   UNL     1       4.015   4.699  18.803  0.00  0.00    +0.000 NA
ATOM     10  H   UNL     1       0.963   8.201  19.421  0.00  0.00    +0.000 HD
ENDROOT
BRANCH   1  15
ATOM     11  C   UNL     1       5.764   3.940  13.754  0.00  0.00    +0.000 C 
ATOM     12  C   UNL     1       5.942   4.730  14.986  0.00  0.00    +0.000 A 
ATOM     13  C   UNL     1       6.945   5.557  15.451  0.00  0.00    +0.000 A 
ATOM     14  C   UNL     1       6.501   6.053  16.702  0.00  0.00    +0.000 A 
ATOM     15  C   UNL     1       5.245   5.518  16.924  0.00  0.00    +0.000 A 
ATOM     16  O   UNL     1       4.916   4.690  15.883  0.00  0.00    +0.000 OA
ENDBRANCH   1  15
BRANCH   8  17
ATOM     17  N   UNL     1       2.606   3.736  20.452  0.00  0.00    +0.000 N 
ATOM     18  C   UNL     1       1.432   3.574  21.158  0.00  0.00    +0.000 A 
ATOM     19  C   UNL     1       1.563   2.427  21.902  0.00  0.00    +0.000 A 
ATOM     20  C   UNL     1       2.843   1.949  21.585  0.00  0.00    +0.000 A 
ATOM     21  N   UNL     1       3.472   2.710  20.685  0.00  0.00    +0.000 NA
ENDBRANCH   8  17
BRANCH   5  22
ATOM     22  C   UNL     1       0.930  10.400  18.189  0.00  0.00    +0.000 C 
BRANCH  22  23
ATOM     23  N   UNL     1       1.068  11.006  19.532  0.00  0.00    +0.000 NA
ATOM     24  C   UNL     1      -0.112  10.665  20.365  0.00  0.00    +0.000 C 
ATOM     25  C   UNL     1      -0.064  11.307  21.780  0.00  0.00    +0.000 C 
ATOM     26  N   UNL     1       0.209  12.756  21.820  0.00  0.00    +0.000 NA
ATOM     27  C   UNL     1      -0.983  13.551  21.532  0.00  0.00    +0.000 C 
ATOM     28  C   UNL     1       1.312  13.078  20.895  0.00  0.00    +0.000 C 
ATOM     29  C   UNL     1       1.164  12.483  19.475  0.00  0.00    +0.000 C 
ENDBRANCH  22  23
ENDBRANCH   5  22
TORSDOF 4
ENDMDL
MODEL 5
REMARK VINA RESULT:      -7.2      1.131      1.291
REMARK  Name = 
REMARK  6 active torsions:
REMARK  status: ('A' for Active; 'I' for Inactive)
REMARK    1  A    between atoms: C_1  and  C_2
REMARK    2  A    between atoms: C_5  and  C_6
REMARK    3  A    between atoms: C_10  and  C_12
REMARK    4  A    between atoms: C_12  and  N_13
REMARK    5  A    between atoms: N_16  and  C_17
REMARK    6  A    between atoms: C_21  and  N_22
REMARK                            x       y       z     vdW  Elec       q    Type
REMARK                         _______ _______ _______ _____ _____    ______ ____
ROOT
ATOM      1  C   UNL     1       2.737   5.151  17.972  0.00  0.00    +0.000 A 
ATOM      2  N   UNL     1       2.397   6.423  18.234  0.00  0.00    +0.000 NA
ATOM      3  C   UNL     1       3.123   7.388  17.658  0.00  0.00    +0.000 A 
ATOM      4  N   UNL     1       2.811   8.744  17.866  0.00  0.00    +0.000 N 
ATOM      5  C   UNL     1       1.758   9.208  18.633  0.00  0.00    +0.000 C 
ATOM      6  O   UNL     1       0.947   8.521  19.254  0.00  0.00    +0.000 OA
ATOM      7  C   UNL     1       4.210   7.098  16.853  0.00  0.00    +0.000 A 
ATOM      8  C   UNL     1       4.470   5.758  16.625  0.00  0.00    +0.000 A 
ATOM      9  N   UNL     1       3.729   4.765  17.158  0.00  0.00    +0.000 NA
ATOM     10  H   UNL     1       3.363   9.432  17.376  0.00  0.00    +0.000 HD
ENDROOT
BRANCH   1  15
ATOM     11  C   UNL     1       1.814   2.795  22.063  0.00  0.00    +0.000 C 
ATOM     12  C   UNL     1       1.617   3.054  20.625  0.00  0.00    +0.000 A 
ATOM     13  C   UNL     1       0.739   2.561  19.679  0.00  0.00    +0.000 A 
ATOM     14  C   UNL     1       1.036   3.239  18.472  0.00  0.00    +0.000 A 
ATOM     15  C   UNL     1       2.064   4.122  18.748  0.00  0.00    +0.000 A 
ATOM     16  O   UNL     1       2.433   3.988  20.061  0.00  0.00    +0.000 OA
ENDBRANCH   1  15
BRANCH   8  17
ATOM     17  N   UNL     1       5.590   5.390  15.825  0.00  0.00    +0.000 N 
ATOM     18  C   UNL     1       5.571   4.560  14.723  0.00  0.00    +0.000 A 
ATOM     19  C   UNL     1       6.872   4.418  14.303  0.00  0.00    +0.000 A 
ATOM     20  C   UNL     1       7.616   5.198  15.200  0.00  0.00    +0.000 A 
ATOM     21  N   UNL     1       6.853   5.819  16.104  0.00  0.00    +0.000 NA
ENDBRANCH   8  17
BRANCH   5  22
ATOM     22  C   UNL     1       1.647  10.745  18.673  0.00  0.00    +0.000 C 
BRANCH  22  23
ATOM     23  N   UNL     1       0.525  11.210  19.518  0.00  0.00    +0.000 NA
ATOM     24  C   UNL     1      -0.443  11.981  18.699  0.00  0.00    +0.000 C 
ATOM     25  C   UNL     1      -1.630  12.546  19.528  0.00  0.00    +0.000 C 
ATOM     26  N   UNL     1      -1.266  13.287  20.751  0.00  0.00    +0.000 NA
ATOM     27  C   UNL     1      -0.854  14.659  20.462  0.00  0.00    +0.000 C 
ATOM     28  C   UNL     1      -0.220  12.549  21.484  0.00  0.00    +0.000 C 
ATOM     29  C   UNL     1       0.978  12.090  20.621  0.00  0.00    +0.000 C 
ENDBRANCH  22  23
ENDBRANCH   5  22
TORSDOF 4
ENDMDL
MODEL 6
REMARK VINA RESULT:      -7.1      2.182      5.036
REMARK  Name = 
REMARK  6 active torsions:
REMARK  status: ('A' for Active; 'I' for Inactive)
REMARK    1  A    between atoms: C_1  and  C_2
REMARK    2  A    between atoms: C_5  and  C_6
REMARK    3  A    between atoms: C_10  and  C_12
REMARK    4  A    between atoms: C_12  and  N_13
REMARK    5  A    between atoms: N_16  and  C_17
REMARK    6  A    between atoms: C_21  and  N_22
REMARK                            x       y       z     vdW  Elec       q    Type
REMARK                         _______ _______ _______ _____ _____    ______ ____
ROOT
ATOM      1  C   UNL     1       4.238   5.821  18.045  0.00  0.00    +0.000 A 
ATOM      2  N   UNL     1       3.539   6.966  18.008  0.00  0.00    +0.000 NA
ATOM      3  C   UNL     1       2.494   7.081  18.835  0.00  0.00    +0.000 A 
ATOM      4  N   UNL     1       1.730   8.261  18.870  0.00  0.00    +0.000 N 
ATOM      5  C   UNL     1       1.975   9.388  18.108  0.00  0.00    +0.000 C 
ATOM      6  O   UNL     1       2.876   9.532  17.284  0.00  0.00    +0.000 OA
ATOM      7  C   UNL     1       2.115   6.047  19.672  0.00  0.00    +0.000 A 
ATOM      8  C   UNL     1       2.909   4.913  19.654  0.00  0.00    +0.000 A 
ATOM      9  N   UNL     1       3.992   4.789  18.862  0.00  0.00    +0.000 NA
ATOM     10  H   UNL     1       0.977   8.312  19.542  0.00  0.00    +0.000 HD
ENDROOT
BRANCH   1  15
ATOM     11  C   UNL     1       5.826   4.006  13.882  0.00  0.00    +0.000 C 
ATOM     12  C   UNL     1       5.974   4.831  15.095  0.00  0.00    +0.000 A 
ATOM     13  C   UNL     1       6.945   5.707  15.539  0.00  0.00    +0.000 A 
ATOM     14  C   UNL     1       6.483   6.216  16.778  0.00  0.00    +0.000 A 
ATOM     15  C   UNL     1       5.248   5.639  17.015  0.00  0.00    +0.000 A 
ATOM     16  O   UNL     1       4.951   4.774  15.994  0.00  0.00    +0.000 OA
ENDBRANCH   1  15
BRANCH   8  17
ATOM     17  N   UNL     1       2.558   3.802  20.475  0.00  0.00    +0.000 N 
ATOM     18  C   UNL     1       1.368   3.629  21.153  0.00  0.00    +0.000 A 
ATOM     19  C   UNL     1       1.482   2.466  21.875  0.00  0.00    +0.000 A 
ATOM     20  C   UNL     1       2.767   1.992  21.575  0.00  0.00    +0.000 A 
ATOM     21  N   UNL     1       3.417   2.770  20.705  0.00  0.00    +0.000 NA
ENDBRANCH   8  17
BRANCH   5  22
ATOM     22  C   UNL     1       0.982  10.540  18.364  0.00  0.00    +0.000 C 
BRANCH  22  23
ATOM     23  N   UNL     1       1.575  11.631  19.168  0.00  0.00    +0.000 NA
ATOM     24  C   UNL     1       0.541  12.240  20.041  0.00  0.00    +0.000 C 
ATOM     25  C   UNL     1       1.078  13.429  20.885  0.00  0.00    +0.000 C 
ATOM     26  N   UNL     1       1.814  14.467  20.138  0.00  0.00    +0.000 NA
ATOM     27  C   UNL     1       0.916  15.395  19.455  0.00  0.00    +0.000 C 
ATOM     28  C   UNL     1       2.753  13.828  19.197  0.00  0.00    +0.000 C 
ATOM     29  C   UNL     1       2.137  12.710  18.322  0.00  0.00    +0.000 C 
ENDBRANCH  22  23
ENDBRANCH   5  22
TORSDOF 4
ENDMDL
MODEL 7
REMARK VINA RESULT:      -7.0      2.144      5.157
REMARK  Name = 
REMARK  6 active torsions:
REMARK  status: ('A' for Active; 'I' for Inactive)
REMARK    1  A    between atoms: C_1  and  C_2
REMARK    2  A    between atoms: C_5  and  C_6
REMARK    3  A    between atoms: C_10  and  C_12
REMARK    4  A    between atoms: C_12  and  N_13
REMARK    5  A    between atoms: N_16  and  C_17
REMARK    6  A    between atoms: C_21  and  N_22
REMARK                            x       y       z     vdW  Elec       q    Type
REMARK                         _______ _______ _______ _____ _____    ______ ____
ROOT
ATOM      1  C   UNL     1       3.724   6.300  17.944  0.00  0.00    +0.000 A 
ATOM      2  N   UNL     1       3.049   7.453  18.069  0.00  0.00    +0.000 NA
ATOM      3  C   UNL     1       2.152   7.541  19.057  0.00  0.00    +0.000 A 
ATOM      4  N   UNL     1       1.424   8.727  19.265  0.00  0.00    +0.000 N 
ATOM      5  C   UNL     1       1.565   9.885  18.522  0.00  0.00    +0.000 C 
ATOM      6  O   UNL     1       2.326  10.056  17.571  0.00  0.00    +0.000 OA
ATOM      7  C   UNL     1       1.892   6.475  19.899  0.00  0.00    +0.000 A 
ATOM      8  C   UNL     1       2.652   5.335  19.705  0.00  0.00    +0.000 A 
ATOM      9  N   UNL     1       3.593   5.234  18.745  0.00  0.00    +0.000 NA
ATOM     10  H   UNL     1       0.790   8.756  20.049  0.00  0.00    +0.000 HD
ENDROOT
BRANCH   1  15
ATOM     11  C   UNL     1       6.161   3.687  14.723  0.00  0.00    +0.000 C 
ATOM     12  C   UNL     1       5.652   4.960  15.264  0.00  0.00    +0.000 A 
ATOM     13  C   UNL     1       5.671   6.264  14.809  0.00  0.00    +0.000 A 
ATOM     14  C   UNL     1       4.976   7.031  15.777  0.00  0.00    +0.000 A 
ATOM     15  C   UNL     1       4.553   6.153  16.758  0.00  0.00    +0.000 A 
ATOM     16  O   UNL     1       4.990   4.890  16.453  0.00  0.00    +0.000 OA
ENDBRANCH   1  15
BRANCH   8  17
ATOM     17  N   UNL     1       2.417   4.192  20.524  0.00  0.00    +0.000 N 
ATOM     18  C   UNL     1       3.329   3.201  20.827  0.00  0.00    +0.000 A 
ATOM     19  C   UNL     1       2.666   2.259  21.576  0.00  0.00    +0.000 A 
ATOM     20  C   UNL     1       1.359   2.757  21.688  0.00  0.00    +0.000 A 
ATOM     21  N   UNL     1       1.202   3.939  21.086  0.00  0.00    +0.000 NA
ENDBRANCH   8  17
BRANCH   5  22
ATOM     22  C   UNL     1       0.647  11.035  18.983  0.00  0.00    +0.000 C 
BRANCH  22  23
ATOM     23  N   UNL     1      -0.788  10.710  18.827  0.00  0.00    +0.000 NA
ATOM     24  C   UNL     1      -0.994   9.886  17.610  0.00  0.00    +0.000 C 
ATOM     25  C   UNL     1      -2.487   9.543  17.351  0.00  0.00    +0.000 C 
ATOM     26  N   UNL     1      -3.424  10.683  17.380  0.00  0.00    +0.000 NA
ATOM     27  C   UNL     1      -3.411  11.439  16.130  0.00  0.00    +0.000 C 
ATOM     28  C   UNL     1      -3.120  11.544  18.538  0.00  0.00    +0.000 C 
ATOM     29  C   UNL     1      -1.628  11.924  18.692  0.00  0.00    +0.000 C 
ENDBRANCH  22  23
ENDBRANCH   5  22
TORSDOF 4
ENDMDL
MODEL 8
REMARK VINA RESULT:      -6.9      2.590      9.791
REMARK  Name = 
REMARK  6 active torsions:
REMARK  status: ('A' for Active; 'I' for Inactive)
REMARK    1  A    between atoms: C_1  and  C_2
REMARK    2  A    between atoms: C_5  and  C_6
REMARK    3  A    between atoms: C_10  and  C_12
REMARK    4  A    between atoms: C_12  and  N_13
REMARK    5  A    between atoms: N_16  and  C_17
REMARK    6  A    between atoms: C_21  and  N_22
REMARK                            x       y       z     vdW  Elec       q    Type
REMARK                         _______ _______ _______ _____ _____    ______ ____
ROOT
ATOM      1  C   UNL     1      -1.592  10.991  18.686  0.00  0.00    +0.000 A 
ATOM      2  N   UNL     1      -0.530  10.194  18.489  0.00  0.00    +0.000 NA
ATOM      3  C   UNL     1       0.455  10.241  19.393  0.00  0.00    +0.000 A 
ATOM      4  N   UNL     1       1.588   9.417  19.266  0.00  0.00    +0.000 N 
ATOM      5  C   UNL     1       1.790   8.495  18.255  0.00  0.00    +0.000 C 
ATOM      6  O   UNL     1       1.031   8.262  17.316  0.00  0.00    +0.000 OA
ATOM      7  C   UNL     1       0.409  11.104  20.473  0.00  0.00    +0.000 A 
ATOM      8  C   UNL     1      -0.735  11.871  20.603  0.00  0.00    +0.000 A 
ATOM      9  N   UNL     1      -1.761  11.813  19.730  0.00  0.00    +0.000 NA
ATOM     10  H   UNL     1       2.283   9.461  19.997  0.00  0.00    +0.000 HD
ENDROOT
BRANCH   1  15
ATOM     11  C   UNL     1      -3.125   9.995  14.237  0.00  0.00    +0.000 C 
ATOM     12  C   UNL     1      -3.282  10.594  15.575  0.00  0.00    +0.000 A 
ATOM     13  C   UNL     1      -4.324  11.231  16.218  0.00  0.00    +0.000 A 
ATOM     14  C   UNL     1      -3.856  11.545  17.517  0.00  0.00    +0.000 A 
ATOM     15  C   UNL     1      -2.561  11.067  17.605  0.00  0.00    +0.000 A 
ATOM     16  O   UNL     1      -2.204  10.507  16.406  0.00  0.00    +0.000 OA
ENDBRANCH   1  15
BRANCH   8  17
ATOM     17  N   UNL     1      -0.835  12.799  21.680  0.00  0.00    +0.000 N 
ATOM     18  C   UNL     1      -0.133  13.980  21.810  0.00  0.00    +0.000 A 
ATOM     19  C   UNL     1      -0.477  14.522  23.025  0.00  0.00    +0.000 A 
ATOM     20  C   UNL     1      -1.397  13.612  23.566  0.00  0.00    +0.000 A 
ATOM     21  N   UNL     1      -1.649  12.583  22.752  0.00  0.00    +0.000 NA
ENDBRANCH   8  17
BRANCH   5  22
ATOM     22  C   UNL     1       3.118   7.721  18.375  0.00  0.00    +0.000 C 
BRANCH  22  23
ATOM     23  N   UNL     1       2.966   6.284  18.058  0.00  0.00    +0.000 NA
ATOM     24  C   UNL     1       2.430   5.557  19.236  0.00  0.00    +0.000 C 
ATOM     25  C   UNL     1       2.286   4.029  18.996  0.00  0.00    +0.000 C 
ATOM     26  N   UNL     1       3.477   3.347  18.454  0.00  0.00    +0.000 NA
ATOM     27  C   UNL     1       4.468   3.062  19.489  0.00  0.00    +0.000 C 
ATOM     28  C   UNL     1       4.052   4.152  17.359  0.00  0.00    +0.000 C 
ATOM     29  C   UNL     1       4.253   5.650  17.690  0.00  0.00    +0.000 C 
ENDBRANCH  22  23
ENDBRANCH   5  22
TORSDOF 4
ENDMDL
MODEL 9
REMARK VINA RESULT:      -6.9      4.535      7.883
REMARK  Name = 
REMARK  6 active torsions:
REMARK  status: ('A' for Active; 'I' for Inactive)
REMARK    1  A    between atoms: C_1  and  C_2
REMARK    2  A    between atoms: C_5  and  C_6
REMARK    3  A    between atoms: C_10  and  C_12
REMARK    4  A    between atoms: C_12  and  N_13
REMARK    5  A    between atoms: N_16  and  C_17
REMARK    6  A    between atoms: C_21  and  N_22
REMARK                            x       y       z     vdW  Elec       q    Type
REMARK                         _______ _______ _______ _____ _____    ______ ____
ROOT
ATOM      1  C   UNL     1       0.587  10.715  18.771  0.00  0.00    +0.000 A 
ATOM      2  N   UNL     1      -0.712  10.771  18.437  0.00  0.00    +0.000 NA
ATOM      3  C   UNL     1      -1.228  11.973  18.157  0.00  0.00    +0.000 A 
ATOM      4  N   UNL     1      -2.575  12.106  17.775  0.00  0.00    +0.000 N 
ATOM      5  C   UNL     1      -3.467  11.059  17.631  0.00  0.00    +0.000 C 
ATOM      6  O   UNL     1      -3.232   9.867  17.822  0.00  0.00    +0.000 OA
ATOM      7  C   UNL     1      -0.470  13.126  18.244  0.00  0.00    +0.000 A 
ATOM      8  C   UNL     1       0.864  12.966  18.576  0.00  0.00    +0.000 A 
ATOM      9  N   UNL     1       1.420  11.763  18.822  0.00  0.00    +0.000 NA
ATOM     10  H   UNL     1      -2.904  13.030  17.533  0.00  0.00    +0.000 HD
ENDROOT
BRANCH   1  15
ATOM     11  C   UNL     1       3.016   6.596  18.250  0.00  0.00    +0.000 C 
ATOM     12  C   UNL     1       2.216   7.557  19.030  0.00  0.00    +0.000 A 
ATOM     13  C   UNL     1       1.832   7.624  20.355  0.00  0.00    +0.000 A 
ATOM     14  C   UNL     1       1.094   8.825  20.494  0.00  0.00    +0.000 A 
ATOM     15  C   UNL     1       1.083   9.436  19.253  0.00  0.00    +0.000 A 
ATOM     16  O   UNL     1       1.750   8.645  18.354  0.00  0.00    +0.000 OA
ENDBRANCH   1  15
BRANCH   8  17
ATOM     17  N   UNL     1       1.694  14.118  18.708  0.00  0.00    +0.000 N 
ATOM     18  C   UNL     1       1.272  15.404  18.975  0.00  0.00    +0.000 A 
ATOM     19  C   UNL     1       2.385  16.208  18.941  0.00  0.00    +0.000 A 
ATOM     20  C   UNL     1       3.442  15.332  18.653  0.00  0.00    +0.000 A 
ATOM     21  N   UNL     1       3.046  14.061  18.543  0.00  0.00    +0.000 NA
ENDBRANCH   8  17
BRANCH   5  22
ATOM     22  C   UNL     1      -4.876  11.500  17.187  0.00  0.00    +0.000 C 
BRANCH  22  23
ATOM     23  N   UNL     1      -5.555  12.333  18.204  0.00  0.00    +0.000 NA
ATOM     24  C   UNL     1      -5.092  11.955  19.563  0.00  0.00    +0.000 C 
ATOM     25  C   UNL     1      -5.797  12.756  20.692  0.00  0.00    +0.000 C 
ATOM     26  N   UNL     1      -7.271  12.795  20.630  0.00  0.00    +0.000 NA
ATOM     27  C   UNL     1      -7.878  11.575  21.157  0.00  0.00    +0.000 C 
ATOM     28  C   UNL     1      -7.701  13.060  19.244  0.00  0.00    +0.000 C 
ATOM     29  C   UNL     1      -7.028  12.170  18.173  0.00  0.00    +0.000 C 
ENDBRANCH  22  23
ENDBRANCH   5  22
TORSDOF 4
ENDMDL
