MODEL 1
REMARK VINA RESULT:      -7.4      0.000      0.000
REMARK  Name = 
REMARK  10 active torsions:
REMARK  status: ('A' for Active; 'I' for Inactive)
REMARK    1  A    between atoms: C_2  and  C_3
REMARK    2  A    between atoms: C_3  and  N_4
REMARK    3  A    between atoms: C_5  and  C_7
REMARK    4  A    between atoms: C_7  and  C_8
REMARK    5  A    between atoms: N_14  and  C_15
REMARK    6  A    between atoms: C_15  and  C_16
REMARK    7  A    between atoms: C_16  and  O_18
REMARK    8  A    between atoms: O_18  and  C_19
REMARK    9  A    between atoms: C_19  and  C_20
REMARK   10  A    between atoms: C_20  and  C_22
REMARK                            x       y       z     vdW  Elec       q    Type
REMARK                         _______ _______ _______ _____ _____    ______ ____
ROOT
ATOM      1  O   UNL     1       5.425   5.979  18.009  0.00  0.00    +0.000 OA
ATOM      2  C   UNL     1       6.219   5.043  18.064  0.00  0.00    +0.000 C 
ATOM      3  N   UNL     1       6.013   3.923  18.830  0.00  0.00    +0.000 N 
ATOM      4  H   UNL     1       6.782   3.269  18.968  0.00  0.00    +0.000 HD
ENDROOT
BRANCH   2   5
ATOM      5  C   UNL     1       7.557   5.064  17.315  0.00  0.00    +0.000 C 
BRANCH   5   6
ATOM      6  N   UNL     1       7.404   5.366  15.903  0.00  0.00    +0.000 N 
ATOM      7  C   UNL     1       6.801   4.469  15.052  0.00  0.00    +0.000 C 
ATOM      8  O   UNL     1       6.354   3.391  15.440  0.00  0.00    +0.000 OA
ATOM      9  H   UNL     1       7.942   6.132  15.518  0.00  0.00    +0.000 HD
BRANCH   7  10
ATOM     10  C   UNL     1       6.724   4.914  13.598  0.00  0.00    +0.000 C 
BRANCH  10  11
ATOM     11  C   UNL     1       6.294   3.806  12.670  0.00  0.00    +0.000 A 
ATOM     12  C   UNL     1       7.246   2.940  12.112  0.00  0.00    +0.000 A 
ATOM     13  C   UNL     1       6.858   1.942  11.218  0.00  0.00    +0.000 A 
ATOM     14  C   UNL     1       5.515   1.788  10.884  0.00  0.00    +0.000 A 
ATOM     15  C   UNL     1       4.556   2.621  11.459  0.00  0.00    +0.000 A 
ATOM     16  C   UNL     1       4.941   3.623  12.350  0.00  0.00    +0.000 A 
ENDBRANCH  10  11
ENDBRANCH   7  10
ENDBRANCH   5   6
ENDBRANCH   2   5
BRANCH   3  17
ATOM     17  C   UNL     1       4.788   3.701  19.591  0.00  0.00    +0.000 C 
BRANCH  17  18
ATOM     18  C   UNL     1       4.521   2.213  19.761  0.00  0.00    +0.000 C 
ATOM     19  O   UNL     1       5.178   1.462  20.474  0.00  0.00    +0.000 OA
BRANCH  18  20
ATOM     20  O   UNL     1       3.497   1.811  18.955  0.00  0.00    +0.000 OA
BRANCH  20  21
ATOM     21  C   UNL     1       2.241   1.666  19.632  0.00  0.00    +0.000 C 
BRANCH  21  22
ATOM     22  C   UNL     1       1.233   2.624  19.005  0.00  0.00    +0.000 C 
ATOM     23  O   UNL     1       0.248   2.230  18.375  0.00  0.00    +0.000 OA
BRANCH  22  24
ATOM     24  C   UNL     1       1.482   4.090  19.092  0.00  0.00    +0.000 A 
ATOM     25  C   UNL     1       1.415   4.695  20.356  0.00  0.00    +0.000 A 
ATOM     26  C   UNL     1       1.607   6.070  20.494  0.00  0.00    +0.000 A 
ATOM     27  C   UNL     1       1.884   6.843  19.367  0.00  0.00    +0.000 A 
ATOM     28 CL   UNL     1       2.104   8.540  19.528  0.00  0.00    +0.000 Cl
ATOM     29  C   UNL     1       1.979   6.245  18.109  0.00  0.00    +0.000 A 
ATOM     30  C   UNL     1       1.777   4.869  17.968  0.00  0.00    +0.000 A 
ENDBRANCH  22  24
ENDBRANCH  21  22
ENDBRANCH  20  21
ENDBRANCH  18  20
ENDBRANCH  17  18
ENDBRANCH   3  17
TORSDOF 10
ENDMDL
MODEL 2
REMARK VINA RESULT:      -7.4      4.893      7.452
REMARK  Name = 
REMARK  10 active torsions:
REMARK  status: ('A' for Active; 'I' for Inactive)
REMARK    1  A    between atoms: C_2  and  C_3
REMARK    2  A    between atoms: C_3  and  N_4
REMARK    3  A    between atoms: C_5  and  C_7
REMARK    4  A    between atoms: C_7  and  C_8
REMARK    5  A    between atoms: N_14  and  C_15
REMARK    6  A    between atoms: C_15  and  C_16
REMARK    7  A    between atoms: C_16  and  O_18
REMARK    8  A    between atoms: O_18  and  C_19
REMARK    9  A    between atoms: C_19  and  C_20
REMARK   10  A    between atoms: C_20  and  C_22
REMARK                            x       y       z     vdW  Elec       q    Type
REMARK                         _______ _______ _______ _____ _____    ______ ____
ROOT
ATOM      1  O   UNL     1       7.829   6.010  19.207  0.00  0.00    +0.000 OA
ATOM      2  C   UNL     1       7.565   6.469  18.099  0.00  0.00    +0.000 C 
ATOM      3  N   UNL     1       7.009   5.725  17.087  0.00  0.00    +0.000 N 
ATOM      4  H   UNL     1       6.977   6.116  16.146  0.00  0.00    +0.000 HD
ENDROOT
BRANCH   2   5
ATOM      5  C   UNL     1       7.884   7.920  17.720  0.00  0.00    +0.000 C 
BRANCH   5   6
ATOM      6  N   UNL     1       8.676   8.602  18.727  0.00  0.00    +0.000 N 
ATOM      7  C   UNL     1       8.814   9.971  18.707  0.00  0.00    +0.000 C 
ATOM      8  O   UNL     1       8.270  10.676  17.858  0.00  0.00    +0.000 OA
ATOM      9  H   UNL     1       9.300   8.048  19.299  0.00  0.00    +0.000 HD
BRANCH   7  10
ATOM     10  C   UNL     1       9.685  10.546  19.815  0.00  0.00    +0.000 C 
BRANCH  10  11
ATOM     11  C   UNL     1      10.565  11.675  19.341  0.00  0.00    +0.000 A 
ATOM     12  C   UNL     1      11.114  11.651  18.051  0.00  0.00    +0.000 A 
ATOM     13  C   UNL     1      11.965  12.670  17.624  0.00  0.00    +0.000 A 
ATOM     14  C   UNL     1      12.262  13.733  18.473  0.00  0.00    +0.000 A 
ATOM     15  C   UNL     1      11.693  13.785  19.745  0.00  0.00    +0.000 A 
ATOM     16  C   UNL     1      10.846  12.764  20.178  0.00  0.00    +0.000 A 
ENDBRANCH  10  11
ENDBRANCH   7  10
ENDBRANCH   5   6
ENDBRANCH   2   5
BRANCH   3  17
ATOM     17  C   UNL     1       6.604   4.334  17.260  0.00  0.00    +0.000 C 
BRANCH  17  18
ATOM     18  C   UNL     1       5.089   4.219  17.326  0.00  0.00    +0.000 C 
ATOM     19  O   UNL     1       4.389   3.694  16.466  0.00  0.00    +0.000 OA
BRANCH  18  20
ATOM     20  O   UNL     1       4.605   4.846  18.437  0.00  0.00    +0.000 OA
BRANCH  20  21
ATOM     21  C   UNL     1       3.278   5.369  18.283  0.00  0.00    +0.000 C 
BRANCH  21  22
ATOM     22  C   UNL     1       3.374   6.837  17.881  0.00  0.00    +0.000 C 
ATOM     23  O   UNL     1       4.228   7.253  17.093  0.00  0.00    +0.000 OA
BRANCH  22  24
ATOM     24  C   UNL     1       2.452   7.819  18.514  0.00  0.00    +0.000 A 
ATOM     25  C   UNL     1       2.128   7.640  19.868  0.00  0.00    +0.000 A 
ATOM     26  C   UNL     1       1.243   8.510  20.505  0.00  0.00    +0.000 A 
ATOM     27  C   UNL     1       0.692   9.576  19.794  0.00  0.00    +0.000 A 
ATOM     28 CL   UNL     1      -0.411  10.642  20.569  0.00  0.00    +0.000 Cl
ATOM     29  C   UNL     1       1.031   9.778  18.454  0.00  0.00    +0.000 A 
ATOM     30  C   UNL     1       1.909   8.900  17.812  0.00  0.00    +0.000 A 
ENDBRANCH  22  24
ENDBRANCH  21  22
ENDBRANCH  20  21
ENDBRANCH  18  20
ENDBRANCH  17  18
ENDBRANCH   3  17
TORSDOF 10
ENDMDL
MODEL 3
REMARK VINA RESULT:      -7.3      3.759      7.604
REMARK  Name = 
REMARK  10 active torsions:
REMARK  status: ('A' for Active; 'I' for Inactive)
REMARK    1  A    between atoms: C_2  and  C_3
REMARK    2  A    between atoms: C_3  and  N_4
REMARK    3  A    between atoms: C_5  and  C_7
REMARK    4  A    between atoms: C_7  and  C_8
REMARK    5  A    between atoms: N_14  and  C_15
REMARK    6  A    between atoms: C_15  and  C_16
REMARK    7  A    between atoms: C_16  and  O_18
REMARK    8  A    between atoms: O_18  and  C_19
REMARK    9  A    between atoms: C_19  and  C_20
REMARK   10  A    between atoms: C_20  and  C_22
REMARK                            x       y       z     vdW  Elec       q    Type
REMARK                         _______ _______ _______ _____ _____    ______ ____
ROOT
ATOM      1  O   UNL     1       1.019   4.961  19.682  0.00  0.00    +0.000 OA
ATOM      2  C   UNL     1       1.989   5.399  20.297  0.00  0.00    +0.000 C 
ATOM      3  N   UNL     1       2.621   4.707  21.300  0.00  0.00    +0.000 N 
ATOM      4  H   UNL     1       3.301   5.193  21.883  0.00  0.00    +0.000 HD
ENDROOT
BRANCH   2   5
ATOM      5  C   UNL     1       2.556   6.799  20.034  0.00  0.00    +0.000 C 
BRANCH   5   6
ATOM      6  N   UNL     1       1.685   7.857  20.512  0.00  0.00    +0.000 N 
ATOM      7  C   UNL     1       1.400   8.946  19.721  0.00  0.00    +0.000 C 
ATOM      8  O   UNL     1       1.848   9.069  18.582  0.00  0.00    +0.000 OA
ATOM      9  H   UNL     1       1.478   7.894  21.501  0.00  0.00    +0.000 HD
BRANCH   7  10
ATOM     10  C   UNL     1       0.485   9.982  20.358  0.00  0.00    +0.000 C 
BRANCH  10  11
ATOM     11  C   UNL     1      -0.449  10.626  19.366  0.00  0.00    +0.000 A 
ATOM     12  C   UNL     1      -1.441   9.866  18.730  0.00  0.00    +0.000 A 
ATOM     13  C   UNL     1      -2.279  10.447  17.778  0.00  0.00    +0.000 A 
ATOM     14  C   UNL     1      -2.146  11.797  17.463  0.00  0.00    +0.000 A 
ATOM     15  C   UNL     1      -1.187  12.571  18.115  0.00  0.00    +0.000 A 
ATOM     16  C   UNL     1      -0.344  11.992  19.064  0.00  0.00    +0.000 A 
ENDBRANCH  10  11
ENDBRANCH   7  10
ENDBRANCH   5   6
ENDBRANCH   2   5
BRANCH   3  17
ATOM     17  C   UNL     1       2.250   3.347  21.677  0.00  0.00    +0.000 C 
BRANCH  17  18
ATOM     18  C   UNL     1       3.112   2.331  20.943  0.00  0.00    +0.000 C 
ATOM     19  O   UNL     1       4.207   1.934  21.329  0.00  0.00    +0.000 OA
BRANCH  18  20
ATOM     20  O   UNL     1       2.537   1.977  19.758  0.00  0.00    +0.000 OA
BRANCH  20  21
ATOM     21  C   UNL     1       3.465   1.854  18.671  0.00  0.00    +0.000 C 
BRANCH  21  22
ATOM     22  C   UNL     1       3.321   3.072  17.764  0.00  0.00    +0.000 C 
ATOM     23  O   UNL     1       2.380   3.203  16.977  0.00  0.00    +0.000 OA
BRANCH  22  24
ATOM     24  C   UNL     1       4.389   4.109  17.775  0.00  0.00    +0.000 A 
ATOM     25  C   UNL     1       4.503   4.948  16.656  0.00  0.00    +0.000 A 
ATOM     26  C   UNL     1       5.506   5.916  16.595  0.00  0.00    +0.000 A 
ATOM     27  C   UNL     1       6.390   6.059  17.664  0.00  0.00    +0.000 A 
ATOM     28 CL   UNL     1       7.639   7.238  17.589  0.00  0.00    +0.000 Cl
ATOM     29  C   UNL     1       6.267   5.247  18.794  0.00  0.00    +0.000 A 
ATOM     30  C   UNL     1       5.268   4.270  18.851  0.00  0.00    +0.000 A 
ENDBRANCH  22  24
ENDBRANCH  21  22
ENDBRANCH  20  21
ENDBRANCH  18  20
ENDBRANCH  17  18
ENDBRANCH   3  17
TORSDOF 10
ENDMDL
MODEL 4
REMARK VINA RESULT:      -7.3      4.028      6.670
REMARK  Name = 
REMARK  10 active torsions:
REMARK  status: ('A' for Active; 'I' for Inactive)
REMARK    1  A    between atoms: C_2  and  C_3
REMARK    2  A    between atoms: C_3  and  N_4
REMARK    3  A    between atoms: C_5  and  C_7
REMARK    4  A    between atoms: C_7  and  C_8
REMARK    5  A    between atoms: N_14  and  C_15
REMARK    6  A    between atoms: C_15  and  C_16
REMARK    7  A    between atoms: C_16  and  O_18
REMARK    8  A    between atoms: O_18  and  C_19
REMARK    9  A    between atoms: C_19  and  C_20
REMARK   10  A    between atoms: C_20  and  C_22
REMARK                            x       y       z     vdW  Elec       q    Type
REMARK                         _______ _______ _______ _____ _____    ______ ____
ROOT
ATOM      1  O   UNL     1       6.439   5.765  19.509  0.00  0.00    +0.000 OA
ATOM      2  C   UNL     1       6.335   5.470  18.321  0.00  0.00    +0.000 C 
ATOM      3  N   UNL     1       5.393   4.593  17.841  0.00  0.00    +0.000 N 
ATOM      4  H   UNL     1       5.471   4.260  16.881  0.00  0.00    +0.000 HD
ENDROOT
BRANCH   2   5
ATOM      5  C   UNL     1       7.292   6.019  17.257  0.00  0.00    +0.000 C 
BRANCH   5   6
ATOM      6  N   UNL     1       7.299   7.470  17.203  0.00  0.00    +0.000 N 
ATOM      7  C   UNL     1       8.079   8.204  18.067  0.00  0.00    +0.000 C 
ATOM      8  O   UNL     1       8.810   7.677  18.904  0.00  0.00    +0.000 OA
ATOM      9  H   UNL     1       6.563   7.931  16.684  0.00  0.00    +0.000 HD
BRANCH   7  10
ATOM     10  C   UNL     1       7.973   9.713  17.904  0.00  0.00    +0.000 C 
BRANCH  10  11
ATOM     11  C   UNL     1       9.110  10.453  18.562  0.00  0.00    +0.000 A 
ATOM     12  C   UNL     1       9.142  10.608  19.956  0.00  0.00    +0.000 A 
ATOM     13  C   UNL     1      10.168  11.330  20.566  0.00  0.00    +0.000 A 
ATOM     14  C   UNL     1      11.181  11.890  19.793  0.00  0.00    +0.000 A 
ATOM     15  C   UNL     1      11.179  11.713  18.409  0.00  0.00    +0.000 A 
ATOM     16  C   UNL     1      10.151  10.996  17.796  0.00  0.00    +0.000 A 
ENDBRANCH  10  11
ENDBRANCH   7  10
ENDBRANCH   5   6
ENDBRANCH   2   5
BRANCH   3  17
ATOM     17  C   UNL     1       4.371   3.989  18.690  0.00  0.00    +0.000 C 
BRANCH  17  18
ATOM     18  C   UNL     1       3.091   3.749  17.904  0.00  0.00    +0.000 C 
ATOM     19  O   UNL     1       2.833   2.724  17.283  0.00  0.00    +0.000 OA
BRANCH  18  20
ATOM     20  O   UNL     1       2.300   4.860  17.921  0.00  0.00    +0.000 OA
BRANCH  20  21
ATOM     21  C   UNL     1       2.618   5.790  18.966  0.00  0.00    +0.000 C 
BRANCH  21  22
ATOM     22  C   UNL     1       2.803   7.174  18.350  0.00  0.00    +0.000 C 
ATOM     23  O   UNL     1       3.673   7.414  17.510  0.00  0.00    +0.000 OA
BRANCH  22  24
ATOM     24  C   UNL     1       1.950   8.296  18.830  0.00  0.00    +0.000 A 
ATOM     25  C   UNL     1       1.564   8.298  20.180  0.00  0.00    +0.000 A 
ATOM     26  C   UNL     1       0.738   9.306  20.678  0.00  0.00    +0.000 A 
ATOM     27  C   UNL     1       0.309  10.327  19.831  0.00  0.00    +0.000 A 
ATOM     28 CL   UNL     1      -0.723  11.563  20.434  0.00  0.00    +0.000 Cl
ATOM     29  C   UNL     1       0.710  10.347  18.493  0.00  0.00    +0.000 A 
ATOM     30  C   UNL     1       1.529   9.332  17.990  0.00  0.00    +0.000 A 
ENDBRANCH  22  24
ENDBRANCH  21  22
ENDBRANCH  20  21
ENDBRANCH  18  20
ENDBRANCH  17  18
ENDBRANCH   3  17
TORSDOF 10
ENDMDL
MODEL 5
REMARK VINA RESULT:      -7.2      4.001      8.116
REMARK  Name = 
REMARK  10 active torsions:
REMARK  status: ('A' for Active; 'I' for Inactive)
REMARK    1  A    between atoms: C_2  and  C_3
REMARK    2  A    between atoms: C_3  and  N_4
REMARK    3  A    between atoms: C_5  and  C_7
REMARK    4  A    between atoms: C_7  and  C_8
REMARK    5  A    between atoms: N_14  and  C_15
REMARK    6  A    between atoms: C_15  and  C_16
REMARK    7  A    between atoms: C_16  and  O_18
REMARK    8  A    between atoms: O_18  and  C_19
REMARK    9  A    between atoms: C_19  and  C_20
REMARK   10  A    between atoms: C_20  and  C_22
REMARK                            x       y       z     vdW  Elec       q    Type
REMARK                         _______ _______ _______ _____ _____    ______ ____
ROOT
ATOM      1  O   UNL     1       3.113   5.913  19.962  0.00  0.00    +0.000 OA
ATOM      2  C   UNL     1       1.966   5.832  20.395  0.00  0.00    +0.000 C 
ATOM      3  N   UNL     1       1.198   4.699  20.287  0.00  0.00    +0.000 N 
ATOM      4  H   UNL     1       0.204   4.752  20.508  0.00  0.00    +0.000 HD
ENDROOT
BRANCH   2   5
ATOM      5  C   UNL     1       1.258   7.020  21.056  0.00  0.00    +0.000 C 
BRANCH   5   6
ATOM      6  N   UNL     1       1.245   8.204  20.218  0.00  0.00    +0.000 N 
ATOM      7  C   UNL     1       0.473   9.294  20.549  0.00  0.00    +0.000 C 
ATOM      8  O   UNL     1      -0.221   9.325  21.563  0.00  0.00    +0.000 OA
ATOM      9  H   UNL     1       1.628   8.132  19.284  0.00  0.00    +0.000 HD
BRANCH   7  10
ATOM     10  C   UNL     1       0.549  10.457  19.570  0.00  0.00    +0.000 C 
BRANCH  10  11
ATOM     11  C   UNL     1      -0.720  10.637  18.776  0.00  0.00    +0.000 A 
ATOM     12  C   UNL     1      -1.661  11.606  19.156  0.00  0.00    +0.000 A 
ATOM     13  C   UNL     1      -2.857  11.746  18.452  0.00  0.00    +0.000 A 
ATOM     14  C   UNL     1      -3.119  10.933  17.353  0.00  0.00    +0.000 A 
ATOM     15  C   UNL     1      -2.176   9.990  16.945  0.00  0.00    +0.000 A 
ATOM     16  C   UNL     1      -0.981   9.844  17.650  0.00  0.00    +0.000 A 
ENDBRANCH  10  11
ENDBRANCH   7  10
ENDBRANCH   5   6
ENDBRANCH   2   5
BRANCH   3  17
ATOM     17  C   UNL     1       1.703   3.454  19.718  0.00  0.00    +0.000 C 
BRANCH  17  18
ATOM     18  C   UNL     1       1.876   3.581  18.212  0.00  0.00    +0.000 C 
ATOM     19  O   UNL     1       1.111   4.187  17.469  0.00  0.00    +0.000 OA
BRANCH  18  20
ATOM     20  O   UNL     1       2.957   2.865  17.789  0.00  0.00    +0.000 OA
BRANCH  20  21
ATOM     21  C   UNL     1       4.001   3.666  17.217  0.00  0.00    +0.000 C 
BRANCH  21  22
ATOM     22  C   UNL     1       5.053   3.936  18.288  0.00  0.00    +0.000 C 
ATOM     23  O   UNL     1       5.190   3.214  19.279  0.00  0.00    +0.000 OA
BRANCH  22  24
ATOM     24  C   UNL     1       5.900   5.156  18.174  0.00  0.00    +0.000 A 
ATOM     25  C   UNL     1       5.467   6.180  17.318  0.00  0.00    +0.000 A 
ATOM     26  C   UNL     1       6.236   7.332  17.147  0.00  0.00    +0.000 A 
ATOM     27  C   UNL     1       7.435   7.470  17.846  0.00  0.00    +0.000 A 
ATOM     28 CL   UNL     1       8.395   8.879  17.626  0.00  0.00    +0.000 Cl
ATOM     29  C   UNL     1       7.860   6.468  18.721  0.00  0.00    +0.000 A 
ATOM     30  C   UNL     1       7.095   5.309  18.885  0.00  0.00    +0.000 A 
ENDBRANCH  22  24
ENDBRANCH  21  22
ENDBRANCH  20  21
ENDBRANCH  18  20
ENDBRANCH  17  18
ENDBRANCH   3  17
TORSDOF 10
ENDMDL
MODEL 6
REMARK VINA RESULT:      -7.2      3.703      7.511
REMARK  Name = 
REMARK  10 active torsions:
REMARK  status: ('A' for Active; 'I' for Inactive)
REMARK    1  A    between atoms: C_2  and  C_3
REMARK    2  A    between atoms: C_3  and  N_4
REMARK    3  A    between atoms: C_5  and  C_7
REMARK    4  A    between atoms: C_7  and  C_8
REMARK    5  A    between atoms: N_14  and  C_15
REMARK    6  A    between atoms: C_15  and  C_16
REMARK    7  A    between atoms: C_16  and  O_18
REMARK    8  A    between atoms: O_18  and  C_19
REMARK    9  A    between atoms: C_19  and  C_20
REMARK   10  A    between atoms: C_20  and  C_22
REMARK                            x       y       z     vdW  Elec       q    Type
REMARK                         _______ _______ _______ _____ _____    ______ ____
ROOT
ATOM      1  O   UNL     1       1.117   4.848  19.650  0.00  0.00    +0.000 OA
ATOM      2  C   UNL     1       1.844   5.270  20.546  0.00  0.00    +0.000 C 
ATOM      3  N   UNL     1       2.514   4.452  21.421  0.00  0.00    +0.000 N 
ATOM      4  H   UNL     1       2.957   4.863  22.243  0.00  0.00    +0.000 HD
ENDROOT
BRANCH   2   5
ATOM      5  C   UNL     1       2.030   6.770  20.808  0.00  0.00    +0.000 C 
BRANCH   5   6
ATOM      6  N   UNL     1       1.824   7.576  19.619  0.00  0.00    +0.000 N 
ATOM      7  C   UNL     1       1.316   8.852  19.713  0.00  0.00    +0.000 C 
ATOM      8  O   UNL     1       1.029   9.370  20.791  0.00  0.00    +0.000 OA
ATOM      9  H   UNL     1       1.845   7.115  18.719  0.00  0.00    +0.000 HD
BRANCH   7  10
ATOM     10  C   UNL     1       1.141   9.573  18.384  0.00  0.00    +0.000 C 
BRANCH  10  11
ATOM     11  C   UNL     1      -0.197  10.258  18.262  0.00  0.00    +0.000 A 
ATOM     12  C   UNL     1      -1.228   9.669  17.515  0.00  0.00    +0.000 A 
ATOM     13  C   UNL     1      -2.452  10.319  17.361  0.00  0.00    +0.000 A 
ATOM     14  C   UNL     1      -2.666  11.555  17.966  0.00  0.00    +0.000 A 
ATOM     15  C   UNL     1      -1.661  12.134  18.740  0.00  0.00    +0.000 A 
ATOM     16  C   UNL     1      -0.433  11.488  18.892  0.00  0.00    +0.000 A 
ENDBRANCH  10  11
ENDBRANCH   7  10
ENDBRANCH   5   6
ENDBRANCH   2   5
BRANCH   3  17
ATOM     17  C   UNL     1       2.491   2.997  21.318  0.00  0.00    +0.000 C 
BRANCH  17  18
ATOM     18  C   UNL     1       3.462   2.517  20.249  0.00  0.00    +0.000 C 
ATOM     19  O   UNL     1       4.679   2.664  20.292  0.00  0.00    +0.000 OA
BRANCH  18  20
ATOM     20  O   UNL     1       2.788   1.967  19.198  0.00  0.00    +0.000 OA
BRANCH  20  21
ATOM     21  C   UNL     1       3.527   1.962  17.968  0.00  0.00    +0.000 C 
BRANCH  21  22
ATOM     22  C   UNL     1       3.232   3.256  17.215  0.00  0.00    +0.000 C 
ATOM     23  O   UNL     1       2.194   3.425  16.570  0.00  0.00    +0.000 OA
BRANCH  22  24
ATOM     24  C   UNL     1       4.265   4.328  17.194  0.00  0.00    +0.000 A 
ATOM     25  C   UNL     1       5.493   4.048  16.576  0.00  0.00    +0.000 A 
ATOM     26  C   UNL     1       6.510   5.002  16.555  0.00  0.00    +0.000 A 
ATOM     27  C   UNL     1       6.294   6.251  17.138  0.00  0.00    +0.000 A 
ATOM     28 CL   UNL     1       7.549   7.426  17.131  0.00  0.00    +0.000 Cl
ATOM     29  C   UNL     1       5.065   6.549  17.731  0.00  0.00    +0.000 A 
ATOM     30  C   UNL     1       4.049   5.588  17.762  0.00  0.00    +0.000 A 
ENDBRANCH  22  24
ENDBRANCH  21  22
ENDBRANCH  20  21
ENDBRANCH  18  20
ENDBRANCH  17  18
ENDBRANCH   3  17
TORSDOF 10
ENDMDL
MODEL 7
REMARK VINA RESULT:      -7.2      6.039      8.874
REMARK  Name = 
REMARK  10 active torsions:
REMARK  status: ('A' for Active; 'I' for Inactive)
REMARK    1  A    between atoms: C_2  and  C_3
REMARK    2  A    between atoms: C_3  and  N_4
REMARK    3  A    between atoms: C_5  and  C_7
REMARK    4  A    between atoms: C_7  and  C_8
REMARK    5  A    between atoms: N_14  and  C_15
REMARK    6  A    between atoms: C_15  and  C_16
REMARK    7  A    between atoms: C_16  and  O_18
REMARK    8  A    between atoms: O_18  and  C_19
REMARK    9  A    between atoms: C_19  and  C_20
REMARK   10  A    between atoms: C_20  and  C_22
REMARK                            x       y       z     vdW  Elec       q    Type
REMARK                         _______ _______ _______ _____ _____    ______ ____
ROOT
ATOM      1  O   UNL     1       7.509   7.687  16.866  0.00  0.00    +0.000 OA
ATOM      2  C   UNL     1       7.900   7.470  18.010  0.00  0.00    +0.000 C 
ATOM      3  N   UNL     1       8.516   8.417  18.789  0.00  0.00    +0.000 N 
ATOM      4  H   UNL     1       8.969   8.127  19.656  0.00  0.00    +0.000 HD
ENDROOT
BRANCH   2   5
ATOM      5  C   UNL     1       7.781   6.088  18.664  0.00  0.00    +0.000 C 
BRANCH   5   6
ATOM      6  N   UNL     1       6.994   5.159  17.873  0.00  0.00    +0.000 N 
ATOM      7  C   UNL     1       5.766   4.722  18.315  0.00  0.00    +0.000 C 
ATOM      8  O   UNL     1       5.274   5.103  19.376  0.00  0.00    +0.000 OA
ATOM      9  H   UNL     1       7.452   4.669  17.116  0.00  0.00    +0.000 HD
BRANCH   7  10
ATOM     10  C   UNL     1       5.061   3.740  17.390  0.00  0.00    +0.000 C 
BRANCH  10  11
ATOM     11  C   UNL     1       3.664   3.407  17.846  0.00  0.00    +0.000 A 
ATOM     12  C   UNL     1       2.603   4.286  17.581  0.00  0.00    +0.000 A 
ATOM     13  C   UNL     1       1.317   4.003  18.040  0.00  0.00    +0.000 A 
ATOM     14  C   UNL     1       1.072   2.832  18.753  0.00  0.00    +0.000 A 
ATOM     15  C   UNL     1       2.111   1.934  18.993  0.00  0.00    +0.000 A 
ATOM     16  C   UNL     1       3.401   2.216  18.539  0.00  0.00    +0.000 A 
ENDBRANCH  10  11
ENDBRANCH   7  10
ENDBRANCH   5   6
ENDBRANCH   2   5
BRANCH   3  17
ATOM     17  C   UNL     1       8.694   9.800  18.359  0.00  0.00    +0.000 C 
BRANCH  17  18
ATOM     18  C   UNL     1       9.549  10.568  19.356  0.00  0.00    +0.000 C 
ATOM     19  O   UNL     1       9.350  10.606  20.565  0.00  0.00    +0.000 OA
BRANCH  18  20
ATOM     20  O   UNL     1      10.525  11.271  18.712  0.00  0.00    +0.000 OA
BRANCH  20  21
ATOM     21  C   UNL     1      10.029  12.267  17.807  0.00  0.00    +0.000 C 
BRANCH  21  22
ATOM     22  C   UNL     1       9.789  13.558  18.583  0.00  0.00    +0.000 C 
ATOM     23  O   UNL     1      10.696  14.160  19.163  0.00  0.00    +0.000 OA
BRANCH  22  24
ATOM     24  C   UNL     1       8.399  14.076  18.708  0.00  0.00    +0.000 A 
ATOM     25  C   UNL     1       7.986  14.559  19.960  0.00  0.00    +0.000 A 
ATOM     26  C   UNL     1       6.685  15.025  20.145  0.00  0.00    +0.000 A 
ATOM     27  C   UNL     1       5.794  15.027  19.072  0.00  0.00    +0.000 A 
ATOM     28 CL   UNL     1       4.184  15.585  19.298  0.00  0.00    +0.000 Cl
ATOM     29  C   UNL     1       6.204  14.574  17.816  0.00  0.00    +0.000 A 
ATOM     30  C   UNL     1       7.505  14.096  17.632  0.00  0.00    +0.000 A 
ENDBRANCH  22  24
ENDBRANCH  21  22
ENDBRANCH  20  21
ENDBRANCH  18  20
ENDBRANCH  17  18
ENDBRANCH   3  17
TORSDOF 10
ENDMDL
MODEL 8
REMARK VINA RESULT:      -7.1      2.178      3.626
REMARK  Name = 
REMARK  10 active torsions:
REMARK  status: ('A' for Active; 'I' for Inactive)
REMARK    1  A    between atoms: C_2  and  C_3
REMARK    2  A    between atoms: C_3  and  N_4
REMARK    3  A    between atoms: C_5  and  C_7
REMARK    4  A    between atoms: C_7  and  C_8
REMARK    5  A    between atoms: N_14  and  C_15
REMARK    6  A    between atoms: C_15  and  C_16
REMARK    7  A    between atoms: C_16  and  O_18
REMARK    8  A    between atoms: O_18  and  C_19
REMARK    9  A    between atoms: C_19  and  C_20
REMARK   10  A    between atoms: C_20  and  C_22
REMARK                            x       y       z     vdW  Elec       q    Type
REMARK                         _______ _______ _______ _____ _____    ______ ____
ROOT
ATOM      1  O   UNL     1       3.914   1.156  18.417  0.00  0.00    +0.000 OA
ATOM      2  C   UNL     1       3.226   2.158  18.239  0.00  0.00    +0.000 C 
ATOM      3  N   UNL     1       2.256   2.573  19.118  0.00  0.00    +0.000 N 
ATOM      4  H   UNL     1       1.607   3.304  18.830  0.00  0.00    +0.000 HD
ENDROOT
BRANCH   2   5
ATOM      5  C   UNL     1       3.351   3.020  16.977  0.00  0.00    +0.000 C 
BRANCH   5   6
ATOM      6  N   UNL     1       4.729   3.222  16.569  0.00  0.00    +0.000 N 
ATOM      7  C   UNL     1       5.220   4.489  16.348  0.00  0.00    +0.000 C 
ATOM      8  O   UNL     1       4.532   5.497  16.496  0.00  0.00    +0.000 OA
ATOM      9  H   UNL     1       5.250   2.422  16.236  0.00  0.00    +0.000 HD
BRANCH   7  10
ATOM     10  C   UNL     1       6.677   4.546  15.912  0.00  0.00    +0.000 C 
BRANCH  10  11
ATOM     11  C   UNL     1       6.841   4.504  14.413  0.00  0.00    +0.000 A 
ATOM     12  C   UNL     1       6.093   3.600  13.644  0.00  0.00    +0.000 A 
ATOM     13  C   UNL     1       6.273   3.526  12.263  0.00  0.00    +0.000 A 
ATOM     14  C   UNL     1       7.189   4.365  11.633  0.00  0.00    +0.000 A 
ATOM     15  C   UNL     1       7.912   5.292  12.383  0.00  0.00    +0.000 A 
ATOM     16  C   UNL     1       7.738   5.365  13.766  0.00  0.00    +0.000 A 
ENDBRANCH  10  11
ENDBRANCH   7  10
ENDBRANCH   5   6
ENDBRANCH   2   5
BRANCH   3  17
ATOM     17  C   UNL     1       2.006   1.905  20.391  0.00  0.00    +0.000 C 
BRANCH  17  18
ATOM     18  C   UNL     1       1.422   2.878  21.404  0.00  0.00    +0.000 C 
ATOM     19  O   UNL     1       1.166   2.603  22.572  0.00  0.00    +0.000 OA
BRANCH  18  20
ATOM     20  O   UNL     1       1.150   4.079  20.817  0.00  0.00    +0.000 OA
BRANCH  20  21
ATOM     21  C   UNL     1       1.961   5.162  21.297  0.00  0.00    +0.000 C 
BRANCH  21  22
ATOM     22  C   UNL     1       2.577   5.879  20.100  0.00  0.00    +0.000 C 
ATOM     23  O   UNL     1       3.507   5.397  19.447  0.00  0.00    +0.000 OA
BRANCH  22  24
ATOM     24  C   UNL     1       2.091   7.241  19.748  0.00  0.00    +0.000 A 
ATOM     25  C   UNL     1       2.331   7.710  18.447  0.00  0.00    +0.000 A 
ATOM     26  C   UNL     1       1.928   8.991  18.070  0.00  0.00    +0.000 A 
ATOM     27  C   UNL     1       1.266   9.804  18.991  0.00  0.00    +0.000 A 
ATOM     28 CL   UNL     1       0.782  11.389  18.538  0.00  0.00    +0.000 Cl
ATOM     29  C   UNL     1       0.999   9.335  20.279  0.00  0.00    +0.000 A 
ATOM     30  C   UNL     1       1.412   8.055  20.661  0.00  0.00    +0.000 A 
ENDBRANCH  22  24
ENDBRANCH  21  22
ENDBRANCH  20  21
ENDBRANCH  18  20
ENDBRANCH  17  18
ENDBRANCH   3  17
TORSDOF 10
ENDMDL
MODEL 9
REMARK VINA RESULT:      -7.1      1.185      1.619
REMARK  Name = 
REMARK  10 active torsions:
REMARK  status: ('A' for Active; 'I' for Inactive)
REMARK    1  A    between atoms: C_2  and  C_3
REMARK    2  A    between atoms: C_3  and  N_4
REMARK    3  A    between atoms: C_5  and  C_7
REMARK    4  A    between atoms: C_7  and  C_8
REMARK    5  A    between atoms: N_14  and  C_15
REMARK    6  A    between atoms: C_15  and  C_16
REMARK    7  A    between atoms: C_16  and  O_18
REMARK    8  A    between atoms: O_18  and  C_19
REMARK    9  A    between atoms: C_19  and  C_20
REMARK   10  A    between atoms: C_20  and  C_22
REMARK                            x       y       z     vdW  Elec       q    Type
REMARK                         _______ _______ _______ _____ _____    ______ ____
ROOT
ATOM      1  O   UNL     1       7.772   4.345  18.066  0.00  0.00    +0.000 OA
ATOM      2  C   UNL     1       6.770   5.005  17.802  0.00  0.00    +0.000 C 
ATOM      3  N   UNL     1       5.525   4.717  18.302  0.00  0.00    +0.000 N 
ATOM      4  H   UNL     1       4.712   5.192  17.911  0.00  0.00    +0.000 HD
ENDROOT
BRANCH   2   5
ATOM      5  C   UNL     1       6.808   6.195  16.836  0.00  0.00    +0.000 C 
BRANCH   5   6
ATOM      6  N   UNL     1       7.259   5.824  15.507  0.00  0.00    +0.000 N 
ATOM      7  C   UNL     1       6.636   4.815  14.808  0.00  0.00    +0.000 C 
ATOM      8  O   UNL     1       5.673   4.198  15.259  0.00  0.00    +0.000 OA
ATOM      9  H   UNL     1       8.163   6.157  15.199  0.00  0.00    +0.000 HD
BRANCH   7  10
ATOM     10  C   UNL     1       7.225   4.527  13.434  0.00  0.00    +0.000 C 
BRANCH  10  11
ATOM     11  C   UNL     1       6.309   3.700  12.567  0.00  0.00    +0.000 A 
ATOM     12  C   UNL     1       5.009   4.145  12.285  0.00  0.00    +0.000 A 
ATOM     13  C   UNL     1       4.143   3.363  11.521  0.00  0.00    +0.000 A 
ATOM     14  C   UNL     1       4.571   2.137  11.017  0.00  0.00    +0.000 A 
ATOM     15  C   UNL     1       5.872   1.701  11.262  0.00  0.00    +0.000 A 
ATOM     16  C   UNL     1       6.740   2.479  12.030  0.00  0.00    +0.000 A 
ENDBRANCH  10  11
ENDBRANCH   7  10
ENDBRANCH   5   6
ENDBRANCH   2   5
BRANCH   3  17
ATOM     17  C   UNL     1       5.288   3.644  19.262  0.00  0.00    +0.000 C 
BRANCH  17  18
ATOM     18  C   UNL     1       4.305   2.627  18.701  0.00  0.00    +0.000 C 
ATOM     19  O   UNL     1       4.179   2.359  17.511  0.00  0.00    +0.000 OA
BRANCH  18  20
ATOM     20  O   UNL     1       3.530   2.107  19.695  0.00  0.00    +0.000 OA
BRANCH  20  21
ATOM     21  C   UNL     1       2.120   2.265  19.481  0.00  0.00    +0.000 C 
BRANCH  21  22
ATOM     22  C   UNL     1       1.644   3.497  20.245  0.00  0.00    +0.000 C 
ATOM     23  O   UNL     1       1.038   3.418  21.316  0.00  0.00    +0.000 OA
BRANCH  22  24
ATOM     24  C   UNL     1       1.853   4.842  19.643  0.00  0.00    +0.000 A 
ATOM     25  C   UNL     1       1.919   5.947  20.506  0.00  0.00    +0.000 A 
ATOM     26  C   UNL     1       2.081   7.235  19.997  0.00  0.00    +0.000 A 
ATOM     27  C   UNL     1       2.195   7.423  18.620  0.00  0.00    +0.000 A 
ATOM     28 CL   UNL     1       2.377   9.009  17.985  0.00  0.00    +0.000 Cl
ATOM     29  C   UNL     1       2.157   6.327  17.755  0.00  0.00    +0.000 A 
ATOM     30  C   UNL     1       1.985   5.036  18.264  0.00  0.00    +0.000 A 
ENDBRANCH  22  24
ENDBRANCH  21  22
ENDBRANCH  20  21
ENDBRANCH  18  20
ENDBRANCH  17  18
ENDBRANCH   3  17
TORSDOF 10
ENDMDL
