MODEL 1
REMARK VINA RESULT:      -7.0      0.000      0.000
REMARK  Name = 
REMARK  5 active torsions:
REMARK  status: ('A' for Active; 'I' for Inactive)
REMARK    1  A    between atoms: C_1  and  C_2
REMARK    2  A    between atoms: N_4  and  C_5
REMARK    3  A    between atoms: C_6  and  O_7
REMARK    4  A    between atoms: O_7  and  C_8
REMARK    5  A    between atoms: C_15  and  C_16
REMARK                            x       y       z     vdW  Elec       q    Type
REMARK                         _______ _______ _______ _____ _____    ______ ____
ROOT
ATOM      1  C   UNL     1       7.905   7.561  17.695  0.00  0.00    +0.000 C 
ATOM      2  C   UNL     1       7.184   6.387  17.142  0.00  0.00    +0.000 A 
ATOM      3  N   UNL     1       7.156   6.166  15.824  0.00  0.00    +0.000 NA
ATOM      4  N   UNL     1       6.433   5.041  15.697  0.00  0.00    +0.000 N 
ATOM      5  C   UNL     1       6.240   4.468  14.384  0.00  0.00    +0.000 C 
ATOM      6  C   UNL     1       6.003   4.513  16.890  0.00  0.00    +0.000 A 
ATOM      7  C   UNL     1       6.447   5.403  17.859  0.00  0.00    +0.000 A 
ENDROOT
BRANCH   7   8
ATOM      8  C   UNL     1       6.237   5.346  19.289  0.00  0.00    +0.000 C 
ATOM      9  O   UNL     1       7.153   5.273  20.107  0.00  0.00    +0.000 OA
ENDBRANCH   7   8
BRANCH   6  10
ATOM     10  O   UNL     1       5.317   3.362  16.891  0.00  0.00    +0.000 OA
BRANCH  10  11
ATOM     11  C   UNL     1       4.135   3.231  17.578  0.00  0.00    +0.000 A 
ATOM     12  C   UNL     1       3.094   4.097  17.238  0.00  0.00    +0.000 A 
ATOM     13  C   UNL     1       1.901   4.065  17.964  0.00  0.00    +0.000 A 
ATOM     14  C   UNL     1       1.757   3.168  19.024  0.00  0.00    +0.000 A 
ATOM     15 CL   UNL     1       0.323   3.183  19.972  0.00  0.00    +0.000 Cl
ATOM     16  C   UNL     1       2.774   2.264  19.326  0.00  0.00    +0.000 A 
ATOM     17  C   UNL     1       3.949   2.270  18.577  0.00  0.00    +0.000 A 
ENDBRANCH  10  11
ENDBRANCH   6  10
TORSDOF 3
ENDMDL
MODEL 2
REMARK VINA RESULT:      -6.9      3.616      5.569
REMARK  Name = 
REMARK  5 active torsions:
REMARK  status: ('A' for Active; 'I' for Inactive)
REMARK    1  A    between atoms: C_1  and  C_2
REMARK    2  A    between atoms: N_4  and  C_5
REMARK    3  A    between atoms: C_6  and  O_7
REMARK    4  A    between atoms: O_7  and  C_8
REMARK    5  A    between atoms: C_15  and  C_16
REMARK                            x       y       z     vdW  Elec       q    Type
REMARK                         _______ _______ _______ _____ _____    ______ ____
ROOT
ATOM      1  C   UNL     1       1.233   2.491  20.562  0.00  0.00    +0.000 C 
ATOM      2  C   UNL     1       2.074   3.653  20.178  0.00  0.00    +0.000 A 
ATOM      3  N   UNL     1       1.556   4.885  20.148  0.00  0.00    +0.000 NA
ATOM      4  N   UNL     1       2.586   5.662  19.771  0.00  0.00    +0.000 N 
ATOM      5  C   UNL     1       2.399   7.092  19.683  0.00  0.00    +0.000 C 
ATOM      6  C   UNL     1       3.760   4.978  19.569  0.00  0.00    +0.000 A 
ATOM      7  C   UNL     1       3.443   3.644  19.789  0.00  0.00    +0.000 A 
ENDROOT
BRANCH   7   8
ATOM      8  C   UNL     1       4.306   2.489  19.676  0.00  0.00    +0.000 C 
ATOM      9  O   UNL     1       4.958   2.034  20.615  0.00  0.00    +0.000 OA
ENDBRANCH   7   8
BRANCH   6  10
ATOM     10  O   UNL     1       4.868   5.655  19.240  0.00  0.00    +0.000 OA
BRANCH  10  11
ATOM     11  C   UNL     1       5.464   5.505  18.012  0.00  0.00    +0.000 A 
ATOM     12  C   UNL     1       4.828   6.085  16.913  0.00  0.00    +0.000 A 
ATOM     13  C   UNL     1       5.344   5.890  15.630  0.00  0.00    +0.000 A 
ATOM     14  C   UNL     1       6.492   5.115  15.455  0.00  0.00    +0.000 A 
ATOM     15 CL   UNL     1       7.083   4.803  13.870  0.00  0.00    +0.000 Cl
ATOM     16  C   UNL     1       7.160   4.585  16.557  0.00  0.00    +0.000 A 
ATOM     17  C   UNL     1       6.666   4.812  17.840  0.00  0.00    +0.000 A 
ENDBRANCH  10  11
ENDBRANCH   6  10
TORSDOF 3
ENDMDL
MODEL 3
REMARK VINA RESULT:      -6.7      1.193      1.259
REMARK  Name = 
REMARK  5 active torsions:
REMARK  status: ('A' for Active; 'I' for Inactive)
REMARK    1  A    between atoms: C_1  and  C_2
REMARK    2  A    between atoms: N_4  and  C_5
REMARK    3  A    between atoms: C_6  and  O_7
REMARK    4  A    between atoms: O_7  and  C_8
REMARK    5  A    between atoms: C_15  and  C_16
REMARK                            x       y       z     vdW  Elec       q    Type
REMARK                         _______ _______ _______ _____ _____    ______ ____
ROOT
ATOM      1  C   UNL     1       8.409   8.340  18.246  0.00  0.00    +0.000 C 
ATOM      2  C   UNL     1       7.501   7.279  17.739  0.00  0.00    +0.000 A 
ATOM      3  N   UNL     1       6.693   7.517  16.701  0.00  0.00    +0.000 NA
ATOM      4  N   UNL     1       6.039   6.356  16.526  0.00  0.00    +0.000 N 
ATOM      5  C   UNL     1       5.101   6.230  15.433  0.00  0.00    +0.000 C 
ATOM      6  C   UNL     1       6.406   5.367  17.405  0.00  0.00    +0.000 A 
ATOM      7  C   UNL     1       7.339   5.959  18.246  0.00  0.00    +0.000 A 
ENDROOT
BRANCH   7   8
ATOM      8  C   UNL     1       8.024   5.373  19.377  0.00  0.00    +0.000 C 
ATOM      9  O   UNL     1       7.551   5.338  20.512  0.00  0.00    +0.000 OA
ENDBRANCH   7   8
BRANCH   6  10
ATOM     10  O   UNL     1       5.857   4.149  17.294  0.00  0.00    +0.000 OA
BRANCH  10  11
ATOM     11  C   UNL     1       4.706   3.814  17.964  0.00  0.00    +0.000 A 
ATOM     12  C   UNL     1       3.516   3.806  17.234  0.00  0.00    +0.000 A 
ATOM     13  C   UNL     1       2.306   3.558  17.885  0.00  0.00    +0.000 A 
ATOM     14  C   UNL     1       2.293   3.321  19.260  0.00  0.00    +0.000 A 
ATOM     15 CL   UNL     1       0.798   3.099  20.080  0.00  0.00    +0.000 Cl
ATOM     16  C   UNL     1       3.487   3.272  19.979  0.00  0.00    +0.000 A 
ATOM     17  C   UNL     1       4.698   3.481  19.322  0.00  0.00    +0.000 A 
ENDBRANCH  10  11
ENDBRANCH   6  10
TORSDOF 3
ENDMDL
MODEL 4
REMARK VINA RESULT:      -6.6      1.629      1.733
REMARK  Name = 
REMARK  5 active torsions:
REMARK  status: ('A' for Active; 'I' for Inactive)
REMARK    1  A    between atoms: C_1  and  C_2
REMARK    2  A    between atoms: N_4  and  C_5
REMARK    3  A    between atoms: C_6  and  O_7
REMARK    4  A    between atoms: O_7  and  C_8
REMARK    5  A    between atoms: C_15  and  C_16
REMARK                            x       y       z     vdW  Elec       q    Type
REMARK                         _______ _______ _______ _____ _____    ______ ____
ROOT
ATOM      1  C   UNL     1       7.365   7.873  17.380  0.00  0.00    +0.000 C 
ATOM      2  C   UNL     1       6.601   6.696  16.896  0.00  0.00    +0.000 A 
ATOM      3  N   UNL     1       7.154   5.836  16.034  0.00  0.00    +0.000 NA
ATOM      4  N   UNL     1       6.194   4.918  15.828  0.00  0.00    +0.000 N 
ATOM      5  C   UNL     1       6.469   3.786  14.974  0.00  0.00    +0.000 C 
ATOM      6  C   UNL     1       5.041   5.144  16.538  0.00  0.00    +0.000 A 
ATOM      7  C   UNL     1       5.263   6.334  17.220  0.00  0.00    +0.000 A 
ENDROOT
BRANCH   7   8
ATOM      8  C   UNL     1       4.357   7.050  18.090  0.00  0.00    +0.000 C 
ATOM      9  O   UNL     1       3.363   7.652  17.686  0.00  0.00    +0.000 OA
ENDBRANCH   7   8
BRANCH   6  10
ATOM     10  O   UNL     1       4.032   4.267  16.453  0.00  0.00    +0.000 OA
BRANCH  10  11
ATOM     11  C   UNL     1       3.383   3.805  17.571  0.00  0.00    +0.000 A 
ATOM     12  C   UNL     1       2.035   4.137  17.716  0.00  0.00    +0.000 A 
ATOM     13  C   UNL     1       1.350   3.767  18.876  0.00  0.00    +0.000 A 
ATOM     14  C   UNL     1       2.019   3.069  19.883  0.00  0.00    +0.000 A 
ATOM     15 CL   UNL     1       1.203   2.686  21.348  0.00  0.00    +0.000 Cl
ATOM     16  C   UNL     1       3.348   2.687  19.714  0.00  0.00    +0.000 A 
ATOM     17  C   UNL     1       4.020   3.023  18.540  0.00  0.00    +0.000 A 
ENDBRANCH  10  11
ENDBRANCH   6  10
TORSDOF 3
ENDMDL
MODEL 5
REMARK VINA RESULT:      -6.5      3.620      5.647
REMARK  Name = 
REMARK  5 active torsions:
REMARK  status: ('A' for Active; 'I' for Inactive)
REMARK    1  A    between atoms: C_1  and  C_2
REMARK    2  A    between atoms: N_4  and  C_5
REMARK    3  A    between atoms: C_6  and  O_7
REMARK    4  A    between atoms: O_7  and  C_8
REMARK    5  A    between atoms: C_15  and  C_16
REMARK                            x       y       z     vdW  Elec       q    Type
REMARK                         _______ _______ _______ _____ _____    ______ ____
ROOT
ATOM      1  C   UNL     1       1.214   2.731  21.342  0.00  0.00    +0.000 C 
ATOM      2  C   UNL     1       2.041   3.783  20.697  0.00  0.00    +0.000 A 
ATOM      3  N   UNL     1       1.575   5.030  20.571  0.00  0.00    +0.000 NA
ATOM      4  N   UNL     1       2.573   5.690  19.960  0.00  0.00    +0.000 N 
ATOM      5  C   UNL     1       2.434   7.106  19.707  0.00  0.00    +0.000 C 
ATOM      6  C   UNL     1       3.678   4.918  19.698  0.00  0.00    +0.000 A 
ATOM      7  C   UNL     1       3.341   3.644  20.135  0.00  0.00    +0.000 A 
ENDROOT
BRANCH   7   8
ATOM      8  C   UNL     1       4.131   2.435  20.064  0.00  0.00    +0.000 C 
ATOM      9  O   UNL     1       4.003   1.592  19.178  0.00  0.00    +0.000 OA
ENDBRANCH   7   8
BRANCH   6  10
ATOM     10  O   UNL     1       4.757   5.481  19.136  0.00  0.00    +0.000 OA
BRANCH  10  11
ATOM     11  C   UNL     1       5.215   5.087  17.903  0.00  0.00    +0.000 A 
ATOM     12  C   UNL     1       6.598   5.008  17.726  0.00  0.00    +0.000 A 
ATOM     13  C   UNL     1       7.119   4.696  16.468  0.00  0.00    +0.000 A 
ATOM     14  C   UNL     1       6.254   4.468  15.397  0.00  0.00    +0.000 A 
ATOM     15 CL   UNL     1       6.892   4.167  13.829  0.00  0.00    +0.000 Cl
ATOM     16  C   UNL     1       4.874   4.489  15.587  0.00  0.00    +0.000 A 
ATOM     17  C   UNL     1       4.354   4.761  16.851  0.00  0.00    +0.000 A 
ENDBRANCH  10  11
ENDBRANCH   6  10
TORSDOF 3
ENDMDL
MODEL 6
REMARK VINA RESULT:      -6.5      3.513      5.541
REMARK  Name = 
REMARK  5 active torsions:
REMARK  status: ('A' for Active; 'I' for Inactive)
REMARK    1  A    between atoms: C_1  and  C_2
REMARK    2  A    between atoms: N_4  and  C_5
REMARK    3  A    between atoms: C_6  and  O_7
REMARK    4  A    between atoms: O_7  and  C_8
REMARK    5  A    between atoms: C_15  and  C_16
REMARK                            x       y       z     vdW  Elec       q    Type
REMARK                         _______ _______ _______ _____ _____    ______ ____
ROOT
ATOM      1  C   UNL     1       1.536   2.545  21.877  0.00  0.00    +0.000 C 
ATOM      2  C   UNL     1       2.010   2.937  20.525  0.00  0.00    +0.000 A 
ATOM      3  N   UNL     1       1.160   3.460  19.635  0.00  0.00    +0.000 NA
ATOM      4  N   UNL     1       1.924   3.691  18.553  0.00  0.00    +0.000 N 
ATOM      5  C   UNL     1       1.335   4.315  17.391  0.00  0.00    +0.000 C 
ATOM      6  C   UNL     1       3.244   3.349  18.716  0.00  0.00    +0.000 A 
ATOM      7  C   UNL     1       3.323   2.809  19.993  0.00  0.00    +0.000 A 
ENDROOT
BRANCH   7   8
ATOM      8  C   UNL     1       4.480   2.256  20.661  0.00  0.00    +0.000 C 
ATOM      9  O   UNL     1       5.216   1.411  20.155  0.00  0.00    +0.000 OA
ENDBRANCH   7   8
BRANCH   6  10
ATOM     10  O   UNL     1       4.112   3.581  17.722  0.00  0.00    +0.000 OA
BRANCH  10  11
ATOM     11  C   UNL     1       4.996   4.631  17.768  0.00  0.00    +0.000 A 
ATOM     12  C   UNL     1       4.584   5.843  17.212  0.00  0.00    +0.000 A 
ATOM     13  C   UNL     1       5.476   6.917  17.154  0.00  0.00    +0.000 A 
ATOM     14  C   UNL     1       6.771   6.771  17.652  0.00  0.00    +0.000 A 
ATOM     15 CL   UNL     1       7.896   8.063  17.507  0.00  0.00    +0.000 Cl
ATOM     16  C   UNL     1       7.164   5.580  18.260  0.00  0.00    +0.000 A 
ATOM     17  C   UNL     1       6.262   4.522  18.352  0.00  0.00    +0.000 A 
ENDBRANCH  10  11
ENDBRANCH   6  10
TORSDOF 3
ENDMDL
MODEL 7
REMARK VINA RESULT:      -6.5      3.778      4.731
REMARK  Name = 
REMARK  5 active torsions:
REMARK  status: ('A' for Active; 'I' for Inactive)
REMARK    1  A    between atoms: C_1  and  C_2
REMARK    2  A    between atoms: N_4  and  C_5
REMARK    3  A    between atoms: C_6  and  O_7
REMARK    4  A    between atoms: O_7  and  C_8
REMARK    5  A    between atoms: C_15  and  C_16
REMARK                            x       y       z     vdW  Elec       q    Type
REMARK                         _______ _______ _______ _____ _____    ______ ____
ROOT
ATOM      1  C   UNL     1       7.708   4.929  18.187  0.00  0.00    +0.000 C 
ATOM      2  C   UNL     1       6.232   4.904  18.343  0.00  0.00    +0.000 A 
ATOM      3  N   UNL     1       5.648   3.999  19.135  0.00  0.00    +0.000 NA
ATOM      4  N   UNL     1       4.337   4.275  19.035  0.00  0.00    +0.000 N 
ATOM      5  C   UNL     1       3.390   3.512  19.816  0.00  0.00    +0.000 C 
ATOM      6  C   UNL     1       4.049   5.339  18.216  0.00  0.00    +0.000 A 
ATOM      7  C   UNL     1       5.277   5.749  17.711  0.00  0.00    +0.000 A 
ENDROOT
BRANCH   7   8
ATOM      8  C   UNL     1       5.547   6.812  16.768  0.00  0.00    +0.000 C 
ATOM      9  O   UNL     1       5.308   6.728  15.565  0.00  0.00    +0.000 OA
ENDBRANCH   7   8
BRANCH   6  10
ATOM     10  O   UNL     1       2.778   5.740  18.079  0.00  0.00    +0.000 OA
BRANCH  10  11
ATOM     11  C   UNL     1       2.339   6.931  18.602  0.00  0.00    +0.000 A 
ATOM     12  C   UNL     1       2.087   6.976  19.975  0.00  0.00    +0.000 A 
ATOM     13  C   UNL     1       1.556   8.136  20.545  0.00  0.00    +0.000 A 
ATOM     14  C   UNL     1       1.279   9.241  19.739  0.00  0.00    +0.000 A 
ATOM     15 CL   UNL     1       0.548  10.639  20.421  0.00  0.00    +0.000 Cl
ATOM     16  C   UNL     1       1.585   9.217  18.379  0.00  0.00    +0.000 A 
ATOM     17  C   UNL     1       2.150   8.073  17.818  0.00  0.00    +0.000 A 
ENDBRANCH  10  11
ENDBRANCH   6  10
TORSDOF 3
ENDMDL
MODEL 8
REMARK VINA RESULT:      -6.3      3.527      5.741
REMARK  Name = 
REMARK  5 active torsions:
REMARK  status: ('A' for Active; 'I' for Inactive)
REMARK    1  A    between atoms: C_1  and  C_2
REMARK    2  A    between atoms: N_4  and  C_5
REMARK    3  A    between atoms: C_6  and  O_7
REMARK    4  A    between atoms: O_7  and  C_8
REMARK    5  A    between atoms: C_15  and  C_16
REMARK                            x       y       z     vdW  Elec       q    Type
REMARK                         _______ _______ _______ _____ _____    ______ ____
ROOT
ATOM      1  C   UNL     1       0.508   2.271  18.894  0.00  0.00    +0.000 C 
ATOM      2  C   UNL     1       1.552   3.322  18.987  0.00  0.00    +0.000 A 
ATOM      3  N   UNL     1       1.250   4.539  19.451  0.00  0.00    +0.000 NA
ATOM      4  N   UNL     1       2.415   5.207  19.396  0.00  0.00    +0.000 N 
ATOM      5  C   UNL     1       2.475   6.567  19.880  0.00  0.00    +0.000 C 
ATOM      6  C   UNL     1       3.467   4.460  18.926  0.00  0.00    +0.000 A 
ATOM      7  C   UNL     1       2.920   3.224  18.608  0.00  0.00    +0.000 A 
ENDROOT
BRANCH   7   8
ATOM      8  C   UNL     1       3.583   2.072  18.038  0.00  0.00    +0.000 C 
ATOM      9  O   UNL     1       3.875   1.068  18.686  0.00  0.00    +0.000 OA
ENDBRANCH   7   8
BRANCH   6  10
ATOM     10  O   UNL     1       4.691   5.005  18.875  0.00  0.00    +0.000 OA
BRANCH  10  11
ATOM     11  C   UNL     1       5.400   5.072  17.701  0.00  0.00    +0.000 A 
ATOM     12  C   UNL     1       4.773   5.665  16.604  0.00  0.00    +0.000 A 
ATOM     13  C   UNL     1       5.416   5.680  15.363  0.00  0.00    +0.000 A 
ATOM     14  C   UNL     1       6.679   5.103  15.229  0.00  0.00    +0.000 A 
ATOM     15 CL   UNL     1       7.437   5.046  13.687  0.00  0.00    +0.000 Cl
ATOM     16  C   UNL     1       7.330   4.563  16.337  0.00  0.00    +0.000 A 
ATOM     17  C   UNL     1       6.704   4.582  17.583  0.00  0.00    +0.000 A 
ENDBRANCH  10  11
ENDBRANCH   6  10
TORSDOF 3
ENDMDL
MODEL 9
REMARK VINA RESULT:      -6.3      1.676      2.070
REMARK  Name = 
REMARK  5 active torsions:
REMARK  status: ('A' for Active; 'I' for Inactive)
REMARK    1  A    between atoms: C_1  and  C_2
REMARK    2  A    between atoms: N_4  and  C_5
REMARK    3  A    between atoms: C_6  and  O_7
REMARK    4  A    between atoms: O_7  and  C_8
REMARK    5  A    between atoms: C_15  and  C_16
REMARK                            x       y       z     vdW  Elec       q    Type
REMARK                         _______ _______ _______ _____ _____    ______ ____
ROOT
ATOM      1  C   UNL     1       7.474   7.893  17.285  0.00  0.00    +0.000 C 
ATOM      2  C   UNL     1       6.677   6.704  16.890  0.00  0.00    +0.000 A 
ATOM      3  N   UNL     1       7.197   5.779  16.076  0.00  0.00    +0.000 NA
ATOM      4  N   UNL     1       6.215   4.871  15.946  0.00  0.00    +0.000 N 
ATOM      5  C   UNL     1       6.450   3.681  15.161  0.00  0.00    +0.000 C 
ATOM      6  C   UNL     1       5.079   5.167  16.660  0.00  0.00    +0.000 A 
ATOM      7  C   UNL     1       5.339   6.392  17.260  0.00  0.00    +0.000 A 
ENDROOT
BRANCH   7   8
ATOM      8  C   UNL     1       4.463   7.182  18.098  0.00  0.00    +0.000 C 
ATOM      9  O   UNL     1       3.486   7.794  17.671  0.00  0.00    +0.000 OA
ENDBRANCH   7   8
BRANCH   6  10
ATOM     10  O   UNL     1       4.051   4.308  16.647  0.00  0.00    +0.000 OA
BRANCH  10  11
ATOM     11  C   UNL     1       3.367   3.988  17.794  0.00  0.00    +0.000 A 
ATOM     12  C   UNL     1       4.069   3.315  18.796  0.00  0.00    +0.000 A 
ATOM     13  C   UNL     1       3.400   2.889  19.946  0.00  0.00    +0.000 A 
ATOM     14  C   UNL     1       2.034   3.138  20.085  0.00  0.00    +0.000 A 
ATOM     15 CL   UNL     1       1.189   2.542  21.459  0.00  0.00    +0.000 Cl
ATOM     16  C   UNL     1       1.345   3.860  19.112  0.00  0.00    +0.000 A 
ATOM     17  C   UNL     1       2.022   4.318  17.983  0.00  0.00    +0.000 A 
ENDBRANCH  10  11
ENDBRANCH   6  10
TORSDOF 3
ENDMDL
