MODEL 1
REMARK VINA RESULT:      -6.7      0.000      0.000
REMARK  Name = 
REMARK  7 active torsions:
REMARK  status: ('A' for Active; 'I' for Inactive)
REMARK    1  A    between atoms: C_1  and  C_2
REMARK    2  A    between atoms: C_2  and  C_3
REMARK    3  A    between atoms: C_2  and  C_4
REMARK    4  A    between atoms: C_2  and  O_5
REMARK    5  A    between atoms: O_5  and  C_6
REMARK    6  A    between atoms: C_11  and  N_12
REMARK    7  A    between atoms: C_14  and  N_15
REMARK                            x       y       z     vdW  Elec       q    Type
REMARK                         _______ _______ _______ _____ _____    ______ ____
ROOT
ATOM      1  C   UNL     1       4.278   3.015  19.602  0.00  0.00    +0.000 C 
ATOM      2  O   UNL     1       5.035   2.778  20.539  0.00  0.00    +0.000 OA
ATOM      3  N   UNL     1       4.708   3.684  18.473  0.00  0.00    +0.000 N 
ATOM      4  C   UNL     1       6.135   3.939  18.332  0.00  0.00    +0.000 C 
ATOM      5  C   UNL     1       6.390   5.370  17.880  0.00  0.00    +0.000 C 
ATOM      6  C   UNL     1       5.570   5.742  16.639  0.00  0.00    +0.000 C 
ATOM      7  C   UNL     1       4.086   5.386  16.824  0.00  0.00    +0.000 C 
ATOM      8  C   UNL     1       3.873   3.953  17.308  0.00  0.00    +0.000 C 
ENDROOT
BRANCH   6   9
ATOM      9  N   UNL     1       6.132   5.195  15.407  0.00  0.00    +0.000 N 
ATOM     10  C   UNL     1       5.551   4.263  14.590  0.00  0.00    +0.000 A 
ATOM     11  C   UNL     1       6.421   4.083  13.554  0.00  0.00    +0.000 A 
ATOM     12  C   UNL     1       7.506   4.934  13.822  0.00  0.00    +0.000 A 
ATOM     13  N   UNL     1       7.337   5.607  14.961  0.00  0.00    +0.000 NA
BRANCH  11  14
ATOM     14  N   UNL     1       6.247   3.260  12.512  0.00  0.00    +0.000 N 
ATOM     15  H   UNL     1       5.349   2.847  12.284  0.00  0.00    +0.000 HD
ATOM     16  H   UNL     1       6.999   3.012  11.876  0.00  0.00    +0.000 HD
ENDBRANCH  11  14
ENDBRANCH   6   9
BRANCH   1  17
ATOM     17  O   UNL     1       2.960   2.673  19.584  0.00  0.00    +0.000 OA
BRANCH  17  19
ATOM     18  C   UNL     1       2.493   4.835  20.634  0.00  0.00    +0.000 C 
ATOM     19  C   UNL     1       2.055   3.372  20.476  0.00  0.00    +0.000 C 
ATOM     20  C   UNL     1       1.921   2.637  21.820  0.00  0.00    +0.000 C 
ATOM     21  C   UNL     1       0.669   3.377  19.807  0.00  0.00    +0.000 C 
ENDBRANCH  17  19
ENDBRANCH   1  17
TORSDOF 4
ENDMDL
MODEL 2
REMARK VINA RESULT:      -6.6      1.025      1.336
REMARK  Name = 
REMARK  7 active torsions:
REMARK  status: ('A' for Active; 'I' for Inactive)
REMARK    1  A    between atoms: C_1  and  C_2
REMARK    2  A    between atoms: C_2  and  C_3
REMARK    3  A    between atoms: C_2  and  C_4
REMARK    4  A    between atoms: C_2  and  O_5
REMARK    5  A    between atoms: O_5  and  C_6
REMARK    6  A    between atoms: C_11  and  N_12
REMARK    7  A    between atoms: C_14  and  N_15
REMARK                            x       y       z     vdW  Elec       q    Type
REMARK                         _______ _______ _______ _____ _____    ______ ____
ROOT
ATOM      1  C   UNL     1       4.497   3.935  19.218  0.00  0.00    +0.000 C 
ATOM      2  O   UNL     1       5.194   3.449  20.103  0.00  0.00    +0.000 OA
ATOM      3  N   UNL     1       5.040   4.381  18.029  0.00  0.00    +0.000 N 
ATOM      4  C   UNL     1       6.443   4.088  17.765  0.00  0.00    +0.000 C 
ATOM      5  C   UNL     1       7.164   5.316  17.229  0.00  0.00    +0.000 C 
ATOM      6  C   UNL     1       6.430   5.946  16.039  0.00  0.00    +0.000 C 
ATOM      7  C   UNL     1       4.942   6.168  16.355  0.00  0.00    +0.000 C 
ATOM      8  C   UNL     1       4.262   4.922  16.920  0.00  0.00    +0.000 C 
ENDROOT
BRANCH   6   9
ATOM      9  N   UNL     1       6.640   5.212  14.794  0.00  0.00    +0.000 N 
ATOM     10  C   UNL     1       5.845   4.218  14.291  0.00  0.00    +0.000 A 
ATOM     11  C   UNL     1       6.411   3.853  13.104  0.00  0.00    +0.000 A 
ATOM     12  C   UNL     1       7.549   4.666  12.966  0.00  0.00    +0.000 A 
ATOM     13  N   UNL     1       7.697   5.491  14.004  0.00  0.00    +0.000 NA
BRANCH  11  14
ATOM     14  N   UNL     1       5.953   2.915  12.267  0.00  0.00    +0.000 N 
ATOM     15  H   UNL     1       5.712   1.978  12.574  0.00  0.00    +0.000 HD
ATOM     16  H   UNL     1       5.804   3.085  11.277  0.00  0.00    +0.000 HD
ENDBRANCH  11  14
ENDBRANCH   6   9
BRANCH   1  17
ATOM     17  O   UNL     1       3.149   4.105  19.317  0.00  0.00    +0.000 OA
BRANCH  17  19
ATOM     18  C   UNL     1       1.878   2.610  20.782  0.00  0.00    +0.000 C 
ATOM     19  C   UNL     1       2.307   2.924  19.341  0.00  0.00    +0.000 C 
ATOM     20  C   UNL     1       2.993   1.737  18.647  0.00  0.00    +0.000 C 
ATOM     21  C   UNL     1       1.033   3.258  18.545  0.00  0.00    +0.000 C 
ENDBRANCH  17  19
ENDBRANCH   1  17
TORSDOF 4
ENDMDL
MODEL 3
REMARK VINA RESULT:      -6.5      0.253      1.053
REMARK  Name = 
REMARK  7 active torsions:
REMARK  status: ('A' for Active; 'I' for Inactive)
REMARK    1  A    between atoms: C_1  and  C_2
REMARK    2  A    between atoms: C_2  and  C_3
REMARK    3  A    between atoms: C_2  and  C_4
REMARK    4  A    between atoms: C_2  and  O_5
REMARK    5  A    between atoms: O_5  and  C_6
REMARK    6  A    between atoms: C_11  and  N_12
REMARK    7  A    between atoms: C_14  and  N_15
REMARK                            x       y       z     vdW  Elec       q    Type
REMARK                         _______ _______ _______ _____ _____    ______ ____
ROOT
ATOM      1  C   UNL     1       4.144   2.839  19.726  0.00  0.00    +0.000 C 
ATOM      2  O   UNL     1       4.888   2.609  20.675  0.00  0.00    +0.000 OA
ATOM      3  N   UNL     1       4.573   3.549  18.623  0.00  0.00    +0.000 N 
ATOM      4  C   UNL     1       5.993   3.861  18.519  0.00  0.00    +0.000 C 
ATOM      5  C   UNL     1       6.203   5.310  18.105  0.00  0.00    +0.000 C 
ATOM      6  C   UNL     1       5.397   5.678  16.853  0.00  0.00    +0.000 C 
ATOM      7  C   UNL     1       3.924   5.263  16.996  0.00  0.00    +0.000 C 
ATOM      8  C   UNL     1       3.756   3.812  17.444  0.00  0.00    +0.000 C 
ENDROOT
BRANCH   6   9
ATOM      9  N   UNL     1       6.007   5.180  15.623  0.00  0.00    +0.000 N 
ATOM     10  C   UNL     1       5.475   4.255  14.767  0.00  0.00    +0.000 A 
ATOM     11  C   UNL     1       6.377   4.127  13.750  0.00  0.00    +0.000 A 
ATOM     12  C   UNL     1       7.430   5.001  14.070  0.00  0.00    +0.000 A 
ATOM     13  N   UNL     1       7.211   5.639  15.222  0.00  0.00    +0.000 NA
BRANCH  11  14
ATOM     14  N   UNL     1       6.255   3.328  12.683  0.00  0.00    +0.000 N 
ATOM     15  H   UNL     1       5.695   2.482  12.693  0.00  0.00    +0.000 HD
ATOM     16  H   UNL     1       6.701   3.528  11.793  0.00  0.00    +0.000 HD
ENDBRANCH  11  14
ENDBRANCH   6   9
BRANCH   1  17
ATOM     17  O   UNL     1       2.841   2.447  19.670  0.00  0.00    +0.000 OA
BRANCH  17  19
ATOM     18  C   UNL     1       1.641   2.522  21.803  0.00  0.00    +0.000 C 
ATOM     19  C   UNL     1       1.864   3.193  20.440  0.00  0.00    +0.000 C 
ATOM     20  C   UNL     1       0.562   3.389  19.647  0.00  0.00    +0.000 C 
ATOM     21  C   UNL     1       2.462   4.586  20.707  0.00  0.00    +0.000 C 
ENDBRANCH  17  19
ENDBRANCH   1  17
TORSDOF 4
ENDMDL
MODEL 4
REMARK VINA RESULT:      -6.4      1.097      1.439
REMARK  Name = 
REMARK  7 active torsions:
REMARK  status: ('A' for Active; 'I' for Inactive)
REMARK    1  A    between atoms: C_1  and  C_2
REMARK    2  A    between atoms: C_2  and  C_3
REMARK    3  A    between atoms: C_2  and  C_4
REMARK    4  A    between atoms: C_2  and  O_5
REMARK    5  A    between atoms: O_5  and  C_6
REMARK    6  A    between atoms: C_11  and  N_12
REMARK    7  A    between atoms: C_14  and  N_15
REMARK                            x       y       z     vdW  Elec       q    Type
REMARK                         _______ _______ _______ _____ _____    ______ ____
ROOT
ATOM      1  C   UNL     1       4.527   3.931  19.130  0.00  0.00    +0.000 C 
ATOM      2  O   UNL     1       5.204   3.388  19.999  0.00  0.00    +0.000 OA
ATOM      3  N   UNL     1       5.083   4.372  17.947  0.00  0.00    +0.000 N 
ATOM      4  C   UNL     1       6.466   4.010  17.664  0.00  0.00    +0.000 C 
ATOM      5  C   UNL     1       7.249   5.209  17.148  0.00  0.00    +0.000 C 
ATOM      6  C   UNL     1       6.541   5.903  15.978  0.00  0.00    +0.000 C 
ATOM      7  C   UNL     1       5.070   6.198  16.312  0.00  0.00    +0.000 C 
ATOM      8  C   UNL     1       4.328   4.979  16.857  0.00  0.00    +0.000 C 
ENDROOT
BRANCH   6   9
ATOM      9  N   UNL     1       6.700   5.186  14.716  0.00  0.00    +0.000 N 
ATOM     10  C   UNL     1       5.905   4.176  14.247  0.00  0.00    +0.000 A 
ATOM     11  C   UNL     1       6.413   3.837  13.027  0.00  0.00    +0.000 A 
ATOM     12  C   UNL     1       7.520   4.682  12.834  0.00  0.00    +0.000 A 
ATOM     13  N   UNL     1       7.704   5.501  13.871  0.00  0.00    +0.000 NA
BRANCH  11  14
ATOM     14  N   UNL     1       5.935   2.893  12.207  0.00  0.00    +0.000 N 
ATOM     15  H   UNL     1       5.701   1.959  12.525  0.00  0.00    +0.000 HD
ATOM     16  H   UNL     1       5.761   3.058  11.220  0.00  0.00    +0.000 HD
ENDBRANCH  11  14
ENDBRANCH   6   9
BRANCH   1  17
ATOM     17  O   UNL     1       3.191   4.171  19.246  0.00  0.00    +0.000 OA
BRANCH  17  19
ATOM     18  C   UNL     1       1.150   3.394  18.140  0.00  0.00    +0.000 C 
ATOM     19  C   UNL     1       2.278   3.051  19.124  0.00  0.00    +0.000 C 
ATOM     20  C   UNL     1       1.758   2.604  20.500  0.00  0.00    +0.000 C 
ATOM     21  C   UNL     1       3.072   1.879  18.522  0.00  0.00    +0.000 C 
ENDBRANCH  17  19
ENDBRANCH   1  17
TORSDOF 4
ENDMDL
MODEL 5
REMARK VINA RESULT:      -6.3      2.301      3.765
REMARK  Name = 
REMARK  7 active torsions:
REMARK  status: ('A' for Active; 'I' for Inactive)
REMARK    1  A    between atoms: C_1  and  C_2
REMARK    2  A    between atoms: C_2  and  C_3
REMARK    3  A    between atoms: C_2  and  C_4
REMARK    4  A    between atoms: C_2  and  O_5
REMARK    5  A    between atoms: O_5  and  C_6
REMARK    6  A    between atoms: C_11  and  N_12
REMARK    7  A    between atoms: C_14  and  N_15
REMARK                            x       y       z     vdW  Elec       q    Type
REMARK                         _______ _______ _______ _____ _____    ______ ____
ROOT
ATOM      1  C   UNL     1       3.218   3.989  18.244  0.00  0.00    +0.000 C 
ATOM      2  O   UNL     1       2.310   4.043  17.421  0.00  0.00    +0.000 OA
ATOM      3  N   UNL     1       4.413   4.653  18.053  0.00  0.00    +0.000 N 
ATOM      4  C   UNL     1       4.508   5.582  16.933  0.00  0.00    +0.000 C 
ATOM      5  C   UNL     1       5.812   5.388  16.174  0.00  0.00    +0.000 C 
ATOM      6  C   UNL     1       7.033   5.413  17.102  0.00  0.00    +0.000 C 
ATOM      7  C   UNL     1       6.844   4.465  18.297  0.00  0.00    +0.000 C 
ATOM      8  C   UNL     1       5.510   4.669  19.013  0.00  0.00    +0.000 C 
ENDROOT
BRANCH   6   9
ATOM      9  N   UNL     1       7.406   6.766  17.507  0.00  0.00    +0.000 N 
ATOM     10  C   UNL     1       8.261   7.106  18.520  0.00  0.00    +0.000 A 
ATOM     11  C   UNL     1       8.327   8.469  18.509  0.00  0.00    +0.000 A 
ATOM     12  C   UNL     1       7.478   8.878  17.467  0.00  0.00    +0.000 A 
ATOM     13  N   UNL     1       6.905   7.838  16.859  0.00  0.00    +0.000 NA
BRANCH  11  14
ATOM     14  N   UNL     1       9.059   9.230  19.332  0.00  0.00    +0.000 N 
ATOM     15  H   UNL     1       9.210   8.995  20.307  0.00  0.00    +0.000 HD
ATOM     16  H   UNL     1       9.522  10.081  19.028  0.00  0.00    +0.000 HD
ENDBRANCH  11  14
ENDBRANCH   6   9
BRANCH   1  17
ATOM     17  O   UNL     1       3.156   3.268  19.398  0.00  0.00    +0.000 OA
BRANCH  17  19
ATOM     18  C   UNL     1       2.022   5.133  20.506  0.00  0.00    +0.000 C 
ATOM     19  C   UNL     1       2.133   3.608  20.368  0.00  0.00    +0.000 C 
ATOM     20  C   UNL     1       2.383   2.901  21.711  0.00  0.00    +0.000 C 
ATOM     21  C   UNL     1       0.792   3.097  19.814  0.00  0.00    +0.000 C 
ENDBRANCH  17  19
ENDBRANCH   1  17
TORSDOF 4
ENDMDL
MODEL 6
REMARK VINA RESULT:      -6.2      2.311      3.878
REMARK  Name = 
REMARK  7 active torsions:
REMARK  status: ('A' for Active; 'I' for Inactive)
REMARK    1  A    between atoms: C_1  and  C_2
REMARK    2  A    between atoms: C_2  and  C_3
REMARK    3  A    between atoms: C_2  and  C_4
REMARK    4  A    between atoms: C_2  and  O_5
REMARK    5  A    between atoms: O_5  and  C_6
REMARK    6  A    between atoms: C_11  and  N_12
REMARK    7  A    between atoms: C_14  and  N_15
REMARK                            x       y       z     vdW  Elec       q    Type
REMARK                         _______ _______ _______ _____ _____    ______ ____
ROOT
ATOM      1  C   UNL     1       3.246   4.003  18.255  0.00  0.00    +0.000 C 
ATOM      2  O   UNL     1       2.319   4.075  17.454  0.00  0.00    +0.000 OA
ATOM      3  N   UNL     1       4.436   4.673  18.051  0.00  0.00    +0.000 N 
ATOM      4  C   UNL     1       4.503   5.628  16.952  0.00  0.00    +0.000 C 
ATOM      5  C   UNL     1       5.790   5.454  16.158  0.00  0.00    +0.000 C 
ATOM      6  C   UNL     1       7.032   5.458  17.058  0.00  0.00    +0.000 C 
ATOM      7  C   UNL     1       6.872   4.482  18.234  0.00  0.00    +0.000 C 
ATOM      8  C   UNL     1       5.555   4.667  18.986  0.00  0.00    +0.000 C 
ENDROOT
BRANCH   6   9
ATOM      9  N   UNL     1       7.413   6.801  17.487  0.00  0.00    +0.000 N 
ATOM     10  C   UNL     1       8.274   7.119  18.502  0.00  0.00    +0.000 A 
ATOM     11  C   UNL     1       8.347   8.481  18.516  0.00  0.00    +0.000 A 
ATOM     12  C   UNL     1       7.496   8.914  17.484  0.00  0.00    +0.000 A 
ATOM     13  N   UNL     1       6.915   7.887  16.860  0.00  0.00    +0.000 NA
BRANCH  11  14
ATOM     14  N   UNL     1       9.086   9.224  19.349  0.00  0.00    +0.000 N 
ATOM     15  H   UNL     1       8.872  10.194  19.554  0.00  0.00    +0.000 HD
ATOM     16  H   UNL     1       9.897   8.859  19.839  0.00  0.00    +0.000 HD
ENDBRANCH  11  14
ENDBRANCH   6   9
BRANCH   1  17
ATOM     17  O   UNL     1       3.211   3.254  19.392  0.00  0.00    +0.000 OA
BRANCH  17  19
ATOM     18  C   UNL     1       2.450   2.814  21.677  0.00  0.00    +0.000 C 
ATOM     19  C   UNL     1       2.128   3.477  20.330  0.00  0.00    +0.000 C 
ATOM     20  C   UNL     1       0.782   3.021  19.744  0.00  0.00    +0.000 C 
ATOM     21  C   UNL     1       2.042   4.994  20.574  0.00  0.00    +0.000 C 
ENDBRANCH  17  19
ENDBRANCH   1  17
TORSDOF 4
ENDMDL
MODEL 7
REMARK VINA RESULT:      -6.2      2.489      4.019
REMARK  Name = 
REMARK  7 active torsions:
REMARK  status: ('A' for Active; 'I' for Inactive)
REMARK    1  A    between atoms: C_1  and  C_2
REMARK    2  A    between atoms: C_2  and  C_3
REMARK    3  A    between atoms: C_2  and  C_4
REMARK    4  A    between atoms: C_2  and  O_5
REMARK    5  A    between atoms: O_5  and  C_6
REMARK    6  A    between atoms: C_11  and  N_12
REMARK    7  A    between atoms: C_14  and  N_15
REMARK                            x       y       z     vdW  Elec       q    Type
REMARK                         _______ _______ _______ _____ _____    ______ ____
ROOT
ATOM      1  C   UNL     1       2.705   4.817  18.497  0.00  0.00    +0.000 C 
ATOM      2  O   UNL     1       1.888   4.845  17.581  0.00  0.00    +0.000 OA
ATOM      3  N   UNL     1       4.003   5.253  18.325  0.00  0.00    +0.000 N 
ATOM      4  C   UNL     1       4.338   5.930  17.079  0.00  0.00    +0.000 C 
ATOM      5  C   UNL     1       5.652   5.410  16.513  0.00  0.00    +0.000 C 
ATOM      6  C   UNL     1       6.781   5.434  17.552  0.00  0.00    +0.000 C 
ATOM      7  C   UNL     1       6.343   4.766  18.866  0.00  0.00    +0.000 C 
ATOM      8  C   UNL     1       5.006   5.292  19.384  0.00  0.00    +0.000 C 
ENDROOT
BRANCH   6   9
ATOM      9  N   UNL     1       7.333   6.770  17.753  0.00  0.00    +0.000 N 
ATOM     10  C   UNL     1       8.164   7.164  18.767  0.00  0.00    +0.000 A 
ATOM     11  C   UNL     1       8.443   8.478  18.531  0.00  0.00    +0.000 A 
ATOM     12  C   UNL     1       7.736   8.808  17.362  0.00  0.00    +0.000 A 
ATOM     13  N   UNL     1       7.047   7.767  16.891  0.00  0.00    +0.000 NA
BRANCH  11  14
ATOM     14  N   UNL     1       9.231   9.264  19.274  0.00  0.00    +0.000 N 
ATOM     15  H   UNL     1       8.867  10.009  19.859  0.00  0.00    +0.000 HD
ATOM     16  H   UNL     1      10.240   9.154  19.313  0.00  0.00    +0.000 HD
ENDBRANCH  11  14
ENDBRANCH   6   9
BRANCH   1  17
ATOM     17  O   UNL     1       2.432   4.344  19.745  0.00  0.00    +0.000 OA
BRANCH  17  19
ATOM     18  C   UNL     1       3.193   2.075  19.228  0.00  0.00    +0.000 C 
ATOM     19  C   UNL     1       2.110   2.937  19.892  0.00  0.00    +0.000 C 
ATOM     20  C   UNL     1       0.697   2.633  19.371  0.00  0.00    +0.000 C 
ATOM     21  C   UNL     1       2.131   2.621  21.398  0.00  0.00    +0.000 C 
ENDBRANCH  17  19
ENDBRANCH   1  17
TORSDOF 4
ENDMDL
MODEL 8
REMARK VINA RESULT:      -6.2      2.369      3.893
REMARK  Name = 
REMARK  7 active torsions:
REMARK  status: ('A' for Active; 'I' for Inactive)
REMARK    1  A    between atoms: C_1  and  C_2
REMARK    2  A    between atoms: C_2  and  C_3
REMARK    3  A    between atoms: C_2  and  C_4
REMARK    4  A    between atoms: C_2  and  O_5
REMARK    5  A    between atoms: O_5  and  C_6
REMARK    6  A    between atoms: C_11  and  N_12
REMARK    7  A    between atoms: C_14  and  N_15
REMARK                            x       y       z     vdW  Elec       q    Type
REMARK                         _______ _______ _______ _____ _____    ______ ____
ROOT
ATOM      1  C   UNL     1       2.786   4.528  18.183  0.00  0.00    +0.000 C 
ATOM      2  O   UNL     1       1.795   5.040  17.671  0.00  0.00    +0.000 OA
ATOM      3  N   UNL     1       4.057   5.016  17.952  0.00  0.00    +0.000 N 
ATOM      4  C   UNL     1       4.185   6.277  17.234  0.00  0.00    +0.000 C 
ATOM      5  C   UNL     1       5.265   6.189  16.166  0.00  0.00    +0.000 C 
ATOM      6  C   UNL     1       6.591   5.658  16.725  0.00  0.00    +0.000 C 
ATOM      7  C   UNL     1       6.380   4.365  17.528  0.00  0.00    +0.000 C 
ATOM      8  C   UNL     1       5.267   4.484  18.567  0.00  0.00    +0.000 C 
ENDROOT
BRANCH   6   9
ATOM      9  N   UNL     1       7.334   6.671  17.470  0.00  0.00    +0.000 N 
ATOM     10  C   UNL     1       7.488   7.986  17.125  0.00  0.00    +0.000 A 
ATOM     11  C   UNL     1       8.225   8.551  18.126  0.00  0.00    +0.000 A 
ATOM     12  C   UNL     1       8.484   7.509  19.034  0.00  0.00    +0.000 A 
ATOM     13  N   UNL     1       7.949   6.356  18.629  0.00  0.00    +0.000 NA
BRANCH  11  14
ATOM     14  N   UNL     1       8.605   9.832  18.200  0.00  0.00    +0.000 N 
ATOM     15  H   UNL     1       9.273  10.165  18.888  0.00  0.00    +0.000 HD
ATOM     16  H   UNL     1       8.262  10.545  17.565  0.00  0.00    +0.000 HD
ENDBRANCH  11  14
ENDBRANCH   6   9
BRANCH   1  17
ATOM     17  O   UNL     1       2.743   3.436  18.996  0.00  0.00    +0.000 OA
BRANCH  17  19
ATOM     18  C   UNL     1       0.623   3.021  20.147  0.00  0.00    +0.000 C 
ATOM     19  C   UNL     1       2.058   3.552  20.269  0.00  0.00    +0.000 C 
ATOM     20  C   UNL     1       2.122   4.991  20.806  0.00  0.00    +0.000 C 
ATOM     21  C   UNL     1       2.799   2.647  21.269  0.00  0.00    +0.000 C 
ENDBRANCH  17  19
ENDBRANCH   1  17
TORSDOF 4
ENDMDL
MODEL 9
REMARK VINA RESULT:      -6.2      2.316      3.710
REMARK  Name = 
REMARK  7 active torsions:
REMARK  status: ('A' for Active; 'I' for Inactive)
REMARK    1  A    between atoms: C_1  and  C_2
REMARK    2  A    between atoms: C_2  and  C_3
REMARK    3  A    between atoms: C_2  and  C_4
REMARK    4  A    between atoms: C_2  and  O_5
REMARK    5  A    between atoms: O_5  and  C_6
REMARK    6  A    between atoms: C_11  and  N_12
REMARK    7  A    between atoms: C_14  and  N_15
REMARK                            x       y       z     vdW  Elec       q    Type
REMARK                         _______ _______ _______ _____ _____    ______ ____
ROOT
ATOM      1  C   UNL     1       2.771   4.429  18.238  0.00  0.00    +0.000 C 
ATOM      2  O   UNL     1       1.785   4.899  17.677  0.00  0.00    +0.000 OA
ATOM      3  N   UNL     1       4.041   4.916  18.005  0.00  0.00    +0.000 N 
ATOM      4  C   UNL     1       4.172   6.134  17.215  0.00  0.00    +0.000 C 
ATOM      5  C   UNL     1       5.275   5.994  16.177  0.00  0.00    +0.000 C 
ATOM      6  C   UNL     1       6.595   5.512  16.793  0.00  0.00    +0.000 C 
ATOM      7  C   UNL     1       6.379   4.266  17.667  0.00  0.00    +0.000 C 
ATOM      8  C   UNL     1       5.244   4.435  18.675  0.00  0.00    +0.000 C 
ENDROOT
BRANCH   6   9
ATOM      9  N   UNL     1       7.312   6.576  17.492  0.00  0.00    +0.000 N 
ATOM     10  C   UNL     1       7.400   7.886  17.108  0.00  0.00    +0.000 A 
ATOM     11  C   UNL     1       8.137   8.508  18.074  0.00  0.00    +0.000 A 
ATOM     12  C   UNL     1       8.463   7.504  19.002  0.00  0.00    +0.000 A 
ATOM     13  N   UNL     1       7.968   6.319  18.642  0.00  0.00    +0.000 NA
BRANCH  11  14
ATOM     14  N   UNL     1       8.464   9.806  18.105  0.00  0.00    +0.000 N 
ATOM     15  H   UNL     1       8.263  10.439  17.338  0.00  0.00    +0.000 HD
ATOM     16  H   UNL     1       8.917  10.240  18.902  0.00  0.00    +0.000 HD
ENDBRANCH  11  14
ENDBRANCH   6   9
BRANCH   1  17
ATOM     17  O   UNL     1       2.722   3.386  19.114  0.00  0.00    +0.000 OA
BRANCH  17  19
ATOM     18  C   UNL     1       2.076   5.071  20.769  0.00  0.00    +0.000 C 
ATOM     19  C   UNL     1       2.048   3.585  20.383  0.00  0.00    +0.000 C 
ATOM     20  C   UNL     1       2.633   2.671  21.472  0.00  0.00    +0.000 C 
ATOM     21  C   UNL     1       0.575   3.190  20.183  0.00  0.00    +0.000 C 
ENDBRANCH  17  19
ENDBRANCH   1  17
TORSDOF 4
ENDMDL
