MODEL 1
REMARK VINA RESULT:      -6.6      0.000      0.000
REMARK  Name = 
REMARK  4 active torsions:
REMARK  status: ('A' for Active; 'I' for Inactive)
REMARK    1  A    between atoms: C_1  and  N_2
REMARK    2  A    between atoms: N_2  and  C_3
REMARK    3  A    between atoms: N_2  and  C_4
REMARK    4  A    between atoms: C_8  and  C_9
REMARK                            x       y       z     vdW  Elec       q    Type
REMARK                         _______ _______ _______ _____ _____    ______ ____
ROOT
ATOM      1  C   UNL     1       3.047   4.389  18.323  0.00  0.00    +0.000 A 
ATOM      2  C   UNL     1       2.675   5.700  18.667  0.00  0.00    +0.000 A 
ATOM      3  C   UNL     1       3.307   6.826  18.124  0.00  0.00    +0.000 A 
ATOM      4  C   UNL     1       4.328   6.670  17.197  0.00  0.00    +0.000 A 
ATOM      5  C   UNL     1       4.704   5.386  16.807  0.00  0.00    +0.000 A 
ATOM      6  C   UNL     1       4.065   4.266  17.363  0.00  0.00    +0.000 A 
ENDROOT
BRANCH   5   7
ATOM      7  C   UNL     1       5.769   5.226  15.812  0.00  0.00    +0.000 A 
ATOM      8  N   UNL     1       6.979   5.692  15.861  0.00  0.00    +0.000 NA
ATOM      9  N   UNL     1       7.508   5.246  14.692  0.00  0.00    +0.000 N 
ATOM     10  C   UNL     1       6.598   4.527  13.969  0.00  0.00    +0.000 A 
ATOM     11  O   UNL     1       6.758   3.997  12.884  0.00  0.00    +0.000 OA
ATOM     12  O   UNL     1       5.456   4.509  14.705  0.00  0.00    +0.000 OA
ATOM     13  H   UNL     1       8.459   5.442  14.409  0.00  0.00    +0.000 HD
ENDBRANCH   5   7
BRANCH   1  15
ATOM     14  C   UNL     1       2.865   1.928  18.513  0.00  0.00    +0.000 C 
ATOM     15  N   UNL     1       2.433   3.271  18.884  0.00  0.00    +0.000 N 
ATOM     16  C   UNL     1       1.131   3.401  19.533  0.00  0.00    +0.000 C 
ENDBRANCH   1  15
TORSDOF 2
ENDMDL
MODEL 2
REMARK VINA RESULT:      -6.6      3.087      5.872
REMARK  Name = 
REMARK  4 active torsions:
REMARK  status: ('A' for Active; 'I' for Inactive)
REMARK    1  A    between atoms: C_1  and  N_2
REMARK    2  A    between atoms: N_2  and  C_3
REMARK    3  A    between atoms: N_2  and  C_4
REMARK    4  A    between atoms: C_8  and  C_9
REMARK                            x       y       z     vdW  Elec       q    Type
REMARK                         _______ _______ _______ _____ _____    ______ ____
ROOT
ATOM      1  C   UNL     1       4.824   5.197  16.914  0.00  0.00    +0.000 A 
ATOM      2  C   UNL     1       4.591   6.583  16.927  0.00  0.00    +0.000 A 
ATOM      3  C   UNL     1       3.561   7.164  17.678  0.00  0.00    +0.000 A 
ATOM      4  C   UNL     1       2.737   6.367  18.461  0.00  0.00    +0.000 A 
ATOM      5  C   UNL     1       2.956   4.991  18.498  0.00  0.00    +0.000 A 
ATOM      6  C   UNL     1       3.989   4.422  17.736  0.00  0.00    +0.000 A 
ENDROOT
BRANCH   5   7
ATOM      7  C   UNL     1       2.096   4.154  19.340  0.00  0.00    +0.000 A 
ATOM      8  N   UNL     1       0.929   3.667  19.049  0.00  0.00    +0.000 NA
ATOM      9  N   UNL     1       0.608   2.990  20.182  0.00  0.00    +0.000 N 
ATOM     10  C   UNL     1       1.591   3.093  21.127  0.00  0.00    +0.000 A 
ATOM     11  O   UNL     1       1.607   2.605  22.243  0.00  0.00    +0.000 OA
ATOM     12  O   UNL     1       2.572   3.854  20.574  0.00  0.00    +0.000 OA
ATOM     13  H   UNL     1      -0.261   2.486  20.293  0.00  0.00    +0.000 HD
ENDBRANCH   5   7
BRANCH   1  15
ATOM     14  C   UNL     1       7.202   4.567  16.647  0.00  0.00    +0.000 C 
ATOM     15  N   UNL     1       5.833   4.621  16.147  0.00  0.00    +0.000 N 
ATOM     16  C   UNL     1       5.636   4.416  14.714  0.00  0.00    +0.000 C 
ENDBRANCH   1  15
TORSDOF 2
ENDMDL
MODEL 3
REMARK VINA RESULT:      -6.6      1.449      1.708
REMARK  Name = 
REMARK  4 active torsions:
REMARK  status: ('A' for Active; 'I' for Inactive)
REMARK    1  A    between atoms: C_1  and  N_2
REMARK    2  A    between atoms: N_2  and  C_3
REMARK    3  A    between atoms: N_2  and  C_4
REMARK    4  A    between atoms: C_8  and  C_9
REMARK                            x       y       z     vdW  Elec       q    Type
REMARK                         _______ _______ _______ _____ _____    ______ ____
ROOT
ATOM      1  C   UNL     1       3.924   3.897  18.048  0.00  0.00    +0.000 A 
ATOM      2  C   UNL     1       4.589   4.389  19.185  0.00  0.00    +0.000 A 
ATOM      3  C   UNL     1       5.859   4.974  19.118  0.00  0.00    +0.000 A 
ATOM      4  C   UNL     1       6.501   5.103  17.893  0.00  0.00    +0.000 A 
ATOM      5  C   UNL     1       5.861   4.656  16.739  0.00  0.00    +0.000 A 
ATOM      6  C   UNL     1       4.589   4.066  16.822  0.00  0.00    +0.000 A 
ENDROOT
BRANCH   5   7
ATOM      7  C   UNL     1       6.533   4.811  15.445  0.00  0.00    +0.000 A 
ATOM      8  N   UNL     1       7.487   5.635  15.138  0.00  0.00    +0.000 NA
ATOM      9  N   UNL     1       7.709   5.346  13.830  0.00  0.00    +0.000 N 
ATOM     10  C   UNL     1       6.878   4.357  13.384  0.00  0.00    +0.000 A 
ATOM     11  O   UNL     1       6.825   3.873  12.267  0.00  0.00    +0.000 OA
ATOM     12  O   UNL     1       6.107   4.000  14.445  0.00  0.00    +0.000 OA
ATOM     13  H   UNL     1       8.405   5.823  13.272  0.00  0.00    +0.000 HD
ENDBRANCH   5   7
BRANCH   1  15
ATOM     14  C   UNL     1       1.464   4.062  17.846  0.00  0.00    +0.000 C 
ATOM     15  N   UNL     1       2.672   3.294  18.123  0.00  0.00    +0.000 N 
ATOM     16  C   UNL     1       2.512   2.028  18.835  0.00  0.00    +0.000 C 
ENDBRANCH   1  15
TORSDOF 2
ENDMDL
MODEL 4
REMARK VINA RESULT:      -6.5      3.390      6.145
REMARK  Name = 
REMARK  4 active torsions:
REMARK  status: ('A' for Active; 'I' for Inactive)
REMARK    1  A    between atoms: C_1  and  N_2
REMARK    2  A    between atoms: N_2  and  C_3
REMARK    3  A    between atoms: N_2  and  C_4
REMARK    4  A    between atoms: C_8  and  C_9
REMARK                            x       y       z     vdW  Elec       q    Type
REMARK                         _______ _______ _______ _____ _____    ______ ____
ROOT
ATOM      1  C   UNL     1       5.857   5.320  18.012  0.00  0.00    +0.000 A 
ATOM      2  C   UNL     1       5.780   4.789  16.713  0.00  0.00    +0.000 A 
ATOM      3  C   UNL     1       4.725   3.967  16.300  0.00  0.00    +0.000 A 
ATOM      4  C   UNL     1       3.694   3.663  17.180  0.00  0.00    +0.000 A 
ATOM      5  C   UNL     1       3.719   4.196  18.467  0.00  0.00    +0.000 A 
ATOM      6  C   UNL     1       4.786   5.016  18.869  0.00  0.00    +0.000 A 
ENDROOT
BRANCH   5   7
ATOM      7  C   UNL     1       2.620   3.889  19.387  0.00  0.00    +0.000 A 
ATOM      8  N   UNL     1       1.368   4.207  19.264  0.00  0.00    +0.000 NA
ATOM      9  N   UNL     1       0.824   3.679  20.391  0.00  0.00    +0.000 N 
ATOM     10  C   UNL     1       1.766   3.062  21.165  0.00  0.00    +0.000 A 
ATOM     11  O   UNL     1       1.603   2.496  22.231  0.00  0.00    +0.000 OA
ATOM     12  O   UNL     1       2.947   3.195  20.505  0.00  0.00    +0.000 OA
ATOM     13  H   UNL     1      -0.160   3.753  20.613  0.00  0.00    +0.000 HD
ENDBRANCH   5   7
BRANCH   1  15
ATOM     14  C   UNL     1       7.407   7.200  17.579  0.00  0.00    +0.000 C 
ATOM     15  N   UNL     1       6.920   6.118  18.427  0.00  0.00    +0.000 N 
ATOM     16  C   UNL     1       7.798   5.664  19.503  0.00  0.00    +0.000 C 
ENDBRANCH   1  15
TORSDOF 2
ENDMDL
MODEL 5
REMARK VINA RESULT:      -6.4      1.676      2.262
REMARK  Name = 
REMARK  4 active torsions:
REMARK  status: ('A' for Active; 'I' for Inactive)
REMARK    1  A    between atoms: C_1  and  N_2
REMARK    2  A    between atoms: N_2  and  C_3
REMARK    3  A    between atoms: N_2  and  C_4
REMARK    4  A    between atoms: C_8  and  C_9
REMARK                            x       y       z     vdW  Elec       q    Type
REMARK                         _______ _______ _______ _____ _____    ______ ____
ROOT
ATOM      1  C   UNL     1       5.062   4.410  18.552  0.00  0.00    +0.000 A 
ATOM      2  C   UNL     1       5.972   5.150  19.327  0.00  0.00    +0.000 A 
ATOM      3  C   UNL     1       7.119   5.738  18.780  0.00  0.00    +0.000 A 
ATOM      4  C   UNL     1       7.381   5.618  17.422  0.00  0.00    +0.000 A 
ATOM      5  C   UNL     1       6.486   4.918  16.615  0.00  0.00    +0.000 A 
ATOM      6  C   UNL     1       5.342   4.329  17.178  0.00  0.00    +0.000 A 
ENDROOT
BRANCH   5   7
ATOM      7  C   UNL     1       6.756   4.809  15.178  0.00  0.00    +0.000 A 
ATOM      8  N   UNL     1       7.607   5.490  14.475  0.00  0.00    +0.000 NA
ATOM      9  N   UNL     1       7.427   4.980  13.229  0.00  0.00    +0.000 N 
ATOM     10  C   UNL     1       6.467   4.007  13.216  0.00  0.00    +0.000 A 
ATOM     11  O   UNL     1       6.073   3.359  12.263  0.00  0.00    +0.000 OA
ATOM     12  O   UNL     1       6.028   3.890  14.497  0.00  0.00    +0.000 OA
ATOM     13  H   UNL     1       7.946   5.302  12.423  0.00  0.00    +0.000 HD
ENDBRANCH   5   7
BRANCH   1  15
ATOM     14  C   UNL     1       2.985   4.589  19.886  0.00  0.00    +0.000 C 
ATOM     15  N   UNL     1       3.935   3.806  19.105  0.00  0.00    +0.000 N 
ATOM     16  C   UNL     1       3.880   2.353  19.244  0.00  0.00    +0.000 C 
ENDBRANCH   1  15
TORSDOF 2
ENDMDL
MODEL 6
REMARK VINA RESULT:      -6.4      1.313      1.563
REMARK  Name = 
REMARK  4 active torsions:
REMARK  status: ('A' for Active; 'I' for Inactive)
REMARK    1  A    between atoms: C_1  and  N_2
REMARK    2  A    between atoms: N_2  and  C_3
REMARK    3  A    between atoms: N_2  and  C_4
REMARK    4  A    between atoms: C_8  and  C_9
REMARK                            x       y       z     vdW  Elec       q    Type
REMARK                         _______ _______ _______ _____ _____    ______ ____
ROOT
ATOM      1  C   UNL     1       2.679   4.419  19.093  0.00  0.00    +0.000 A 
ATOM      2  C   UNL     1       2.105   5.697  18.976  0.00  0.00    +0.000 A 
ATOM      3  C   UNL     1       2.727   6.737  18.275  0.00  0.00    +0.000 A 
ATOM      4  C   UNL     1       3.947   6.521  17.647  0.00  0.00    +0.000 A 
ATOM      5  C   UNL     1       4.532   5.258  17.714  0.00  0.00    +0.000 A 
ATOM      6  C   UNL     1       3.900   4.225  18.425  0.00  0.00    +0.000 A 
ENDROOT
BRANCH   5   7
ATOM      7  C   UNL     1       5.810   5.028  17.034  0.00  0.00    +0.000 A 
ATOM      8  N   UNL     1       6.891   4.506  17.528  0.00  0.00    +0.000 NA
ATOM      9  N   UNL     1       7.740   4.544  16.468  0.00  0.00    +0.000 N 
ATOM     10  C   UNL     1       7.147   5.092  15.366  0.00  0.00    +0.000 A 
ATOM     11  O   UNL     1       7.636   5.268  14.265  0.00  0.00    +0.000 OA
ATOM     12  O   UNL     1       5.877   5.407  15.734  0.00  0.00    +0.000 OA
ATOM     13  H   UNL     1       8.693   4.208  16.516  0.00  0.00    +0.000 HD
ENDBRANCH   5   7
BRANCH   1  15
ATOM     14  C   UNL     1       1.923   3.492  21.260  0.00  0.00    +0.000 C 
ATOM     15  N   UNL     1       2.069   3.394  19.812  0.00  0.00    +0.000 N 
ATOM     16  C   UNL     1       1.919   2.070  19.212  0.00  0.00    +0.000 C 
ENDBRANCH   1  15
TORSDOF 2
ENDMDL
MODEL 7
REMARK VINA RESULT:      -6.4      1.287      1.452
REMARK  Name = 
REMARK  4 active torsions:
REMARK  status: ('A' for Active; 'I' for Inactive)
REMARK    1  A    between atoms: C_1  and  N_2
REMARK    2  A    between atoms: N_2  and  C_3
REMARK    3  A    between atoms: N_2  and  C_4
REMARK    4  A    between atoms: C_8  and  C_9
REMARK                            x       y       z     vdW  Elec       q    Type
REMARK                         _______ _______ _______ _____ _____    ______ ____
ROOT
ATOM      1  C   UNL     1       2.592   4.870  18.643  0.00  0.00    +0.000 A 
ATOM      2  C   UNL     1       2.417   6.261  18.745  0.00  0.00    +0.000 A 
ATOM      3  C   UNL     1       3.193   7.171  18.017  0.00  0.00    +0.000 A 
ATOM      4  C   UNL     1       4.168   6.710  17.143  0.00  0.00    +0.000 A 
ATOM      5  C   UNL     1       4.352   5.336  16.992  0.00  0.00    +0.000 A 
ATOM      6  C   UNL     1       3.569   4.435  17.731  0.00  0.00    +0.000 A 
ENDROOT
BRANCH   5   7
ATOM      7  C   UNL     1       5.369   4.852  16.053  0.00  0.00    +0.000 A 
ATOM      8  N   UNL     1       5.590   3.628  15.682  0.00  0.00    +0.000 NA
ATOM      9  N   UNL     1       6.632   3.771  14.823  0.00  0.00    +0.000 N 
ATOM     10  C   UNL     1       7.012   5.078  14.704  0.00  0.00    +0.000 A 
ATOM     11  O   UNL     1       7.909   5.535  14.018  0.00  0.00    +0.000 OA
ATOM     12  O   UNL     1       6.181   5.791  15.508  0.00  0.00    +0.000 OA
ATOM     13  H   UNL     1       7.062   2.989  14.346  0.00  0.00    +0.000 HD
ENDBRANCH   5   7
BRANCH   1  15
ATOM     14  C   UNL     1       2.058   3.822  20.820  0.00  0.00    +0.000 C 
ATOM     15  N   UNL     1       1.835   3.969  19.387  0.00  0.00    +0.000 N 
ATOM     16  C   UNL     1       1.095   2.905  18.711  0.00  0.00    +0.000 C 
ENDBRANCH   1  15
TORSDOF 2
ENDMDL
MODEL 8
REMARK VINA RESULT:      -6.4      2.071      2.315
REMARK  Name = 
REMARK  4 active torsions:
REMARK  status: ('A' for Active; 'I' for Inactive)
REMARK    1  A    between atoms: C_1  and  N_2
REMARK    2  A    between atoms: N_2  and  C_3
REMARK    3  A    between atoms: N_2  and  C_4
REMARK    4  A    between atoms: C_8  and  C_9
REMARK                            x       y       z     vdW  Elec       q    Type
REMARK                         _______ _______ _______ _____ _____    ______ ____
ROOT
ATOM      1  C   UNL     1       2.376   3.953  19.758  0.00  0.00    +0.000 A 
ATOM      2  C   UNL     1       1.881   5.265  19.856  0.00  0.00    +0.000 A 
ATOM      3  C   UNL     1       2.636   6.382  19.474  0.00  0.00    +0.000 A 
ATOM      4  C   UNL     1       3.915   6.214  18.961  0.00  0.00    +0.000 A 
ATOM      5  C   UNL     1       4.428   4.926  18.820  0.00  0.00    +0.000 A 
ATOM      6  C   UNL     1       3.662   3.816  19.211  0.00  0.00    +0.000 A 
ENDROOT
BRANCH   5   7
ATOM      7  C   UNL     1       5.772   4.751  18.259  0.00  0.00    +0.000 A 
ATOM      8  N   UNL     1       6.885   4.577  18.902  0.00  0.00    +0.000 NA
ATOM      9  N   UNL     1       7.789   4.480  17.893  0.00  0.00    +0.000 N 
ATOM     10  C   UNL     1       7.194   4.604  16.669  0.00  0.00    +0.000 A 
ATOM     11  O   UNL     1       7.725   4.564  15.574  0.00  0.00    +0.000 OA
ATOM     12  O   UNL     1       5.867   4.777  16.907  0.00  0.00    +0.000 OA
ATOM     13  H   UNL     1       8.778   4.341  18.053  0.00  0.00    +0.000 HD
ENDBRANCH   5   7
BRANCH   1  15
ATOM     14  C   UNL     1       0.735   2.178  19.226  0.00  0.00    +0.000 C 
ATOM     15  N   UNL     1       1.632   2.847  20.162  0.00  0.00    +0.000 N 
ATOM     16  C   UNL     1       1.438   2.577  21.584  0.00  0.00    +0.000 C 
ENDBRANCH   1  15
TORSDOF 2
ENDMDL
MODEL 9
REMARK VINA RESULT:      -6.3      1.901      2.129
REMARK  Name = 
REMARK  4 active torsions:
REMARK  status: ('A' for Active; 'I' for Inactive)
REMARK    1  A    between atoms: C_1  and  N_2
REMARK    2  A    between atoms: N_2  and  C_3
REMARK    3  A    between atoms: N_2  and  C_4
REMARK    4  A    between atoms: C_8  and  C_9
REMARK                            x       y       z     vdW  Elec       q    Type
REMARK                         _______ _______ _______ _____ _____    ______ ____
ROOT
ATOM      1  C   UNL     1       3.982   3.840  18.003  0.00  0.00    +0.000 A 
ATOM      2  C   UNL     1       4.759   4.350  19.057  0.00  0.00    +0.000 A 
ATOM      3  C   UNL     1       6.043   4.873  18.858  0.00  0.00    +0.000 A 
ATOM      4  C   UNL     1       6.584   4.919  17.580  0.00  0.00    +0.000 A 
ATOM      5  C   UNL     1       5.832   4.452  16.504  0.00  0.00    +0.000 A 
ATOM      6  C   UNL     1       4.548   3.925  16.719  0.00  0.00    +0.000 A 
ENDROOT
BRANCH   5   7
ATOM      7  C   UNL     1       6.399   4.519  15.154  0.00  0.00    +0.000 A 
ATOM      8  N   UNL     1       6.053   3.829  14.111  0.00  0.00    +0.000 NA
ATOM      9  N   UNL     1       6.903   4.297  13.161  0.00  0.00    +0.000 N 
ATOM     10  C   UNL     1       7.741   5.254  13.660  0.00  0.00    +0.000 A 
ATOM     11  O   UNL     1       8.614   5.865  13.069  0.00  0.00    +0.000 OA
ATOM     12  O   UNL     1       7.409   5.405  14.969  0.00  0.00    +0.000 OA
ATOM     13  H   UNL     1       6.902   3.958  12.208  0.00  0.00    +0.000 HD
ENDBRANCH   5   7
BRANCH   1  15
ATOM     14  C   UNL     1       1.521   4.097  17.960  0.00  0.00    +0.000 C 
ATOM     15  N   UNL     1       2.715   3.298  18.208  0.00  0.00    +0.000 N 
ATOM     16  C   UNL     1       2.559   2.094  19.020  0.00  0.00    +0.000 C 
ENDBRANCH   1  15
TORSDOF 2
ENDMDL
