MODEL 1
REMARK VINA RESULT:      -9.5      0.000      0.000
REMARK  Name = 
REMARK  3 active torsions:
REMARK  status: ('A' for Active; 'I' for Inactive)
REMARK    1  A    between atoms: C_2  and  C_25
REMARK    2  A    between atoms: C_6  and  C_7
REMARK    3  A    between atoms: C_29  and  C_30
REMARK                            x       y       z     vdW  Elec       q    Type
REMARK                         _______ _______ _______ _____ _____    ______ ____
ROOT
ATOM      1  O   UNL     1       2.100   8.656  17.346  0.00  0.00    +0.000 OA
ATOM      2  C   UNL     1       2.384   7.891  18.259  0.00  0.00    +0.000 C 
ATOM      3  N   UNL     1       1.972   7.986  19.567  0.00  0.00    +0.000 N 
ATOM      4  C   UNL     1       1.153   9.013  20.031  0.00  0.00    +0.000 A 
ATOM      5  C   UNL     1       0.063   9.469  19.292  0.00  0.00    +0.000 A 
ATOM      6  C   UNL     1      -0.709  10.504  19.808  0.00  0.00    +0.000 A 
ATOM      7  C   UNL     1      -0.310  11.074  21.021  0.00  0.00    +0.000 A 
ATOM      8  C   UNL     1       0.776  10.539  21.694  0.00  0.00    +0.000 A 
ATOM      9  N   UNL     1       1.487   9.488  21.244  0.00  0.00    +0.000 NA
ATOM     10  H   UNL     1       2.566   7.596  20.287  0.00  0.00    +0.000 HD
ENDROOT
BRANCH   6  11
ATOM     11  C   UNL     1      -1.937  10.968  19.148  0.00  0.00    +0.000 A 
ATOM     12  C   UNL     1      -2.364  10.734  17.852  0.00  0.00    +0.000 A 
ATOM     13  C   UNL     1      -3.614  11.360  17.666  0.00  0.00    +0.000 A 
ATOM     14  C   UNL     1      -3.957  11.954  18.866  0.00  0.00    +0.000 A 
ATOM     15  N   UNL     1      -2.917  11.747  19.750  0.00  0.00    +0.000 N 
ATOM     16  C   UNL     1      -5.326  12.557  19.164  0.00  0.00    +0.000 C 
ATOM     17  C   UNL     1      -6.175  11.456  19.832  0.00  0.00    +0.000 C 
ATOM     18  C   UNL     1      -7.479  12.039  20.360  0.00  0.00    +0.000 C 
ATOM     19  C   UNL     1      -7.145  12.962  21.514  0.00  0.00    +0.000 C 
ATOM     20  N   UNL     1      -6.248  14.044  21.147  0.00  0.00    +0.000 NA
ATOM     21  C   UNL     1      -5.262  13.831  20.077  0.00  0.00    +0.000 C 
ATOM     22  C   UNL     1      -5.982  12.922  17.770  0.00  0.00    +0.000 C 
ATOM     23  N   UNL     1      -5.651  12.043  16.650  0.00  0.00    +0.000 N 
ATOM     24  C   UNL     1      -4.473  11.354  16.500  0.00  0.00    +0.000 C 
ATOM     25  O   UNL     1      -4.200  10.774  15.455  0.00  0.00    +0.000 OA
ATOM     26  H   UNL     1      -2.889  12.059  20.713  0.00  0.00    +0.000 HD
ATOM     27  H   UNL     1      -6.750  14.922  21.033  0.00  0.00    +0.000 HD
ATOM     28  H   UNL     1      -6.185  12.105  15.792  0.00  0.00    +0.000 HD
ENDBRANCH   6  11
BRANCH   2  29
ATOM     29  C   UNL     1       3.328   6.775  18.001  0.00  0.00    +0.000 A 
ATOM     30  C   UNL     1       2.862   5.460  17.987  0.00  0.00    +0.000 A 
ATOM     31  C   UNL     1       3.754   4.428  17.704  0.00  0.00    +0.000 A 
ATOM     32  C   UNL     1       5.094   4.706  17.454  0.00  0.00    +0.000 A 
ATOM     33  C   UNL     1       5.571   6.024  17.465  0.00  0.00    +0.000 A 
ATOM     34  C   UNL     1       4.669   7.069  17.739  0.00  0.00    +0.000 A 
BRANCH  33  35
ATOM     35  C   UNL     1       7.024   6.336  17.202  0.00  0.00    +0.000 C 
ATOM     36  F   UNL     1       7.284   7.670  17.142  0.00  0.00    +0.000 F 
ATOM     37  F   UNL     1       7.850   5.835  18.156  0.00  0.00    +0.000 F 
ATOM     38  F   UNL     1       7.458   5.821  16.018  0.00  0.00    +0.000 F 
ENDBRANCH  33  35
ENDBRANCH   2  29
TORSDOF 3
ENDMDL
MODEL 2
REMARK VINA RESULT:      -9.5      1.141      1.241
REMARK  Name = 
REMARK  3 active torsions:
REMARK  status: ('A' for Active; 'I' for Inactive)
REMARK    1  A    between atoms: C_2  and  C_25
REMARK    2  A    between atoms: C_6  and  C_7
REMARK    3  A    between atoms: C_29  and  C_30
REMARK                            x       y       z     vdW  Elec       q    Type
REMARK                         _______ _______ _______ _____ _____    ______ ____
ROOT
ATOM      1  O   UNL     1       2.663   7.793  17.862  0.00  0.00    +0.000 OA
ATOM      2  C   UNL     1       2.786   7.110  18.870  0.00  0.00    +0.000 C 
ATOM      3  N   UNL     1       2.219   7.353  20.099  0.00  0.00    +0.000 N 
ATOM      4  C   UNL     1       1.409   8.457  20.355  0.00  0.00    +0.000 A 
ATOM      5  C   UNL     1       0.449   8.888  19.442  0.00  0.00    +0.000 A 
ATOM      6  C   UNL     1      -0.320  10.002  19.755  0.00  0.00    +0.000 A 
ATOM      7  C   UNL     1      -0.045  10.671  20.952  0.00  0.00    +0.000 A 
ATOM      8  C   UNL     1       0.916  10.155  21.807  0.00  0.00    +0.000 A 
ATOM      9  N   UNL     1       1.616   9.034  21.553  0.00  0.00    +0.000 NA
ATOM     10  H   UNL     1       2.695   7.009  20.923  0.00  0.00    +0.000 HD
ENDROOT
BRANCH   6  11
ATOM     11  C   UNL     1      -1.428  10.454  18.901  0.00  0.00    +0.000 A 
ATOM     12  C   UNL     1      -1.560  10.344  17.527  0.00  0.00    +0.000 A 
ATOM     13  C   UNL     1      -2.799  10.901  17.146  0.00  0.00    +0.000 A 
ATOM     14  C   UNL     1      -3.431  11.325  18.300  0.00  0.00    +0.000 A 
ATOM     15  N   UNL     1      -2.575  11.088  19.358  0.00  0.00    +0.000 N 
ATOM     16  C   UNL     1      -4.880  11.793  18.361  0.00  0.00    +0.000 C 
ATOM     17  C   UNL     1      -5.742  10.566  18.722  0.00  0.00    +0.000 C 
ATOM     18  C   UNL     1      -7.174  10.993  19.018  0.00  0.00    +0.000 C 
ATOM     19  C   UNL     1      -7.166  11.795  20.303  0.00  0.00    +0.000 C 
ATOM     20  N   UNL     1      -6.316  12.972  20.244  0.00  0.00    +0.000 NA
ATOM     21  C   UNL     1      -5.119  12.953  19.389  0.00  0.00    +0.000 C 
ATOM     22  C   UNL     1      -5.272  12.273  16.903  0.00  0.00    +0.000 C 
ATOM     23  N   UNL     1      -4.643  11.555  15.796  0.00  0.00    +0.000 N 
ATOM     24  C   UNL     1      -3.400  10.971  15.831  0.00  0.00    +0.000 C 
ATOM     25  O   UNL     1      -2.870  10.538  14.814  0.00  0.00    +0.000 OA
ATOM     26  H   UNL     1      -2.772  11.287  20.331  0.00  0.00    +0.000 HD
ATOM     27  H   UNL     1      -6.863  13.820  20.114  0.00  0.00    +0.000 HD
ATOM     28  H   UNL     1      -4.995  11.681  14.856  0.00  0.00    +0.000 HD
ENDBRANCH   6  11
BRANCH   2  29
ATOM     29  C   UNL     1       3.688   5.932  18.842  0.00  0.00    +0.000 A 
ATOM     30  C   UNL     1       3.320   4.759  19.502  0.00  0.00    +0.000 A 
ATOM     31  C   UNL     1       4.161   3.650  19.432  0.00  0.00    +0.000 A 
ATOM     32  C   UNL     1       5.357   3.719  18.724  0.00  0.00    +0.000 A 
ATOM     33  C   UNL     1       5.734   4.893  18.057  0.00  0.00    +0.000 A 
ATOM     34  C   UNL     1       4.881   6.010  18.118  0.00  0.00    +0.000 A 
BRANCH  33  35
ATOM     35  C   UNL     1       7.033   4.980  17.294  0.00  0.00    +0.000 C 
ATOM     36  F   UNL     1       7.444   6.259  17.080  0.00  0.00    +0.000 F 
ATOM     37  F   UNL     1       8.058   4.357  17.928  0.00  0.00    +0.000 F 
ATOM     38  F   UNL     1       6.948   4.407  16.060  0.00  0.00    +0.000 F 
ENDBRANCH  33  35
ENDBRANCH   2  29
TORSDOF 3
ENDMDL
MODEL 3
REMARK VINA RESULT:      -9.4      5.874     10.162
REMARK  Name = 
REMARK  3 active torsions:
REMARK  status: ('A' for Active; 'I' for Inactive)
REMARK    1  A    between atoms: C_2  and  C_25
REMARK    2  A    between atoms: C_6  and  C_7
REMARK    3  A    between atoms: C_29  and  C_30
REMARK                            x       y       z     vdW  Elec       q    Type
REMARK                         _______ _______ _______ _____ _____    ______ ____
ROOT
ATOM      1  O   UNL     1       1.358  11.210  18.232  0.00  0.00    +0.000 OA
ATOM      2  C   UNL     1       1.464  12.014  19.150  0.00  0.00    +0.000 C 
ATOM      3  N   UNL     1       1.281  11.759  20.488  0.00  0.00    +0.000 N 
ATOM      4  C   UNL     1       0.931  10.503  20.980  0.00  0.00    +0.000 A 
ATOM      5  C   UNL     1       1.507   9.336  20.483  0.00  0.00    +0.000 A 
ATOM      6  C   UNL     1       1.107   8.114  21.010  0.00  0.00    +0.000 A 
ATOM      7  C   UNL     1       0.096   8.120  21.976  0.00  0.00    +0.000 A 
ATOM      8  C   UNL     1      -0.403   9.332  22.424  0.00  0.00    +0.000 A 
ATOM      9  N   UNL     1       0.029  10.527  21.977  0.00  0.00    +0.000 NA
ATOM     10  H   UNL     1       0.977  12.518  21.084  0.00  0.00    +0.000 HD
ENDROOT
BRANCH   6  11
ATOM     11  C   UNL     1       1.744   6.848  20.622  0.00  0.00    +0.000 A 
ATOM     12  C   UNL     1       1.293   5.555  20.829  0.00  0.00    +0.000 A 
ATOM     13  C   UNL     1       2.224   4.655  20.269  0.00  0.00    +0.000 A 
ATOM     14  C   UNL     1       3.230   5.411  19.696  0.00  0.00    +0.000 A 
ATOM     15  N   UNL     1       2.954   6.740  19.950  0.00  0.00    +0.000 N 
ATOM     16  C   UNL     1       4.325   4.842  18.802  0.00  0.00    +0.000 C 
ATOM     17  C   UNL     1       3.838   4.970  17.344  0.00  0.00    +0.000 C 
ATOM     18  C   UNL     1       4.963   4.627  16.376  0.00  0.00    +0.000 C 
ATOM     19  C   UNL     1       6.016   5.711  16.481  0.00  0.00    +0.000 C 
ATOM     20  N   UNL     1       6.561   5.859  17.820  0.00  0.00    +0.000 NA
ATOM     21  C   UNL     1       5.712   5.554  18.981  0.00  0.00    +0.000 C 
ATOM     22  C   UNL     1       4.457   3.304  19.155  0.00  0.00    +0.000 C 
ATOM     23  N   UNL     1       3.225   2.623  19.550  0.00  0.00    +0.000 N 
ATOM     24  C   UNL     1       2.163   3.211  20.192  0.00  0.00    +0.000 C 
ATOM     25  O   UNL     1       1.240   2.542  20.642  0.00  0.00    +0.000 OA
ATOM     26  H   UNL     1       3.511   7.527  19.643  0.00  0.00    +0.000 HD
ATOM     27  H   UNL     1       7.480   5.429  17.897  0.00  0.00    +0.000 HD
ATOM     28  H   UNL     1       3.207   1.613  19.597  0.00  0.00    +0.000 HD
ENDBRANCH   6  11
BRANCH   2  29
ATOM     29  C   UNL     1       1.740  13.438  18.837  0.00  0.00    +0.000 A 
ATOM     30  C   UNL     1       3.017  13.825  18.430  0.00  0.00    +0.000 A 
ATOM     31  C   UNL     1       3.248  15.160  18.103  0.00  0.00    +0.000 A 
ATOM     32  C   UNL     1       2.221  16.094  18.194  0.00  0.00    +0.000 A 
ATOM     33  C   UNL     1       0.935  15.714  18.602  0.00  0.00    +0.000 A 
ATOM     34  C   UNL     1       0.697  14.364  18.922  0.00  0.00    +0.000 A 
BRANCH  33  35
ATOM     35  C   UNL     1      -0.184  16.720  18.712  0.00  0.00    +0.000 C 
ATOM     36  F   UNL     1      -0.673  17.111  17.505  0.00  0.00    +0.000 F 
ATOM     37  F   UNL     1      -1.247  16.250  19.413  0.00  0.00    +0.000 F 
ATOM     38  F   UNL     1       0.207  17.864  19.341  0.00  0.00    +0.000 F 
ENDBRANCH  33  35
ENDBRANCH   2  29
TORSDOF 3
ENDMDL
MODEL 4
REMARK VINA RESULT:      -9.4      1.624      2.100
REMARK  Name = 
REMARK  3 active torsions:
REMARK  status: ('A' for Active; 'I' for Inactive)
REMARK    1  A    between atoms: C_2  and  C_25
REMARK    2  A    between atoms: C_6  and  C_7
REMARK    3  A    between atoms: C_29  and  C_30
REMARK                            x       y       z     vdW  Elec       q    Type
REMARK                         _______ _______ _______ _____ _____    ______ ____
ROOT
ATOM      1  O   UNL     1       2.100   8.828  17.326  0.00  0.00    +0.000 OA
ATOM      2  C   UNL     1       2.389   8.026  18.205  0.00  0.00    +0.000 C 
ATOM      3  N   UNL     1       1.972   8.058  19.515  0.00  0.00    +0.000 N 
ATOM      4  C   UNL     1       1.140   9.054  20.021  0.00  0.00    +0.000 A 
ATOM      5  C   UNL     1       0.047   9.531  19.299  0.00  0.00    +0.000 A 
ATOM      6  C   UNL     1      -0.738  10.532  19.858  0.00  0.00    +0.000 A 
ATOM      7  C   UNL     1      -0.350  11.052  21.097  0.00  0.00    +0.000 A 
ATOM      8  C   UNL     1       0.740  10.499  21.749  0.00  0.00    +0.000 A 
ATOM      9  N   UNL     1       1.465   9.477  21.255  0.00  0.00    +0.000 NA
ATOM     10  H   UNL     1       2.568   7.642  20.218  0.00  0.00    +0.000 HD
ENDROOT
BRANCH   6  11
ATOM     11  C   UNL     1      -1.969  11.012  19.215  0.00  0.00    +0.000 A 
ATOM     12  C   UNL     1      -2.407  10.800  17.919  0.00  0.00    +0.000 A 
ATOM     13  C   UNL     1      -3.656  11.435  17.752  0.00  0.00    +0.000 A 
ATOM     14  C   UNL     1      -3.986  12.012  18.964  0.00  0.00    +0.000 A 
ATOM     15  N   UNL     1      -2.940  11.786  19.836  0.00  0.00    +0.000 N 
ATOM     16  C   UNL     1      -5.350  12.616  19.281  0.00  0.00    +0.000 C 
ATOM     17  C   UNL     1      -6.199  11.510  19.939  0.00  0.00    +0.000 C 
ATOM     18  C   UNL     1      -7.496  12.091  20.486  0.00  0.00    +0.000 C 
ATOM     19  C   UNL     1      -7.149  12.995  21.651  0.00  0.00    +0.000 C 
ATOM     20  N   UNL     1      -6.249  14.079  21.293  0.00  0.00    +0.000 NA
ATOM     21  C   UNL     1      -5.273  13.877  20.212  0.00  0.00    +0.000 C 
ATOM     22  C   UNL     1      -6.015  13.006  17.897  0.00  0.00    +0.000 C 
ATOM     23  N   UNL     1      -5.697  12.142  16.762  0.00  0.00    +0.000 N 
ATOM     24  C   UNL     1      -4.523  11.450  16.593  0.00  0.00    +0.000 C 
ATOM     25  O   UNL     1      -4.262  10.884  15.537  0.00  0.00    +0.000 OA
ATOM     26  H   UNL     1      -2.904  12.084  20.803  0.00  0.00    +0.000 HD
ATOM     27  H   UNL     1      -6.748  14.960  21.196  0.00  0.00    +0.000 HD
ATOM     28  H   UNL     1      -6.237  12.220  15.910  0.00  0.00    +0.000 HD
ENDBRANCH   6  11
BRANCH   2  29
ATOM     29  C   UNL     1       3.346   6.933  17.901  0.00  0.00    +0.000 A 
ATOM     30  C   UNL     1       4.446   7.182  17.079  0.00  0.00    +0.000 A 
ATOM     31  C   UNL     1       5.356   6.155  16.835  0.00  0.00    +0.000 A 
ATOM     32  C   UNL     1       5.161   4.896  17.395  0.00  0.00    +0.000 A 
ATOM     33  C   UNL     1       4.059   4.637  18.223  0.00  0.00    +0.000 A 
ATOM     34  C   UNL     1       3.145   5.677  18.478  0.00  0.00    +0.000 A 
BRANCH  33  35
ATOM     35  C   UNL     1       3.835   3.274  18.829  0.00  0.00    +0.000 C 
ATOM     36  F   UNL     1       2.690   3.193  19.559  0.00  0.00    +0.000 F 
ATOM     37  F   UNL     1       3.754   2.291  17.895  0.00  0.00    +0.000 F 
ATOM     38  F   UNL     1       4.840   2.910  19.674  0.00  0.00    +0.000 F 
ENDBRANCH  33  35
ENDBRANCH   2  29
TORSDOF 3
ENDMDL
MODEL 5
REMARK VINA RESULT:      -9.4      0.895      1.121
REMARK  Name = 
REMARK  3 active torsions:
REMARK  status: ('A' for Active; 'I' for Inactive)
REMARK    1  A    between atoms: C_2  and  C_25
REMARK    2  A    between atoms: C_6  and  C_7
REMARK    3  A    between atoms: C_29  and  C_30
REMARK                            x       y       z     vdW  Elec       q    Type
REMARK                         _______ _______ _______ _____ _____    ______ ____
ROOT
ATOM      1  O   UNL     1       1.900   8.620  17.691  0.00  0.00    +0.000 OA
ATOM      2  C   UNL     1       2.199   7.965  18.681  0.00  0.00    +0.000 C 
ATOM      3  N   UNL     1       1.825   8.222  19.979  0.00  0.00    +0.000 N 
ATOM      4  C   UNL     1       1.031   9.310  20.337  0.00  0.00    +0.000 A 
ATOM      5  C   UNL     1      -0.073   9.692  19.577  0.00  0.00    +0.000 A 
ATOM      6  C   UNL     1      -0.817  10.793  19.985  0.00  0.00    +0.000 A 
ATOM      7  C   UNL     1      -0.379  11.497  21.111  0.00  0.00    +0.000 A 
ATOM      8  C   UNL     1       0.719  11.029  21.815  0.00  0.00    +0.000 A 
ATOM      9  N   UNL     1       1.404   9.921  21.476  0.00  0.00    +0.000 NA
ATOM     10  H   UNL     1       2.433   7.911  20.725  0.00  0.00    +0.000 HD
ENDROOT
BRANCH   6  11
ATOM     11  C   UNL     1      -2.057  11.194  19.306  0.00  0.00    +0.000 A 
ATOM     12  C   UNL     1      -2.465  10.912  18.013  0.00  0.00    +0.000 A 
ATOM     13  C   UNL     1      -3.736  11.487  17.804  0.00  0.00    +0.000 A 
ATOM     14  C   UNL     1      -4.110  12.097  18.987  0.00  0.00    +0.000 A 
ATOM     15  N   UNL     1      -3.069  11.951  19.882  0.00  0.00    +0.000 N 
ATOM     16  C   UNL     1      -5.502  12.656  19.260  0.00  0.00    +0.000 C 
ATOM     17  C   UNL     1      -6.314  11.542  19.951  0.00  0.00    +0.000 C 
ATOM     18  C   UNL     1      -7.644  12.089  20.455  0.00  0.00    +0.000 C 
ATOM     19  C   UNL     1      -7.352  13.052  21.587  0.00  0.00    +0.000 C 
ATOM     20  N   UNL     1      -6.492  14.158  21.199  0.00  0.00    +0.000 NA
ATOM     21  C   UNL     1      -5.492  13.954  20.141  0.00  0.00    +0.000 C 
ATOM     22  C   UNL     1      -6.161  12.962  17.853  0.00  0.00    +0.000 C 
ATOM     23  N   UNL     1      -5.790  12.068  16.758  0.00  0.00    +0.000 N 
ATOM     24  C   UNL     1      -4.586  11.420  16.633  0.00  0.00    +0.000 C 
ATOM     25  O   UNL     1      -4.284  10.824  15.605  0.00  0.00    +0.000 OA
ATOM     26  H   UNL     1      -3.060  12.288  20.837  0.00  0.00    +0.000 HD
ATOM     27  H   UNL     1      -7.026  15.013  21.060  0.00  0.00    +0.000 HD
ATOM     28  H   UNL     1      -6.319  12.089  15.896  0.00  0.00    +0.000 HD
ENDBRANCH   6  11
BRANCH   2  29
ATOM     29  C   UNL     1       3.121   6.812  18.535  0.00  0.00    +0.000 A 
ATOM     30  C   UNL     1       3.196   5.849  19.542  0.00  0.00    +0.000 A 
ATOM     31  C   UNL     1       4.038   4.752  19.371  0.00  0.00    +0.000 A 
ATOM     32  C   UNL     1       4.803   4.628  18.216  0.00  0.00    +0.000 A 
ATOM     33  C   UNL     1       4.735   5.590  17.198  0.00  0.00    +0.000 A 
ATOM     34  C   UNL     1       3.876   6.692  17.365  0.00  0.00    +0.000 A 
BRANCH  33  35
ATOM     35  C   UNL     1       5.566   5.468  15.945  0.00  0.00    +0.000 C 
ATOM     36  F   UNL     1       6.884   5.735  16.148  0.00  0.00    +0.000 F 
ATOM     37  F   UNL     1       5.515   4.226  15.399  0.00  0.00    +0.000 F 
ATOM     38  F   UNL     1       5.161   6.326  14.968  0.00  0.00    +0.000 F 
ENDBRANCH  33  35
ENDBRANCH   2  29
TORSDOF 3
ENDMDL
MODEL 6
REMARK VINA RESULT:      -9.3      4.882      9.637
REMARK  Name = 
REMARK  3 active torsions:
REMARK  status: ('A' for Active; 'I' for Inactive)
REMARK    1  A    between atoms: C_2  and  C_25
REMARK    2  A    between atoms: C_6  and  C_7
REMARK    3  A    between atoms: C_29  and  C_30
REMARK                            x       y       z     vdW  Elec       q    Type
REMARK                         _______ _______ _______ _____ _____    ______ ____
ROOT
ATOM      1  O   UNL     1       0.449  11.351  18.467  0.00  0.00    +0.000 OA
ATOM      2  C   UNL     1       0.736  12.158  19.342  0.00  0.00    +0.000 C 
ATOM      3  N   UNL     1       0.886  11.894  20.683  0.00  0.00    +0.000 N 
ATOM      4  C   UNL     1       0.717  10.623  21.229  0.00  0.00    +0.000 A 
ATOM      5  C   UNL     1       1.208   9.483  20.596  0.00  0.00    +0.000 A 
ATOM      6  C   UNL     1       0.996   8.244  21.189  0.00  0.00    +0.000 A 
ATOM      7  C   UNL     1       0.245   8.205  22.368  0.00  0.00    +0.000 A 
ATOM      8  C   UNL     1      -0.184   9.394  22.935  0.00  0.00    +0.000 A 
ATOM      9  N   UNL     1       0.078  10.606  22.412  0.00  0.00    +0.000 NA
ATOM     10  H   UNL     1       0.701  12.638  21.342  0.00  0.00    +0.000 HD
ENDROOT
BRANCH   6  11
ATOM     11  C   UNL     1       1.576   7.008  20.647  0.00  0.00    +0.000 A 
ATOM     12  C   UNL     1       1.006   5.748  20.568  0.00  0.00    +0.000 A 
ATOM     13  C   UNL     1       1.925   4.872  19.954  0.00  0.00    +0.000 A 
ATOM     14  C   UNL     1       3.048   5.613  19.636  0.00  0.00    +0.000 A 
ATOM     15  N   UNL     1       2.846   6.900  20.097  0.00  0.00    +0.000 N 
ATOM     16  C   UNL     1       4.196   5.103  18.773  0.00  0.00    +0.000 C 
ATOM     17  C   UNL     1       3.898   5.526  17.320  0.00  0.00    +0.000 C 
ATOM     18  C   UNL     1       5.102   5.246  16.429  0.00  0.00    +0.000 C 
ATOM     19  C   UNL     1       6.214   6.189  16.838  0.00  0.00    +0.000 C 
ATOM     20  N   UNL     1       6.605   6.052  18.231  0.00  0.00    +0.000 NA
ATOM     21  C   UNL     1       5.601   5.636  19.222  0.00  0.00    +0.000 C 
ATOM     22  C   UNL     1       4.166   3.521  18.853  0.00  0.00    +0.000 C 
ATOM     23  N   UNL     1       2.847   2.906  18.987  0.00  0.00    +0.000 N 
ATOM     24  C   UNL     1       1.763   3.475  19.610  0.00  0.00    +0.000 C 
ATOM     25  O   UNL     1       0.744   2.831  19.832  0.00  0.00    +0.000 OA
ATOM     26  H   UNL     1       3.495   7.671  19.997  0.00  0.00    +0.000 HD
ATOM     27  H   UNL     1       7.472   5.528  18.325  0.00  0.00    +0.000 HD
ATOM     28  H   UNL     1       2.745   1.909  18.848  0.00  0.00    +0.000 HD
ENDBRANCH   6  11
BRANCH   2  29
ATOM     29  C   UNL     1       0.868  13.593  18.989  0.00  0.00    +0.000 A 
ATOM     30  C   UNL     1      -0.202  14.463  19.202  0.00  0.00    +0.000 A 
ATOM     31  C   UNL     1      -0.046  15.815  18.901  0.00  0.00    +0.000 A 
ATOM     32  C   UNL     1       1.156  16.285  18.383  0.00  0.00    +0.000 A 
ATOM     33  C   UNL     1       2.237  15.419  18.166  0.00  0.00    +0.000 A 
ATOM     34  C   UNL     1       2.085  14.056  18.480  0.00  0.00    +0.000 A 
BRANCH  33  35
ATOM     35  C   UNL     1       3.542  15.919  17.598  0.00  0.00    +0.000 C 
ATOM     36  F   UNL     1       4.113  16.898  18.349  0.00  0.00    +0.000 F 
ATOM     37  F   UNL     1       4.476  14.939  17.487  0.00  0.00    +0.000 F 
ATOM     38  F   UNL     1       3.396  16.445  16.350  0.00  0.00    +0.000 F 
ENDBRANCH  33  35
ENDBRANCH   2  29
TORSDOF 3
ENDMDL
MODEL 7
REMARK VINA RESULT:      -9.3      5.070      9.624
REMARK  Name = 
REMARK  3 active torsions:
REMARK  status: ('A' for Active; 'I' for Inactive)
REMARK    1  A    between atoms: C_2  and  C_25
REMARK    2  A    between atoms: C_6  and  C_7
REMARK    3  A    between atoms: C_29  and  C_30
REMARK                            x       y       z     vdW  Elec       q    Type
REMARK                         _______ _______ _______ _____ _____    ______ ____
ROOT
ATOM      1  O   UNL     1       1.350  11.271  18.335  0.00  0.00    +0.000 OA
ATOM      2  C   UNL     1       1.462  12.056  19.269  0.00  0.00    +0.000 C 
ATOM      3  N   UNL     1       1.265  11.778  20.601  0.00  0.00    +0.000 N 
ATOM      4  C   UNL     1       0.893  10.519  21.066  0.00  0.00    +0.000 A 
ATOM      5  C   UNL     1       1.455   9.353  20.551  0.00  0.00    +0.000 A 
ATOM      6  C   UNL     1       1.032   8.128  21.052  0.00  0.00    +0.000 A 
ATOM      7  C   UNL     1       0.015   8.130  22.011  0.00  0.00    +0.000 A 
ATOM      8  C   UNL     1      -0.469   9.342  22.479  0.00  0.00    +0.000 A 
ATOM      9  N   UNL     1      -0.016  10.538  22.058  0.00  0.00    +0.000 NA
ATOM     10  H   UNL     1       0.969  12.530  21.209  0.00  0.00    +0.000 HD
ENDROOT
BRANCH   6  11
ATOM     11  C   UNL     1       1.652   6.859  20.644  0.00  0.00    +0.000 A 
ATOM     12  C   UNL     1       1.180   5.570  20.825  0.00  0.00    +0.000 A 
ATOM     13  C   UNL     1       2.101   4.666  20.253  0.00  0.00    +0.000 A 
ATOM     14  C   UNL     1       3.122   5.417  19.701  0.00  0.00    +0.000 A 
ATOM     15  N   UNL     1       2.864   6.745  19.977  0.00  0.00    +0.000 N 
ATOM     16  C   UNL     1       4.214   4.848  18.802  0.00  0.00    +0.000 C 
ATOM     17  C   UNL     1       3.737   5.010  17.344  0.00  0.00    +0.000 C 
ATOM     18  C   UNL     1       4.863   4.668  16.376  0.00  0.00    +0.000 C 
ATOM     19  C   UNL     1       5.931   5.734  16.508  0.00  0.00    +0.000 C 
ATOM     20  N   UNL     1       6.470   5.849  17.852  0.00  0.00    +0.000 NA
ATOM     21  C   UNL     1       5.610   5.535  19.002  0.00  0.00    +0.000 C 
ATOM     22  C   UNL     1       4.321   3.302  19.127  0.00  0.00    +0.000 C 
ATOM     23  N   UNL     1       3.076   2.633  19.503  0.00  0.00    +0.000 N 
ATOM     24  C   UNL     1       2.019   3.225  20.149  0.00  0.00    +0.000 C 
ATOM     25  O   UNL     1       1.083   2.561  20.581  0.00  0.00    +0.000 OA
ATOM     26  H   UNL     1       3.435   7.529  19.688  0.00  0.00    +0.000 HD
ATOM     27  H   UNL     1       7.383   5.404  17.926  0.00  0.00    +0.000 HD
ATOM     28  H   UNL     1       3.042   1.622  19.531  0.00  0.00    +0.000 HD
ENDBRANCH   6  11
BRANCH   2  29
ATOM     29  C   UNL     1       1.762  13.481  18.985  0.00  0.00    +0.000 A 
ATOM     30  C   UNL     1       0.720  14.403  18.886  0.00  0.00    +0.000 A 
ATOM     31  C   UNL     1       1.022  15.745  18.658  0.00  0.00    +0.000 A 
ATOM     32  C   UNL     1       2.344  16.153  18.518  0.00  0.00    +0.000 A 
ATOM     33  C   UNL     1       3.398  15.233  18.617  0.00  0.00    +0.000 A 
ATOM     34  C   UNL     1       3.095  13.881  18.858  0.00  0.00    +0.000 A 
BRANCH  33  35
ATOM     35  C   UNL     1       4.835  15.665  18.460  0.00  0.00    +0.000 C 
ATOM     36  F   UNL     1       5.480  15.022  17.450  0.00  0.00    +0.000 F 
ATOM     37  F   UNL     1       4.960  16.992  18.200  0.00  0.00    +0.000 F 
ATOM     38  F   UNL     1       5.573  15.429  19.581  0.00  0.00    +0.000 F 
ENDBRANCH  33  35
ENDBRANCH   2  29
TORSDOF 3
ENDMDL
MODEL 8
REMARK VINA RESULT:      -9.2      5.696     10.964
REMARK  Name = 
REMARK  3 active torsions:
REMARK  status: ('A' for Active; 'I' for Inactive)
REMARK    1  A    between atoms: C_2  and  C_25
REMARK    2  A    between atoms: C_6  and  C_7
REMARK    3  A    between atoms: C_29  and  C_30
REMARK                            x       y       z     vdW  Elec       q    Type
REMARK                         _______ _______ _______ _____ _____    ______ ____
ROOT
ATOM      1  O   UNL     1       0.508  10.587  22.782  0.00  0.00    +0.000 OA
ATOM      2  C   UNL     1      -0.346  11.166  22.122  0.00  0.00    +0.000 C 
ATOM      3  N   UNL     1      -0.461  11.170  20.752  0.00  0.00    +0.000 N 
ATOM      4  C   UNL     1       0.423  10.491  19.915  0.00  0.00    +0.000 A 
ATOM      5  C   UNL     1       0.881   9.211  20.219  0.00  0.00    +0.000 A 
ATOM      6  C   UNL     1       1.769   8.593  19.347  0.00  0.00    +0.000 A 
ATOM      7  C   UNL     1       2.203   9.319  18.234  0.00  0.00    +0.000 A 
ATOM      8  C   UNL     1       1.676  10.580  18.003  0.00  0.00    +0.000 A 
ATOM      9  N   UNL     1       0.758  11.161  18.798  0.00  0.00    +0.000 NA
ATOM     10  H   UNL     1      -0.892  11.970  20.308  0.00  0.00    +0.000 HD
ENDROOT
BRANCH   6  11
ATOM     11  C   UNL     1       2.211   7.204  19.534  0.00  0.00    +0.000 A 
ATOM     12  C   UNL     1       1.648   6.216  20.323  0.00  0.00    +0.000 A 
ATOM     13  C   UNL     1       2.402   5.032  20.176  0.00  0.00    +0.000 A 
ATOM     14  C   UNL     1       3.411   5.301  19.271  0.00  0.00    +0.000 A 
ATOM     15  N   UNL     1       3.315   6.632  18.916  0.00  0.00    +0.000 N 
ATOM     16  C   UNL     1       4.325   4.240  18.667  0.00  0.00    +0.000 C 
ATOM     17  C   UNL     1       3.688   3.791  17.336  0.00  0.00    +0.000 C 
ATOM     18  C   UNL     1       4.648   2.894  16.564  0.00  0.00    +0.000 C 
ATOM     19  C   UNL     1       5.819   3.743  16.114  0.00  0.00    +0.000 C 
ATOM     20  N   UNL     1       6.530   4.376  17.212  0.00  0.00    +0.000 NA
ATOM     21  C   UNL     1       5.793   4.740  18.431  0.00  0.00    +0.000 C 
ATOM     22  C   UNL     1       4.326   3.010  19.665  0.00  0.00    +0.000 C 
ATOM     23  N   UNL     1       3.081   2.765  20.390  0.00  0.00    +0.000 N 
ATOM     24  C   UNL     1       2.172   3.727  20.758  0.00  0.00    +0.000 C 
ATOM     25  O   UNL     1       1.240   3.470  21.510  0.00  0.00    +0.000 OA
ATOM     26  H   UNL     1       3.917   7.112  18.258  0.00  0.00    +0.000 HD
ATOM     27  H   UNL     1       7.398   3.889  17.423  0.00  0.00    +0.000 HD
ATOM     28  H   UNL     1       2.957   1.893  20.887  0.00  0.00    +0.000 HD
ENDBRANCH   6  11
BRANCH   2  29
ATOM     29  C   UNL     1      -1.334  12.030  22.814  0.00  0.00    +0.000 A 
ATOM     30  C   UNL     1      -2.554  11.495  23.229  0.00  0.00    +0.000 A 
ATOM     31  C   UNL     1      -3.454  12.310  23.912  0.00  0.00    +0.000 A 
ATOM     32  C   UNL     1      -3.143  13.642  24.165  0.00  0.00    +0.000 A 
ATOM     33  C   UNL     1      -1.919  14.188  23.753  0.00  0.00    +0.000 A 
ATOM     34  C   UNL     1      -1.005  13.363  23.073  0.00  0.00    +0.000 A 
BRANCH  33  35
ATOM     35  C   UNL     1      -1.576  15.634  24.016  0.00  0.00    +0.000 C 
ATOM     36  F   UNL     1      -0.239  15.883  23.978  0.00  0.00    +0.000 F 
ATOM     37  F   UNL     1      -2.141  16.480  23.117  0.00  0.00    +0.000 F 
ATOM     38  F   UNL     1      -1.996  16.052  25.244  0.00  0.00    +0.000 F 
ENDBRANCH  33  35
ENDBRANCH   2  29
TORSDOF 3
ENDMDL
MODEL 9
REMARK VINA RESULT:      -8.8      3.184      4.413
REMARK  Name = 
REMARK  3 active torsions:
REMARK  status: ('A' for Active; 'I' for Inactive)
REMARK    1  A    between atoms: C_2  and  C_25
REMARK    2  A    between atoms: C_6  and  C_7
REMARK    3  A    between atoms: C_29  and  C_30
REMARK                            x       y       z     vdW  Elec       q    Type
REMARK                         _______ _______ _______ _____ _____    ______ ____
ROOT
ATOM      1  O   UNL     1       1.132   7.850  20.663  0.00  0.00    +0.000 OA
ATOM      2  C   UNL     1       1.668   7.950  19.567  0.00  0.00    +0.000 C 
ATOM      3  N   UNL     1       1.325   8.825  18.563  0.00  0.00    +0.000 N 
ATOM      4  C   UNL     1       0.279   9.738  18.678  0.00  0.00    +0.000 A 
ATOM      5  C   UNL     1       0.060  10.456  19.852  0.00  0.00    +0.000 A 
ATOM      6  C   UNL     1      -1.008  11.344  19.904  0.00  0.00    +0.000 A 
ATOM      7  C   UNL     1      -1.845  11.425  18.787  0.00  0.00    +0.000 A 
ATOM      8  C   UNL     1      -1.535  10.686  17.656  0.00  0.00    +0.000 A 
ATOM      9  N   UNL     1      -0.461   9.879  17.564  0.00  0.00    +0.000 NA
ATOM     10  H   UNL     1       1.516   8.557  17.607  0.00  0.00    +0.000 HD
ENDROOT
BRANCH   6  11
ATOM     11  C   UNL     1      -1.242  12.220  21.060  0.00  0.00    +0.000 A 
ATOM     12  C   UNL     1      -0.431  13.224  21.562  0.00  0.00    +0.000 A 
ATOM     13  C   UNL     1      -1.072  13.812  22.673  0.00  0.00    +0.000 A 
ATOM     14  C   UNL     1      -2.290  13.177  22.826  0.00  0.00    +0.000 A 
ATOM     15  N   UNL     1      -2.369  12.184  21.869  0.00  0.00    +0.000 N 
ATOM     16  C   UNL     1      -3.387  13.645  23.775  0.00  0.00    +0.000 C 
ATOM     17  C   UNL     1      -4.329  14.563  22.968  0.00  0.00    +0.000 C 
ATOM     18  C   UNL     1      -5.572  14.896  23.784  0.00  0.00    +0.000 C 
ATOM     19  C   UNL     1      -6.382  13.626  23.939  0.00  0.00    +0.000 C 
ATOM     20  N   UNL     1      -5.653  12.551  24.591  0.00  0.00    +0.000 NA
ATOM     21  C   UNL     1      -4.194  12.468  24.427  0.00  0.00    +0.000 C 
ATOM     22  C   UNL     1      -2.685  14.509  24.902  0.00  0.00    +0.000 C 
ATOM     23  N   UNL     1      -1.514  15.280  24.489  0.00  0.00    +0.000 N 
ATOM     24  C   UNL     1      -0.640  14.926  23.490  0.00  0.00    +0.000 C 
ATOM     25  O   UNL     1       0.410  15.534  23.316  0.00  0.00    +0.000 OA
ATOM     26  H   UNL     1      -3.154  11.559  21.731  0.00  0.00    +0.000 HD
ATOM     27  H   UNL     1      -5.933  12.448  25.564  0.00  0.00    +0.000 HD
ATOM     28  H   UNL     1      -1.144  15.994  25.104  0.00  0.00    +0.000 HD
ENDBRANCH   6  11
BRANCH   2  29
ATOM     29  C   UNL     1       2.750   7.002  19.200  0.00  0.00    +0.000 A 
ATOM     30  C   UNL     1       2.988   5.880  19.994  0.00  0.00    +0.000 A 
ATOM     31  C   UNL     1       3.982   4.980  19.613  0.00  0.00    +0.000 A 
ATOM     32  C   UNL     1       4.733   5.207  18.465  0.00  0.00    +0.000 A 
ATOM     33  C   UNL     1       4.500   6.332  17.661  0.00  0.00    +0.000 A 
ATOM     34  C   UNL     1       3.490   7.236  18.038  0.00  0.00    +0.000 A 
BRANCH  33  35
ATOM     35  C   UNL     1       5.315   6.591  16.418  0.00  0.00    +0.000 C 
ATOM     36  F   UNL     1       5.760   5.453  15.821  0.00  0.00    +0.000 F 
ATOM     37  F   UNL     1       4.621   7.267  15.466  0.00  0.00    +0.000 F 
ATOM     38  F   UNL     1       6.428   7.335  16.673  0.00  0.00    +0.000 F 
ENDBRANCH  33  35
ENDBRANCH   2  29
TORSDOF 3
ENDMDL
