MODEL 1
REMARK VINA RESULT:      -4.6      0.000      0.000
REMARK  Name = 
REMARK  1 active torsions:
REMARK  status: ('A' for Active; 'I' for Inactive)
REMARK    1  A    between atoms: C_5  and  N_6
REMARK                            x       y       z     vdW  Elec       q    Type
REMARK                         _______ _______ _______ _____ _____    ______ ____
ROOT
ATOM      1  N   UNL     1       3.442   5.582  19.985  0.00  0.00    +0.000 N 
ATOM      2  C   UNL     1       4.266   5.294  18.968  0.00  0.00    +0.000 A 
ATOM      3  N   UNL     1       3.844   5.074  17.746  0.00  0.00    +0.000 NA
ATOM      4  C   UNL     1       4.918   4.775  16.925  0.00  0.00    +0.000 A 
ATOM      5  C   UNL     1       6.139   4.793  17.555  0.00  0.00    +0.000 A 
ATOM      6  S   UNL     1       5.967   5.195  19.196  0.00  0.00    +0.000 S 
ATOM      7  H   UNL     1       2.494   5.850  19.745  0.00  0.00    +0.000 HD
ATOM      8  H   UNL     1       3.813   6.015  20.822  0.00  0.00    +0.000 HD
ENDROOT
BRANCH   5   9
ATOM      9  N   UNL     1       7.411   4.520  16.971  0.00  0.00    +0.000 N 
ATOM     10  O   UNL     1       7.507   4.706  15.751  0.00  0.00    +0.000 OA
ATOM     11  O   UNL     1       8.322   4.125  17.711  0.00  0.00    +0.000 OA
ENDBRANCH   5   9
TORSDOF 1
ENDMDL
MODEL 2
REMARK VINA RESULT:      -4.6      2.527      3.884
REMARK  Name = 
REMARK  1 active torsions:
REMARK  status: ('A' for Active; 'I' for Inactive)
REMARK    1  A    between atoms: C_5  and  N_6
REMARK                            x       y       z     vdW  Elec       q    Type
REMARK                         _______ _______ _______ _____ _____    ______ ____
ROOT
ATOM      1  N   UNL     1       6.142   3.584  14.354  0.00  0.00    +0.000 N 
ATOM      2  C   UNL     1       6.367   4.113  15.564  0.00  0.00    +0.000 A 
ATOM      3  N   UNL     1       7.510   4.660  15.906  0.00  0.00    +0.000 NA
ATOM      4  C   UNL     1       7.449   5.089  17.221  0.00  0.00    +0.000 A 
ATOM      5  C   UNL     1       6.243   4.867  17.838  0.00  0.00    +0.000 A 
ATOM      6  S   UNL     1       5.149   4.117  16.778  0.00  0.00    +0.000 S 
ATOM      7  H   UNL     1       6.805   3.815  13.623  0.00  0.00    +0.000 HD
ATOM      8  H   UNL     1       5.191   3.436  14.041  0.00  0.00    +0.000 HD
ENDROOT
BRANCH   5   9
ATOM      9  N   UNL     1       5.893   5.194  19.182  0.00  0.00    +0.000 N 
ATOM     10  O   UNL     1       6.831   5.313  19.981  0.00  0.00    +0.000 OA
ATOM     11  O   UNL     1       4.694   5.339  19.456  0.00  0.00    +0.000 OA
ENDBRANCH   5   9
TORSDOF 1
ENDMDL
MODEL 3
REMARK VINA RESULT:      -4.6      0.513      1.124
REMARK  Name = 
REMARK  1 active torsions:
REMARK  status: ('A' for Active; 'I' for Inactive)
REMARK    1  A    between atoms: C_5  and  N_6
REMARK                            x       y       z     vdW  Elec       q    Type
REMARK                         _______ _______ _______ _____ _____    ______ ____
ROOT
ATOM      1  N   UNL     1       3.512   5.502  20.026  0.00  0.00    +0.000 N 
ATOM      2  C   UNL     1       4.279   5.432  18.930  0.00  0.00    +0.000 A 
ATOM      3  N   UNL     1       3.806   5.577  17.715  0.00  0.00    +0.000 NA
ATOM      4  C   UNL     1       4.827   5.425  16.793  0.00  0.00    +0.000 A 
ATOM      5  C   UNL     1       6.061   5.182  17.344  0.00  0.00    +0.000 A 
ATOM      6  S   UNL     1       5.971   5.145  19.039  0.00  0.00    +0.000 S 
ATOM      7  H   UNL     1       2.585   5.896  19.913  0.00  0.00    +0.000 HD
ATOM      8  H   UNL     1       3.942   5.668  20.928  0.00  0.00    +0.000 HD
ENDROOT
BRANCH   5   9
ATOM      9  N   UNL     1       7.288   4.976  16.646  0.00  0.00    +0.000 N 
ATOM     10  O   UNL     1       8.110   4.227  17.191  0.00  0.00    +0.000 OA
ATOM     11  O   UNL     1       7.447   5.546  15.559  0.00  0.00    +0.000 OA
ENDBRANCH   5   9
TORSDOF 1
ENDMDL
MODEL 4
REMARK VINA RESULT:      -4.6      2.120      2.419
REMARK  Name = 
REMARK  1 active torsions:
REMARK  status: ('A' for Active; 'I' for Inactive)
REMARK    1  A    between atoms: C_5  and  N_6
REMARK                            x       y       z     vdW  Elec       q    Type
REMARK                         _______ _______ _______ _____ _____    ______ ____
ROOT
ATOM      1  N   UNL     1       4.508   3.959  19.378  0.00  0.00    +0.000 N 
ATOM      2  C   UNL     1       5.394   4.167  18.396  0.00  0.00    +0.000 A 
ATOM      3  N   UNL     1       6.649   4.479  18.618  0.00  0.00    +0.000 NA
ATOM      4  C   UNL     1       7.308   4.659  17.414  0.00  0.00    +0.000 A 
ATOM      5  C   UNL     1       6.527   4.461  16.302  0.00  0.00    +0.000 A 
ATOM      6  S   UNL     1       4.944   4.035  16.742  0.00  0.00    +0.000 S 
ATOM      7  H   UNL     1       4.881   3.825  20.311  0.00  0.00    +0.000 HD
ATOM      8  H   UNL     1       3.651   3.455  19.181  0.00  0.00    +0.000 HD
ENDROOT
BRANCH   5   9
ATOM      9  N   UNL     1       6.927   4.583  14.938  0.00  0.00    +0.000 N 
ATOM     10  O   UNL     1       6.385   3.811  14.136  0.00  0.00    +0.000 OA
ATOM     11  O   UNL     1       7.773   5.440  14.649  0.00  0.00    +0.000 OA
ENDBRANCH   5   9
TORSDOF 1
ENDMDL
MODEL 5
REMARK VINA RESULT:      -4.5      4.226      5.128
REMARK  Name = 
REMARK  1 active torsions:
REMARK  status: ('A' for Active; 'I' for Inactive)
REMARK    1  A    between atoms: C_5  and  N_6
REMARK                            x       y       z     vdW  Elec       q    Type
REMARK                         _______ _______ _______ _____ _____    ______ ____
ROOT
ATOM      1  N   UNL     1       6.188   3.991  18.448  0.00  0.00    +0.000 N 
ATOM      2  C   UNL     1       5.007   4.088  19.073  0.00  0.00    +0.000 A 
ATOM      3  N   UNL     1       4.382   5.229  19.248  0.00  0.00    +0.000 NA
ATOM      4  C   UNL     1       3.206   5.016  19.947  0.00  0.00    +0.000 A 
ATOM      5  C   UNL     1       2.965   3.703  20.271  0.00  0.00    +0.000 A 
ATOM      6  S   UNL     1       4.208   2.700  19.697  0.00  0.00    +0.000 S 
ATOM      7  H   UNL     1       6.489   4.795  17.909  0.00  0.00    +0.000 HD
ATOM      8  H   UNL     1       6.491   3.094  18.089  0.00  0.00    +0.000 HD
ENDROOT
BRANCH   5   9
ATOM      9  N   UNL     1       1.846   3.187  20.990  0.00  0.00    +0.000 N 
ATOM     10  O   UNL     1       0.798   3.044  20.346  0.00  0.00    +0.000 OA
ATOM     11  O   UNL     1       1.994   2.917  22.189  0.00  0.00    +0.000 OA
ENDBRANCH   5   9
TORSDOF 1
ENDMDL
MODEL 6
REMARK VINA RESULT:      -4.5      2.603      3.975
REMARK  Name = 
REMARK  1 active torsions:
REMARK  status: ('A' for Active; 'I' for Inactive)
REMARK    1  A    between atoms: C_5  and  N_6
REMARK                            x       y       z     vdW  Elec       q    Type
REMARK                         _______ _______ _______ _____ _____    ______ ____
ROOT
ATOM      1  N   UNL     1       7.044   5.137  14.341  0.00  0.00    +0.000 N 
ATOM      2  C   UNL     1       6.846   4.929  15.649  0.00  0.00    +0.000 A 
ATOM      3  N   UNL     1       7.818   4.644  16.484  0.00  0.00    +0.000 NA
ATOM      4  C   UNL     1       7.303   4.457  17.756  0.00  0.00    +0.000 A 
ATOM      5  C   UNL     1       5.943   4.623  17.851  0.00  0.00    +0.000 A 
ATOM      6  S   UNL     1       5.276   5.026  16.343  0.00  0.00    +0.000 S 
ATOM      7  H   UNL     1       8.000   5.293  14.041  0.00  0.00    +0.000 HD
ATOM      8  H   UNL     1       6.340   5.621  13.799  0.00  0.00    +0.000 HD
ENDROOT
BRANCH   5   9
ATOM      9  N   UNL     1       5.141   4.486  19.022  0.00  0.00    +0.000 N 
ATOM     10  O   UNL     1       4.538   5.502  19.396  0.00  0.00    +0.000 OA
ATOM     11  O   UNL     1       5.097   3.381  19.577  0.00  0.00    +0.000 OA
ENDBRANCH   5   9
TORSDOF 1
ENDMDL
MODEL 7
REMARK VINA RESULT:      -4.5      2.558      3.818
REMARK  Name = 
REMARK  1 active torsions:
REMARK  status: ('A' for Active; 'I' for Inactive)
REMARK    1  A    between atoms: C_5  and  N_6
REMARK                            x       y       z     vdW  Elec       q    Type
REMARK                         _______ _______ _______ _____ _____    ______ ____
ROOT
ATOM      1  N   UNL     1       6.342   3.753  14.191  0.00  0.00    +0.000 N 
ATOM      2  C   UNL     1       6.452   4.363  15.378  0.00  0.00    +0.000 A 
ATOM      3  N   UNL     1       7.325   5.314  15.616  0.00  0.00    +0.000 NA
ATOM      4  C   UNL     1       7.220   5.728  16.933  0.00  0.00    +0.000 A 
ATOM      5  C   UNL     1       6.249   5.081  17.659  0.00  0.00    +0.000 A 
ATOM      6  S   UNL     1       5.437   3.940  16.700  0.00  0.00    +0.000 S 
ATOM      7  H   UNL     1       6.799   4.197  13.403  0.00  0.00    +0.000 HD
ATOM      8  H   UNL     1       5.496   3.244  13.967  0.00  0.00    +0.000 HD
ENDROOT
BRANCH   5   9
ATOM      9  N   UNL     1       5.920   5.289  19.031  0.00  0.00    +0.000 N 
ATOM     10  O   UNL     1       4.713   5.353  19.302  0.00  0.00    +0.000 OA
ATOM     11  O   UNL     1       6.845   5.387  19.847  0.00  0.00    +0.000 OA
ENDBRANCH   5   9
TORSDOF 1
ENDMDL
MODEL 8
REMARK VINA RESULT:      -4.5      2.637      3.807
REMARK  Name = 
REMARK  1 active torsions:
REMARK  status: ('A' for Active; 'I' for Inactive)
REMARK    1  A    between atoms: C_5  and  N_6
REMARK                            x       y       z     vdW  Elec       q    Type
REMARK                         _______ _______ _______ _____ _____    ______ ____
ROOT
ATOM      1  N   UNL     1       7.463   5.189  14.409  0.00  0.00    +0.000 N 
ATOM      2  C   UNL     1       6.773   5.408  15.536  0.00  0.00    +0.000 A 
ATOM      3  N   UNL     1       5.706   6.171  15.586  0.00  0.00    +0.000 NA
ATOM      4  C   UNL     1       5.230   6.228  16.885  0.00  0.00    +0.000 A 
ATOM      5  C   UNL     1       5.950   5.485  17.788  0.00  0.00    +0.000 A 
ATOM      6  S   UNL     1       7.241   4.689  17.026  0.00  0.00    +0.000 S 
ATOM      7  H   UNL     1       7.013   5.447  13.538  0.00  0.00    +0.000 HD
ATOM      8  H   UNL     1       8.087   4.394  14.351  0.00  0.00    +0.000 HD
ENDROOT
BRANCH   5   9
ATOM      9  N   UNL     1       5.702   5.359  19.188  0.00  0.00    +0.000 N 
ATOM     10  O   UNL     1       6.698   5.218  19.911  0.00  0.00    +0.000 OA
ATOM     11  O   UNL     1       4.529   5.402  19.582  0.00  0.00    +0.000 OA
ENDBRANCH   5   9
TORSDOF 1
ENDMDL
MODEL 9
REMARK VINA RESULT:      -4.5      2.647      4.133
REMARK  Name = 
REMARK  1 active torsions:
REMARK  status: ('A' for Active; 'I' for Inactive)
REMARK    1  A    between atoms: C_5  and  N_6
REMARK                            x       y       z     vdW  Elec       q    Type
REMARK                         _______ _______ _______ _____ _____    ______ ____
ROOT
ATOM      1  N   UNL     1       7.380   5.231  14.361  0.00  0.00    +0.000 N 
ATOM      2  C   UNL     1       6.981   4.957  15.610  0.00  0.00    +0.000 A 
ATOM      3  N   UNL     1       7.817   4.731  16.595  0.00  0.00    +0.000 NA
ATOM      4  C   UNL     1       7.112   4.450  17.753  0.00  0.00    +0.000 A 
ATOM      5  C   UNL     1       5.747   4.489  17.613  0.00  0.00    +0.000 A 
ATOM      6  S   UNL     1       5.312   4.886  16.021  0.00  0.00    +0.000 S 
ATOM      7  H   UNL     1       8.353   5.483  14.235  0.00  0.00    +0.000 HD
ATOM      8  H   UNL     1       6.735   5.669  13.714  0.00  0.00    +0.000 HD
ENDROOT
BRANCH   5   9
ATOM      9  N   UNL     1       4.772   4.237  18.624  0.00  0.00    +0.000 N 
ATOM     10  O   UNL     1       5.100   3.446  19.518  0.00  0.00    +0.000 OA
ATOM     11  O   UNL     1       3.682   4.819  18.544  0.00  0.00    +0.000 OA
ENDBRANCH   5   9
TORSDOF 1
ENDMDL
