MODEL 1
REMARK VINA RESULT:      -8.3      0.000      0.000
REMARK  Name = 
REMARK  5 active torsions:
REMARK  status: ('A' for Active; 'I' for Inactive)
REMARK    1  A    between atoms: C_1  and  C_2
REMARK    2  A    between atoms: C_7  and  S_8
REMARK    3  A    between atoms: S_8  and  C_9
REMARK    4  A    between atoms: C_9  and  C_10
REMARK    5  A    between atoms: N_12  and  C_13
REMARK                            x       y       z     vdW  Elec       q    Type
REMARK                         _______ _______ _______ _____ _____    ______ ____
ROOT
ATOM      1  C   UNL     1       2.018   4.177  20.140  0.00  0.00    +0.000 C 
ATOM      2  O   UNL     1       1.134   4.010  19.302  0.00  0.00    +0.000 OA
ATOM      3  N   UNL     1       2.694   5.371  20.355  0.00  0.00    +0.000 N 
ATOM      4  H   UNL     1       3.573   5.330  20.861  0.00  0.00    +0.000 HD
ENDROOT
BRANCH   3   5
ATOM      5  C   UNL     1       2.312   6.634  19.836  0.00  0.00    +0.000 A 
ATOM      6  C   UNL     1       2.572   7.003  18.514  0.00  0.00    +0.000 A 
ATOM      7  C   UNL     1       2.178   8.248  18.021  0.00  0.00    +0.000 A 
ATOM      8  C   UNL     1       1.516   9.142  18.851  0.00  0.00    +0.000 A 
ATOM      9  C   UNL     1       1.220   8.781  20.168  0.00  0.00    +0.000 A 
ATOM     10  C   UNL     1       1.615   7.529  20.662  0.00  0.00    +0.000 A 
ATOM     11  O   UNL     1       0.554   9.613  21.034  0.00  0.00    +0.000 OA
ATOM     12  C   UNL     1      -0.091  10.689  20.338  0.00  0.00    +0.000 C 
ATOM     13  C   UNL     1       0.828  11.306  19.297  0.00  0.00    +0.000 C 
ATOM     14  O   UNL     1       1.177  10.347  18.296  0.00  0.00    +0.000 OA
ENDBRANCH   3   5
BRANCH   1  15
ATOM     15  C   UNL     1       2.538   2.994  20.940  0.00  0.00    +0.000 C 
BRANCH  15  16
ATOM     16  S   UNL     1       3.850   2.099  20.076  0.00  0.00    +0.000 S 
BRANCH  16  23
ATOM     17  C   UNL     1       8.011   7.958  17.456  0.00  0.00    +0.000 C 
ATOM     18  C   UNL     1       7.095   6.768  17.513  0.00  0.00    +0.000 A 
ATOM     19  C   UNL     1       6.504   6.276  16.340  0.00  0.00    +0.000 A 
ATOM     20  C   UNL     1       5.649   5.171  16.357  0.00  0.00    +0.000 A 
ATOM     21  C   UNL     1       5.407   4.583  17.598  0.00  0.00    +0.000 A 
ATOM     22  N   UNL     1       4.643   3.511  17.970  0.00  0.00    +0.000 N 
ATOM     23  C   UNL     1       4.736   3.372  19.321  0.00  0.00    +0.000 A 
ATOM     24  N   UNL     1       5.533   4.261  19.855  0.00  0.00    +0.000 NA
ATOM     25  C   UNL     1       5.962   5.035  18.792  0.00  0.00    +0.000 A 
ATOM     26  C   UNL     1       6.825   6.146  18.753  0.00  0.00    +0.000 A 
ATOM     27  H   UNL     1       4.089   2.925  17.361  0.00  0.00    +0.000 HD
ENDBRANCH  16  23
ENDBRANCH  15  16
ENDBRANCH   1  15
TORSDOF 4
ENDMDL
MODEL 2
REMARK VINA RESULT:      -8.3      1.208      1.804
REMARK  Name = 
REMARK  5 active torsions:
REMARK  status: ('A' for Active; 'I' for Inactive)
REMARK    1  A    between atoms: C_1  and  C_2
REMARK    2  A    between atoms: C_7  and  S_8
REMARK    3  A    between atoms: S_8  and  C_9
REMARK    4  A    between atoms: C_9  and  C_10
REMARK    5  A    between atoms: N_12  and  C_13
REMARK                            x       y       z     vdW  Elec       q    Type
REMARK                         _______ _______ _______ _____ _____    ______ ____
ROOT
ATOM      1  C   UNL     1       1.924   4.923  20.582  0.00  0.00    +0.000 C 
ATOM      2  O   UNL     1       0.775   4.738  20.184  0.00  0.00    +0.000 OA
ATOM      3  N   UNL     1       2.660   6.082  20.373  0.00  0.00    +0.000 N 
ATOM      4  H   UNL     1       3.666   6.030  20.495  0.00  0.00    +0.000 HD
ENDROOT
BRANCH   3   5
ATOM      5  C   UNL     1       2.135   7.311  19.901  0.00  0.00    +0.000 A 
ATOM      6  C   UNL     1       2.298   7.728  18.577  0.00  0.00    +0.000 A 
ATOM      7  C   UNL     1       1.764   8.939  18.132  0.00  0.00    +0.000 A 
ATOM      8  C   UNL     1       1.059   9.750  19.010  0.00  0.00    +0.000 A 
ATOM      9  C   UNL     1       0.860   9.337  20.330  0.00  0.00    +0.000 A 
ATOM     10  C   UNL     1       1.395   8.120  20.777  0.00  0.00    +0.000 A 
ATOM     11  O   UNL     1       0.159  10.084  21.244  0.00  0.00    +0.000 OA
ATOM     12  C   UNL     1      -0.617  11.106  20.603  0.00  0.00    +0.000 C 
ATOM     13  C   UNL     1       0.190  11.828  19.537  0.00  0.00    +0.000 C 
ATOM     14  O   UNL     1       0.581  10.926  18.499  0.00  0.00    +0.000 OA
ENDBRANCH   3   5
BRANCH   1  15
ATOM     15  C   UNL     1       2.689   3.790  21.247  0.00  0.00    +0.000 C 
BRANCH  15  16
ATOM     16  S   UNL     1       2.925   2.376  20.146  0.00  0.00    +0.000 S 
BRANCH  16  23
ATOM     17  C   UNL     1       6.881   5.012  14.154  0.00  0.00    +0.000 C 
ATOM     18  C   UNL     1       6.479   4.661  15.558  0.00  0.00    +0.000 A 
ATOM     19  C   UNL     1       7.333   4.956  16.630  0.00  0.00    +0.000 A 
ATOM     20  C   UNL     1       6.991   4.646  17.949  0.00  0.00    +0.000 A 
ATOM     21  C   UNL     1       5.759   4.024  18.148  0.00  0.00    +0.000 A 
ATOM     22  N   UNL     1       5.122   3.594  19.279  0.00  0.00    +0.000 N 
ATOM     23  C   UNL     1       3.939   3.029  18.912  0.00  0.00    +0.000 A 
ATOM     24  N   UNL     1       3.744   3.086  17.620  0.00  0.00    +0.000 NA
ATOM     25  C   UNL     1       4.877   3.703  17.119  0.00  0.00    +0.000 A 
ATOM     26  C   UNL     1       5.238   4.030  15.799  0.00  0.00    +0.000 A 
ATOM     27  H   UNL     1       5.464   3.663  20.227  0.00  0.00    +0.000 HD
ENDBRANCH  16  23
ENDBRANCH  15  16
ENDBRANCH   1  15
TORSDOF 4
ENDMDL
MODEL 3
REMARK VINA RESULT:      -8.1      1.081      2.021
REMARK  Name = 
REMARK  5 active torsions:
REMARK  status: ('A' for Active; 'I' for Inactive)
REMARK    1  A    between atoms: C_1  and  C_2
REMARK    2  A    between atoms: C_7  and  S_8
REMARK    3  A    between atoms: S_8  and  C_9
REMARK    4  A    between atoms: C_9  and  C_10
REMARK    5  A    between atoms: N_12  and  C_13
REMARK                            x       y       z     vdW  Elec       q    Type
REMARK                         _______ _______ _______ _____ _____    ______ ____
ROOT
ATOM      1  C   UNL     1       1.998   4.086  19.767  0.00  0.00    +0.000 C 
ATOM      2  O   UNL     1       0.793   4.031  20.009  0.00  0.00    +0.000 OA
ATOM      3  N   UNL     1       2.695   5.249  19.466  0.00  0.00    +0.000 N 
ATOM      4  H   UNL     1       3.601   5.153  19.021  0.00  0.00    +0.000 HD
ENDROOT
BRANCH   3   5
ATOM      5  C   UNL     1       2.201   6.567  19.635  0.00  0.00    +0.000 A 
ATOM      6  C   UNL     1       1.611   6.992  20.829  0.00  0.00    +0.000 A 
ATOM      7  C   UNL     1       1.140   8.298  20.976  0.00  0.00    +0.000 A 
ATOM      8  C   UNL     1       1.253   9.197  19.924  0.00  0.00    +0.000 A 
ATOM      9  C   UNL     1       1.866   8.800  18.733  0.00  0.00    +0.000 A 
ATOM     10  C   UNL     1       2.341   7.489  18.586  0.00  0.00    +0.000 A 
ATOM     11  O   UNL     1       2.023   9.645  17.662  0.00  0.00    +0.000 OA
ATOM     12  C   UNL     1       1.827  11.015  18.040  0.00  0.00    +0.000 C 
ATOM     13  C   UNL     1       0.599  11.177  18.921  0.00  0.00    +0.000 C 
ATOM     14  O   UNL     1       0.754  10.452  20.144  0.00  0.00    +0.000 OA
ENDBRANCH   3   5
BRANCH   1  15
ATOM     15  C   UNL     1       2.808   2.806  19.651  0.00  0.00    +0.000 C 
BRANCH  15  16
ATOM     16  S   UNL     1       3.609   2.639  18.039  0.00  0.00    +0.000 S 
BRANCH  16  23
ATOM     17  C   UNL     1       8.078   8.818  17.435  0.00  0.00    +0.000 C 
ATOM     18  C   UNL     1       7.527   7.489  17.871  0.00  0.00    +0.000 A 
ATOM     19  C   UNL     1       8.205   6.725  18.831  0.00  0.00    +0.000 A 
ATOM     20  C   UNL     1       7.720   5.487  19.261  0.00  0.00    +0.000 A 
ATOM     21  C   UNL     1       6.530   5.044  18.685  0.00  0.00    +0.000 A 
ATOM     22  N   UNL     1       5.789   3.910  18.869  0.00  0.00    +0.000 N 
ATOM     23  C   UNL     1       4.716   3.962  18.033  0.00  0.00    +0.000 A 
ATOM     24  N   UNL     1       4.689   5.067  17.334  0.00  0.00    +0.000 NA
ATOM     25  C   UNL     1       5.821   5.760  17.724  0.00  0.00    +0.000 A 
ATOM     26  C   UNL     1       6.323   7.008  17.310  0.00  0.00    +0.000 A 
ATOM     27  H   UNL     1       5.998   3.150  19.502  0.00  0.00    +0.000 HD
ENDBRANCH  16  23
ENDBRANCH  15  16
ENDBRANCH   1  15
TORSDOF 4
ENDMDL
MODEL 4
REMARK VINA RESULT:      -8.1      4.691      7.499
REMARK  Name = 
REMARK  5 active torsions:
REMARK  status: ('A' for Active; 'I' for Inactive)
REMARK    1  A    between atoms: C_1  and  C_2
REMARK    2  A    between atoms: C_7  and  S_8
REMARK    3  A    between atoms: S_8  and  C_9
REMARK    4  A    between atoms: C_9  and  C_10
REMARK    5  A    between atoms: N_12  and  C_13
REMARK                            x       y       z     vdW  Elec       q    Type
REMARK                         _______ _______ _______ _____ _____    ______ ____
ROOT
ATOM      1  C   UNL     1       8.147   8.199  18.249  0.00  0.00    +0.000 C 
ATOM      2  O   UNL     1       7.723   8.772  17.247  0.00  0.00    +0.000 OA
ATOM      3  N   UNL     1       8.986   8.771  19.196  0.00  0.00    +0.000 N 
ATOM      4  H   UNL     1       9.489   8.147  19.819  0.00  0.00    +0.000 HD
ENDROOT
BRANCH   3   5
ATOM      5  C   UNL     1       9.281  10.154  19.300  0.00  0.00    +0.000 A 
ATOM      6  C   UNL     1       9.228  10.835  20.520  0.00  0.00    +0.000 A 
ATOM      7  C   UNL     1       9.532  12.195  20.600  0.00  0.00    +0.000 A 
ATOM      8  C   UNL     1       9.894  12.892  19.456  0.00  0.00    +0.000 A 
ATOM      9  C   UNL     1       9.982  12.223  18.232  0.00  0.00    +0.000 A 
ATOM     10  C   UNL     1       9.678  10.857  18.152  0.00  0.00    +0.000 A 
ATOM     11  O   UNL     1      10.349  12.851  17.068  0.00  0.00    +0.000 OA
ATOM     12  C   UNL     1      10.959  14.124  17.326  0.00  0.00    +0.000 C 
ATOM     13  C   UNL     1      10.177  14.913  18.364  0.00  0.00    +0.000 C 
ATOM     14  O   UNL     1      10.162  14.225  19.618  0.00  0.00    +0.000 OA
ENDBRANCH   3   5
BRANCH   1  15
ATOM     15  C   UNL     1       7.867   6.719  18.453  0.00  0.00    +0.000 C 
BRANCH  15  16
ATOM     16  S   UNL     1       6.964   5.990  17.067  0.00  0.00    +0.000 S 
BRANCH  16  23
ATOM     17  C   UNL     1       1.260   2.868  21.094  0.00  0.00    +0.000 C 
ATOM     18  C   UNL     1       2.327   3.085  20.058  0.00  0.00    +0.000 A 
ATOM     19  C   UNL     1       2.564   2.111  19.077  0.00  0.00    +0.000 A 
ATOM     20  C   UNL     1       3.546   2.281  18.097  0.00  0.00    +0.000 A 
ATOM     21  C   UNL     1       4.282   3.464  18.144  0.00  0.00    +0.000 A 
ATOM     22  N   UNL     1       5.292   3.946  17.358  0.00  0.00    +0.000 N 
ATOM     23  C   UNL     1       5.680   5.152  17.856  0.00  0.00    +0.000 A 
ATOM     24  N   UNL     1       4.972   5.507  18.898  0.00  0.00    +0.000 NA
ATOM     25  C   UNL     1       4.091   4.459  19.099  0.00  0.00    +0.000 A 
ATOM     26  C   UNL     1       3.093   4.272  20.073  0.00  0.00    +0.000 A 
ATOM     27  H   UNL     1       5.700   3.490  16.553  0.00  0.00    +0.000 HD
ENDBRANCH  16  23
ENDBRANCH  15  16
ENDBRANCH   1  15
TORSDOF 4
ENDMDL
MODEL 5
REMARK VINA RESULT:      -8.1      1.130      1.635
REMARK  Name = 
REMARK  5 active torsions:
REMARK  status: ('A' for Active; 'I' for Inactive)
REMARK    1  A    between atoms: C_1  and  C_2
REMARK    2  A    between atoms: C_7  and  S_8
REMARK    3  A    between atoms: S_8  and  C_9
REMARK    4  A    between atoms: C_9  and  C_10
REMARK    5  A    between atoms: N_12  and  C_13
REMARK                            x       y       z     vdW  Elec       q    Type
REMARK                         _______ _______ _______ _____ _____    ______ ____
ROOT
ATOM      1  C   UNL     1       2.052   4.191  19.404  0.00  0.00    +0.000 C 
ATOM      2  O   UNL     1       0.845   4.157  19.172  0.00  0.00    +0.000 OA
ATOM      3  N   UNL     1       2.815   5.349  19.475  0.00  0.00    +0.000 N 
ATOM      4  H   UNL     1       3.822   5.255  19.396  0.00  0.00    +0.000 HD
ENDROOT
BRANCH   3   5
ATOM      5  C   UNL     1       2.298   6.667  19.545  0.00  0.00    +0.000 A 
ATOM      6  C   UNL     1       2.292   7.522  18.440  0.00  0.00    +0.000 A 
ATOM      7  C   UNL     1       1.769   8.813  18.529  0.00  0.00    +0.000 A 
ATOM      8  C   UNL     1       1.245   9.266  19.732  0.00  0.00    +0.000 A 
ATOM      9  C   UNL     1       1.214   8.417  20.841  0.00  0.00    +0.000 A 
ATOM     10  C   UNL     1       1.738   7.119  20.751  0.00  0.00    +0.000 A 
ATOM     11  O   UNL     1       0.695   8.798  22.053  0.00  0.00    +0.000 OA
ATOM     12  C   UNL     1      -0.106   9.982  21.934  0.00  0.00    +0.000 C 
ATOM     13  C   UNL     1       0.579  11.030  21.072  0.00  0.00    +0.000 C 
ATOM     14  O   UNL     1       0.766  10.548  19.740  0.00  0.00    +0.000 OA
ENDBRANCH   3   5
BRANCH   1  15
ATOM     15  C   UNL     1       2.843   2.897  19.504  0.00  0.00    +0.000 C 
BRANCH  15  16
ATOM     16  S   UNL     1       3.863   2.596  18.043  0.00  0.00    +0.000 S 
BRANCH  16  23
ATOM     17  C   UNL     1       8.081   8.947  17.418  0.00  0.00    +0.000 C 
ATOM     18  C   UNL     1       7.580   7.601  17.862  0.00  0.00    +0.000 A 
ATOM     19  C   UNL     1       8.279   6.876  18.838  0.00  0.00    +0.000 A 
ATOM     20  C   UNL     1       7.840   5.624  19.276  0.00  0.00    +0.000 A 
ATOM     21  C   UNL     1       6.676   5.127  18.693  0.00  0.00    +0.000 A 
ATOM     22  N   UNL     1       5.980   3.964  18.882  0.00  0.00    +0.000 N 
ATOM     23  C   UNL     1       4.915   3.963  18.034  0.00  0.00    +0.000 A 
ATOM     24  N   UNL     1       4.850   5.058  17.322  0.00  0.00    +0.000 NA
ATOM     25  C   UNL     1       5.948   5.802  17.716  0.00  0.00    +0.000 A 
ATOM     26  C   UNL     1       6.403   7.065  17.293  0.00  0.00    +0.000 A 
ATOM     27  H   UNL     1       6.212   3.221  19.526  0.00  0.00    +0.000 HD
ENDBRANCH  16  23
ENDBRANCH  15  16
ENDBRANCH   1  15
TORSDOF 4
ENDMDL
MODEL 6
REMARK VINA RESULT:      -8.0      0.903      1.601
REMARK  Name = 
REMARK  5 active torsions:
REMARK  status: ('A' for Active; 'I' for Inactive)
REMARK    1  A    between atoms: C_1  and  C_2
REMARK    2  A    between atoms: C_7  and  S_8
REMARK    3  A    between atoms: S_8  and  C_9
REMARK    4  A    between atoms: C_9  and  C_10
REMARK    5  A    between atoms: N_12  and  C_13
REMARK                            x       y       z     vdW  Elec       q    Type
REMARK                         _______ _______ _______ _____ _____    ______ ____
ROOT
ATOM      1  C   UNL     1       1.825   3.799  19.786  0.00  0.00    +0.000 C 
ATOM      2  O   UNL     1       0.866   3.857  19.019  0.00  0.00    +0.000 OA
ATOM      3  N   UNL     1       2.517   4.899  20.278  0.00  0.00    +0.000 N 
ATOM      4  H   UNL     1       3.439   4.739  20.670  0.00  0.00    +0.000 HD
ENDROOT
BRANCH   3   5
ATOM      5  C   UNL     1       2.086   6.246  20.185  0.00  0.00    +0.000 A 
ATOM      6  C   UNL     1       1.385   6.874  21.218  0.00  0.00    +0.000 A 
ATOM      7  C   UNL     1       0.978   8.205  21.108  0.00  0.00    +0.000 A 
ATOM      8  C   UNL     1       1.269   8.926  19.958  0.00  0.00    +0.000 A 
ATOM      9  C   UNL     1       1.995   8.324  18.926  0.00  0.00    +0.000 A 
ATOM     10  C   UNL     1       2.405   6.988  19.037  0.00  0.00    +0.000 A 
ATOM     11  O   UNL     1       2.329   8.986  17.771  0.00  0.00    +0.000 OA
ATOM     12  C   UNL     1       2.171  10.405  17.913  0.00  0.00    +0.000 C 
ATOM     13  C   UNL     1       0.859  10.751  18.597  0.00  0.00    +0.000 C 
ATOM     14  O   UNL     1       0.823  10.219  19.924  0.00  0.00    +0.000 OA
ENDBRANCH   3   5
BRANCH   1  15
ATOM     15  C   UNL     1       2.420   2.451  20.158  0.00  0.00    +0.000 C 
BRANCH  15  16
ATOM     16  S   UNL     1       3.537   1.815  18.888  0.00  0.00    +0.000 S 
BRANCH  16  23
ATOM     17  C   UNL     1       7.889   7.986  17.665  0.00  0.00    +0.000 C 
ATOM     18  C   UNL     1       6.877   6.890  17.479  0.00  0.00    +0.000 A 
ATOM     19  C   UNL     1       6.104   6.836  16.310  0.00  0.00    +0.000 A 
ATOM     20  C   UNL     1       5.156   5.831  16.102  0.00  0.00    +0.000 A 
ATOM     21  C   UNL     1       5.011   4.885  17.117  0.00  0.00    +0.000 A 
ATOM     22  N   UNL     1       4.200   3.791  17.241  0.00  0.00    +0.000 N 
ATOM     23  C   UNL     1       4.443   3.216  18.451  0.00  0.00    +0.000 A 
ATOM     24  N   UNL     1       5.379   3.843  19.115  0.00  0.00    +0.000 NA
ATOM     25  C   UNL     1       5.748   4.897  18.299  0.00  0.00    +0.000 A 
ATOM     26  C   UNL     1       6.702   5.914  18.485  0.00  0.00    +0.000 A 
ATOM     27  H   UNL     1       3.523   3.463  16.566  0.00  0.00    +0.000 HD
ENDBRANCH  16  23
ENDBRANCH  15  16
ENDBRANCH   1  15
TORSDOF 4
ENDMDL
MODEL 7
REMARK VINA RESULT:      -8.0      4.676      7.215
REMARK  Name = 
REMARK  5 active torsions:
REMARK  status: ('A' for Active; 'I' for Inactive)
REMARK    1  A    between atoms: C_1  and  C_2
REMARK    2  A    between atoms: C_7  and  S_8
REMARK    3  A    between atoms: S_8  and  C_9
REMARK    4  A    between atoms: C_9  and  C_10
REMARK    5  A    between atoms: N_12  and  C_13
REMARK                            x       y       z     vdW  Elec       q    Type
REMARK                         _______ _______ _______ _____ _____    ______ ____
ROOT
ATOM      1  C   UNL     1       8.077   8.042  18.239  0.00  0.00    +0.000 C 
ATOM      2  O   UNL     1       7.559   8.574  17.259  0.00  0.00    +0.000 OA
ATOM      3  N   UNL     1       8.970   8.664  19.102  0.00  0.00    +0.000 N 
ATOM      4  H   UNL     1       9.539   8.072  19.698  0.00  0.00    +0.000 HD
ENDROOT
BRANCH   3   5
ATOM      5  C   UNL     1       9.230  10.057  19.147  0.00  0.00    +0.000 A 
ATOM      6  C   UNL     1       9.317  10.833  17.988  0.00  0.00    +0.000 A 
ATOM      7  C   UNL     1       9.565  12.205  18.056  0.00  0.00    +0.000 A 
ATOM      8  C   UNL     1       9.730  12.818  19.291  0.00  0.00    +0.000 A 
ATOM      9  C   UNL     1       9.617  12.064  20.462  0.00  0.00    +0.000 A 
ATOM     10  C   UNL     1       9.367  10.686  20.393  0.00  0.00    +0.000 A 
ATOM     11  O   UNL     1       9.754  12.613  21.713  0.00  0.00    +0.000 OA
ATOM     12  C   UNL     1       9.659  14.044  21.674  0.00  0.00    +0.000 C 
ATOM     13  C   UNL     1      10.477  14.623  20.531  0.00  0.00    +0.000 C 
ATOM     14  O   UNL     1       9.984  14.163  19.270  0.00  0.00    +0.000 OA
ENDBRANCH   3   5
BRANCH   1  15
ATOM     15  C   UNL     1       7.859   6.560  18.502  0.00  0.00    +0.000 C 
BRANCH  15  16
ATOM     16  S   UNL     1       7.027   5.730  17.129  0.00  0.00    +0.000 S 
BRANCH  16  23
ATOM     17  C   UNL     1       1.175   2.866  21.137  0.00  0.00    +0.000 C 
ATOM     18  C   UNL     1       2.244   3.042  20.096  0.00  0.00    +0.000 A 
ATOM     19  C   UNL     1       2.413   2.080  19.089  0.00  0.00    +0.000 A 
ATOM     20  C   UNL     1       3.395   2.214  18.103  0.00  0.00    +0.000 A 
ATOM     21  C   UNL     1       4.203   3.348  18.172  0.00  0.00    +0.000 A 
ATOM     22  N   UNL     1       5.234   3.786  17.388  0.00  0.00    +0.000 N 
ATOM     23  C   UNL     1       5.700   4.954  17.911  0.00  0.00    +0.000 A 
ATOM     24  N   UNL     1       5.024   5.325  18.968  0.00  0.00    +0.000 NA
ATOM     25  C   UNL     1       4.082   4.329  19.152  0.00  0.00    +0.000 A 
ATOM     26  C   UNL     1       3.083   4.179  20.132  0.00  0.00    +0.000 A 
ATOM     27  H   UNL     1       5.606   3.327  16.568  0.00  0.00    +0.000 HD
ENDBRANCH  16  23
ENDBRANCH  15  16
ENDBRANCH   1  15
TORSDOF 4
ENDMDL
MODEL 8
REMARK VINA RESULT:      -7.9      4.303      6.821
REMARK  Name = 
REMARK  5 active torsions:
REMARK  status: ('A' for Active; 'I' for Inactive)
REMARK    1  A    between atoms: C_1  and  C_2
REMARK    2  A    between atoms: C_7  and  S_8
REMARK    3  A    between atoms: S_8  and  C_9
REMARK    4  A    between atoms: C_9  and  C_10
REMARK    5  A    between atoms: N_12  and  C_13
REMARK                            x       y       z     vdW  Elec       q    Type
REMARK                         _______ _______ _______ _____ _____    ______ ____
ROOT
ATOM      1  C   UNL     1       7.279   5.908  19.090  0.00  0.00    +0.000 C 
ATOM      2  O   UNL     1       7.446   5.180  20.067  0.00  0.00    +0.000 OA
ATOM      3  N   UNL     1       6.252   5.773  18.165  0.00  0.00    +0.000 N 
ATOM      4  H   UNL     1       6.362   6.236  17.268  0.00  0.00    +0.000 HD
ENDROOT
BRANCH   3   5
ATOM      5  C   UNL     1       5.106   4.955  18.327  0.00  0.00    +0.000 A 
ATOM      6  C   UNL     1       4.775   3.951  17.414  0.00  0.00    +0.000 A 
ATOM      7  C   UNL     1       3.646   3.151  17.599  0.00  0.00    +0.000 A 
ATOM      8  C   UNL     1       2.831   3.349  18.705  0.00  0.00    +0.000 A 
ATOM      9  C   UNL     1       3.161   4.329  19.645  0.00  0.00    +0.000 A 
ATOM     10  C   UNL     1       4.296   5.131  19.460  0.00  0.00    +0.000 A 
ATOM     11  O   UNL     1       2.406   4.564  20.768  0.00  0.00    +0.000 OA
ATOM     12  C   UNL     1       1.498   3.484  21.027  0.00  0.00    +0.000 C 
ATOM     13  C   UNL     1       0.794   3.034  19.757  0.00  0.00    +0.000 C 
ATOM     14  O   UNL     1       1.736   2.533  18.805  0.00  0.00    +0.000 OA
ENDBRANCH   3   5
BRANCH   1  15
ATOM     15  C   UNL     1       8.312   6.970  18.749  0.00  0.00    +0.000 C 
BRANCH  15  16
ATOM     16  S   UNL     1       7.683   8.194  17.577  0.00  0.00    +0.000 S 
BRANCH  16  23
ATOM     17  C   UNL     1      10.706  14.996  19.339  0.00  0.00    +0.000 C 
ATOM     18  C   UNL     1      10.329  13.542  19.393  0.00  0.00    +0.000 A 
ATOM     19  C   UNL     1      10.785  12.734  20.444  0.00  0.00    +0.000 A 
ATOM     20  C   UNL     1      10.451  11.379  20.526  0.00  0.00    +0.000 A 
ATOM     21  C   UNL     1       9.646  10.868  19.509  0.00  0.00    +0.000 A 
ATOM     22  N   UNL     1       9.139   9.618  19.283  0.00  0.00    +0.000 N 
ATOM     23  C   UNL     1       8.427   9.651  18.123  0.00  0.00    +0.000 A 
ATOM     24  N   UNL     1       8.409  10.845  17.590  0.00  0.00    +0.000 NA
ATOM     25  C   UNL     1       9.172  11.625  18.441  0.00  0.00    +0.000 A 
ATOM     26  C   UNL     1       9.514  12.988  18.380  0.00  0.00    +0.000 A 
ATOM     27  H   UNL     1       9.273   8.799  19.860  0.00  0.00    +0.000 HD
ENDBRANCH  16  23
ENDBRANCH  15  16
ENDBRANCH   1  15
TORSDOF 4
ENDMDL
MODEL 9
REMARK VINA RESULT:      -7.8      4.714      7.311
REMARK  Name = 
REMARK  5 active torsions:
REMARK  status: ('A' for Active; 'I' for Inactive)
REMARK    1  A    between atoms: C_1  and  C_2
REMARK    2  A    between atoms: C_7  and  S_8
REMARK    3  A    between atoms: S_8  and  C_9
REMARK    4  A    between atoms: C_9  and  C_10
REMARK    5  A    between atoms: N_12  and  C_13
REMARK                            x       y       z     vdW  Elec       q    Type
REMARK                         _______ _______ _______ _____ _____    ______ ____
ROOT
ATOM      1  C   UNL     1       8.035   8.207  18.207  0.00  0.00    +0.000 C 
ATOM      2  O   UNL     1       7.431   8.821  17.329  0.00  0.00    +0.000 OA
ATOM      3  N   UNL     1       9.012   8.752  19.030  0.00  0.00    +0.000 N 
ATOM      4  H   UNL     1       9.629   8.111  19.517  0.00  0.00    +0.000 HD
ENDROOT
BRANCH   3   5
ATOM      5  C   UNL     1       9.288  10.136  19.167  0.00  0.00    +0.000 A 
ATOM      6  C   UNL     1       9.518  10.960  18.061  0.00  0.00    +0.000 A 
ATOM      7  C   UNL     1       9.779  12.322  18.219  0.00  0.00    +0.000 A 
ATOM      8  C   UNL     1       9.814  12.878  19.491  0.00  0.00    +0.000 A 
ATOM      9  C   UNL     1       9.558  12.076  20.607  0.00  0.00    +0.000 A 
ATOM     10  C   UNL     1       9.294  10.708  20.448  0.00  0.00    +0.000 A 
ATOM     11  O   UNL     1       9.562  12.567  21.889  0.00  0.00    +0.000 OA
ATOM     12  C   UNL     1       9.496  14.000  21.904  0.00  0.00    +0.000 C 
ATOM     13  C   UNL     1      10.447  14.610  20.888  0.00  0.00    +0.000 C 
ATOM     14  O   UNL     1      10.091  14.216  19.560  0.00  0.00    +0.000 OA
ENDBRANCH   3   5
BRANCH   1  15
ATOM     15  C   UNL     1       7.829   6.709  18.364  0.00  0.00    +0.000 C 
BRANCH  15  16
ATOM     16  S   UNL     1       6.664   6.041  17.154  0.00  0.00    +0.000 S 
BRANCH  16  23
ATOM     17  C   UNL     1       1.453   2.617  21.584  0.00  0.00    +0.000 C 
ATOM     18  C   UNL     1       2.171   3.643  20.753  0.00  0.00    +0.000 A 
ATOM     19  C   UNL     1       1.603   4.909  20.552  0.00  0.00    +0.000 A 
ATOM     20  C   UNL     1       2.243   5.888  19.787  0.00  0.00    +0.000 A 
ATOM     21  C   UNL     1       3.473   5.543  19.228  0.00  0.00    +0.000 A 
ATOM     22  N   UNL     1       4.351   6.241  18.446  0.00  0.00    +0.000 N 
ATOM     23  C   UNL     1       5.401   5.424  18.153  0.00  0.00    +0.000 A 
ATOM     24  N   UNL     1       5.283   4.249  18.714  0.00  0.00    +0.000 NA
ATOM     25  C   UNL     1       4.077   4.299  19.391  0.00  0.00    +0.000 A 
ATOM     26  C   UNL     1       3.419   3.330  20.171  0.00  0.00    +0.000 A 
ATOM     27  H   UNL     1       4.246   7.192  18.122  0.00  0.00    +0.000 HD
ENDBRANCH  16  23
ENDBRANCH  15  16
ENDBRANCH   1  15
TORSDOF 4
ENDMDL
