MODEL 1
REMARK VINA RESULT:      -9.4      0.000      0.000
REMARK  Name = 
REMARK  13 active torsions:
REMARK  status: ('A' for Active; 'I' for Inactive)
REMARK    1  A    between atoms: C_2  and  C_3
REMARK    2  A    between atoms: C_3  and  C_4
REMARK    3  A    between atoms: C_4  and  C_5
REMARK    4  A    between atoms: C_5  and  C_6
REMARK    5  A    between atoms: C_6  and  C_7
REMARK    6  A    between atoms: C_7  and  C_8
REMARK    7  A    between atoms: C_8  and  N_9
REMARK    8  A    between atoms: C_8  and  C_22
REMARK    9  A    between atoms: C_10  and  C_12
REMARK   10  A    between atoms: C_12  and  C_13
REMARK   11  A    between atoms: N_24  and  C_25
REMARK   12  A    between atoms: C_25  and  C_26
REMARK   13  A    between atoms: N_32  and  O_33
REMARK                            x       y       z     vdW  Elec       q    Type
REMARK                         _______ _______ _______ _____ _____    ______ ____
ROOT
ATOM      1  C   UNL     1       7.162   6.792  17.365  0.00  0.00    +0.000 C 
ENDROOT
BRANCH   1   2
ATOM      2  N   UNL     1       5.752   7.218  17.594  0.00  0.00    +0.000 N 
ATOM      3  C   UNL     1       4.650   6.484  17.303  0.00  0.00    +0.000 C 
ATOM      4  O   UNL     1       4.634   5.441  16.620  0.00  0.00    +0.000 OA
ATOM      5  H   UNL     1       5.620   8.050  18.143  0.00  0.00    +0.000 HD
BRANCH   3   6
ATOM      6  C   UNL     1       3.275   6.982  17.670  0.00  0.00    +0.000 C 
BRANCH   6   7
ATOM      7  C   UNL     1       2.647   6.260  18.819  0.00  0.00    +0.000 A 
ATOM      8  C   UNL     1       2.373   6.855  20.030  0.00  0.00    +0.000 A 
ATOM      9  N   UNL     1       1.731   5.955  20.830  0.00  0.00    +0.000 N 
ATOM     10  C   UNL     1       1.572   4.758  20.178  0.00  0.00    +0.000 A 
ATOM     11  C   UNL     1       0.963   3.578  20.622  0.00  0.00    +0.000 A 
ATOM     12  C   UNL     1       0.906   2.493  19.737  0.00  0.00    +0.000 A 
ATOM     13  C   UNL     1       1.423   2.611  18.449  0.00  0.00    +0.000 A 
ATOM     14  C   UNL     1       2.023   3.807  18.019  0.00  0.00    +0.000 A 
ATOM     15  C   UNL     1       2.120   4.915  18.897  0.00  0.00    +0.000 A 
ATOM     16  H   UNL     1       1.384   6.151  21.758  0.00  0.00    +0.000 HD
ENDBRANCH   6   7
ENDBRANCH   3   6
ENDBRANCH   1   2
BRANCH   1  17
ATOM     17  C   UNL     1       7.366   5.228  17.325  0.00  0.00    +0.000 C 
ATOM     18  O   UNL     1       7.523   4.574  18.354  0.00  0.00    +0.000 OA
ATOM     19  N   UNL     1       7.405   4.592  16.107  0.00  0.00    +0.000 N 
ATOM     20  H   UNL     1       7.420   3.597  16.139  0.00  0.00    +0.000 HD
BRANCH  19  21
ATOM     21  C   UNL     1       7.306   5.257  14.838  0.00  0.00    +0.000 C 
BRANCH  21  22
ATOM     22  C   UNL     1       6.673   4.500  13.738  0.00  0.00    +0.000 A 
ATOM     23  C   UNL     1       7.463   4.218  12.614  0.00  0.00    +0.000 A 
ATOM     24  C   UNL     1       6.902   3.576  11.532  0.00  0.00    +0.000 A 
ATOM     25  C   UNL     1       5.568   3.173  11.591  0.00  0.00    +0.000 A 
ATOM     26  C   UNL     1       4.813   3.360  12.741  0.00  0.00    +0.000 A 
ATOM     27  C   UNL     1       5.375   4.004  13.836  0.00  0.00    +0.000 A 
ENDBRANCH  21  22
ENDBRANCH  19  21
ENDBRANCH   1  17
BRANCH   1  28
ATOM     28  C   UNL     1       8.197   7.636  18.195  0.00  0.00    +0.000 C 
BRANCH  28  29
ATOM     29  C   UNL     1       8.175   9.128  17.820  0.00  0.00    +0.000 C 
BRANCH  29  30
ATOM     30  C   UNL     1       9.048  10.020  18.721  0.00  0.00    +0.000 C 
BRANCH  30  31
ATOM     31  C   UNL     1       9.101  11.436  18.132  0.00  0.00    +0.000 C 
BRANCH  31  32
ATOM     32  C   UNL     1      10.488  11.885  17.686  0.00  0.00    +0.000 C 
BRANCH  32  34
ATOM     33  O   UNL     1      10.305  14.228  18.373  0.00  0.00    +0.000 OA
ATOM     34  C   UNL     1      10.577  13.410  17.498  0.00  0.00    +0.000 C 
ATOM     35  N   UNL     1      10.995  13.789  16.254  0.00  0.00    +0.000 N 
ATOM     36  H   UNL     1      11.184  13.147  15.493  0.00  0.00    +0.000 HD
BRANCH  35  37
ATOM     37  O   UNL     1      11.098  15.159  15.948  0.00  0.00    +0.000 OA
ATOM     38  H   UNL     1      10.930  15.600  16.818  0.00  0.00    +0.000 HD
ENDBRANCH  35  37
ENDBRANCH  32  34
ENDBRANCH  31  32
ENDBRANCH  30  31
ENDBRANCH  29  30
ENDBRANCH  28  29
ENDBRANCH   1  28
TORSDOF 13
ENDMDL
MODEL 2
REMARK VINA RESULT:      -9.1      0.991      1.378
REMARK  Name = 
REMARK  13 active torsions:
REMARK  status: ('A' for Active; 'I' for Inactive)
REMARK    1  A    between atoms: C_2  and  C_3
REMARK    2  A    between atoms: C_3  and  C_4
REMARK    3  A    between atoms: C_4  and  C_5
REMARK    4  A    between atoms: C_5  and  C_6
REMARK    5  A    between atoms: C_6  and  C_7
REMARK    6  A    between atoms: C_7  and  C_8
REMARK    7  A    between atoms: C_8  and  N_9
REMARK    8  A    between atoms: C_8  and  C_22
REMARK    9  A    between atoms: C_10  and  C_12
REMARK   10  A    between atoms: C_12  and  C_13
REMARK   11  A    between atoms: N_24  and  C_25
REMARK   12  A    between atoms: C_25  and  C_26
REMARK   13  A    between atoms: N_32  and  O_33
REMARK                            x       y       z     vdW  Elec       q    Type
REMARK                         _______ _______ _______ _____ _____    ______ ____
ROOT
ATOM      1  C   UNL     1       6.689   6.269  17.230  0.00  0.00    +0.000 C 
ENDROOT
BRANCH   1   2
ATOM      2  N   UNL     1       5.431   6.825  17.803  0.00  0.00    +0.000 N 
ATOM      3  C   UNL     1       4.354   7.236  17.091  0.00  0.00    +0.000 C 
ATOM      4  O   UNL     1       4.324   7.405  15.855  0.00  0.00    +0.000 OA
ATOM      5  H   UNL     1       5.321   6.747  18.800  0.00  0.00    +0.000 HD
BRANCH   3   6
ATOM      6  C   UNL     1       3.097   7.691  17.788  0.00  0.00    +0.000 C 
BRANCH   6   7
ATOM      7  C   UNL     1       2.605   6.753  18.842  0.00  0.00    +0.000 A 
ATOM      8  C   UNL     1       2.318   7.145  20.131  0.00  0.00    +0.000 A 
ATOM      9  N   UNL     1       1.818   6.076  20.817  0.00  0.00    +0.000 N 
ATOM     10  C   UNL     1       1.768   4.966  20.011  0.00  0.00    +0.000 A 
ATOM     11  C   UNL     1       1.317   3.673  20.304  0.00  0.00    +0.000 A 
ATOM     12  C   UNL     1       1.346   2.718  19.280  0.00  0.00    +0.000 A 
ATOM     13  C   UNL     1       1.789   3.068  18.006  0.00  0.00    +0.000 A 
ATOM     14  C   UNL     1       2.230   4.373  17.729  0.00  0.00    +0.000 A 
ATOM     15  C   UNL     1       2.239   5.357  18.749  0.00  0.00    +0.000 A 
ATOM     16  H   UNL     1       1.491   6.103  21.772  0.00  0.00    +0.000 HD
ENDBRANCH   6   7
ENDBRANCH   3   6
ENDBRANCH   1   2
BRANCH   1  17
ATOM     17  C   UNL     1       6.915   4.737  17.532  0.00  0.00    +0.000 C 
ATOM     18  O   UNL     1       7.676   4.363  18.423  0.00  0.00    +0.000 OA
ATOM     19  N   UNL     1       6.272   3.803  16.755  0.00  0.00    +0.000 N 
ATOM     20  H   UNL     1       6.356   2.857  17.058  0.00  0.00    +0.000 HD
BRANCH  19  21
ATOM     21  C   UNL     1       5.418   4.116  15.645  0.00  0.00    +0.000 C 
BRANCH  21  22
ATOM     22  C   UNL     1       6.051   4.159  14.310  0.00  0.00    +0.000 A 
ATOM     23  C   UNL     1       5.455   3.403  13.291  0.00  0.00    +0.000 A 
ATOM     24  C   UNL     1       6.044   3.353  12.047  0.00  0.00    +0.000 A 
ATOM     25  C   UNL     1       7.201   4.094  11.806  0.00  0.00    +0.000 A 
ATOM     26  C   UNL     1       7.736   4.923  12.784  0.00  0.00    +0.000 A 
ATOM     27  C   UNL     1       7.143   4.980  14.038  0.00  0.00    +0.000 A 
ENDBRANCH  21  22
ENDBRANCH  19  21
ENDBRANCH   1  17
BRANCH   1  28
ATOM     28  C   UNL     1       7.920   7.231  17.408  0.00  0.00    +0.000 C 
BRANCH  28  29
ATOM     29  C   UNL     1       7.554   8.520  18.165  0.00  0.00    +0.000 C 
BRANCH  29  30
ATOM     30  C   UNL     1       8.235   9.789  17.620  0.00  0.00    +0.000 C 
BRANCH  30  31
ATOM     31  C   UNL     1       9.160  10.368  18.698  0.00  0.00    +0.000 C 
BRANCH  31  32
ATOM     32  C   UNL     1       9.317  11.884  18.651  0.00  0.00    +0.000 C 
BRANCH  32  34
ATOM     33  O   UNL     1      11.610  11.803  17.796  0.00  0.00    +0.000 OA
ATOM     34  C   UNL     1      10.497  12.323  17.768  0.00  0.00    +0.000 C 
ATOM     35  N   UNL     1      10.203  13.362  16.930  0.00  0.00    +0.000 N 
ATOM     36  H   UNL     1       9.314  13.846  16.910  0.00  0.00    +0.000 HD
BRANCH  35  37
ATOM     37  O   UNL     1      11.206  13.872  16.084  0.00  0.00    +0.000 OA
ATOM     38  H   UNL     1      10.870  14.773  15.850  0.00  0.00    +0.000 HD
ENDBRANCH  35  37
ENDBRANCH  32  34
ENDBRANCH  31  32
ENDBRANCH  30  31
ENDBRANCH  29  30
ENDBRANCH  28  29
ENDBRANCH   1  28
TORSDOF 13
ENDMDL
MODEL 3
REMARK VINA RESULT:      -8.8      4.378      7.642
REMARK  Name = 
REMARK  13 active torsions:
REMARK  status: ('A' for Active; 'I' for Inactive)
REMARK    1  A    between atoms: C_2  and  C_3
REMARK    2  A    between atoms: C_3  and  C_4
REMARK    3  A    between atoms: C_4  and  C_5
REMARK    4  A    between atoms: C_5  and  C_6
REMARK    5  A    between atoms: C_6  and  C_7
REMARK    6  A    between atoms: C_7  and  C_8
REMARK    7  A    between atoms: C_8  and  N_9
REMARK    8  A    between atoms: C_8  and  C_22
REMARK    9  A    between atoms: C_10  and  C_12
REMARK   10  A    between atoms: C_12  and  C_13
REMARK   11  A    between atoms: N_24  and  C_25
REMARK   12  A    between atoms: C_25  and  C_26
REMARK   13  A    between atoms: N_32  and  O_33
REMARK                            x       y       z     vdW  Elec       q    Type
REMARK                         _______ _______ _______ _____ _____    ______ ____
ROOT
ATOM      1  C   UNL     1       5.397   5.335  17.507  0.00  0.00    +0.000 C 
ENDROOT
BRANCH   1   2
ATOM      2  N   UNL     1       4.639   6.615  17.585  0.00  0.00    +0.000 N 
ATOM      3  C   UNL     1       3.300   6.729  17.764  0.00  0.00    +0.000 C 
ATOM      4  O   UNL     1       2.477   5.794  17.684  0.00  0.00    +0.000 OA
ATOM      5  H   UNL     1       5.186   7.455  17.662  0.00  0.00    +0.000 HD
BRANCH   3   6
ATOM      6  C   UNL     1       2.657   8.082  17.926  0.00  0.00    +0.000 C 
BRANCH   6   7
ATOM      7  C   UNL     1       1.914   8.260  19.211  0.00  0.00    +0.000 A 
ATOM      8  C   UNL     1       2.046   7.409  20.286  0.00  0.00    +0.000 A 
ATOM      9  N   UNL     1       1.302   7.890  21.324  0.00  0.00    +0.000 N 
ATOM     10  C   UNL     1       0.665   9.052  20.964  0.00  0.00    +0.000 A 
ATOM     11  C   UNL     1      -0.179   9.874  21.719  0.00  0.00    +0.000 A 
ATOM     12  C   UNL     1      -0.680  11.035  21.116  0.00  0.00    +0.000 A 
ATOM     13  C   UNL     1      -0.318  11.359  19.810  0.00  0.00    +0.000 A 
ATOM     14  C   UNL     1       0.538  10.525  19.071  0.00  0.00    +0.000 A 
ATOM     15  C   UNL     1       1.042   9.330  19.642  0.00  0.00    +0.000 A 
ATOM     16  H   UNL     1       1.255   7.475  22.243  0.00  0.00    +0.000 HD
ENDBRANCH   6   7
ENDBRANCH   3   6
ENDBRANCH   1   2
BRANCH   1  17
ATOM     17  C   UNL     1       5.957   4.829  18.892  0.00  0.00    +0.000 C 
ATOM     18  O   UNL     1       6.846   5.437  19.487  0.00  0.00    +0.000 OA
ATOM     19  N   UNL     1       5.463   3.663  19.425  0.00  0.00    +0.000 N 
ATOM     20  H   UNL     1       5.764   3.449  20.351  0.00  0.00    +0.000 HD
BRANCH  19  21
ATOM     21  C   UNL     1       4.479   2.831  18.792  0.00  0.00    +0.000 C 
BRANCH  21  22
ATOM     22  C   UNL     1       3.084   2.978  19.259  0.00  0.00    +0.000 A 
ATOM     23  C   UNL     1       2.074   2.461  18.436  0.00  0.00    +0.000 A 
ATOM     24  C   UNL     1       0.753   2.632  18.790  0.00  0.00    +0.000 A 
ATOM     25  C   UNL     1       0.444   3.278  19.987  0.00  0.00    +0.000 A 
ATOM     26  C   UNL     1       1.444   3.702  20.852  0.00  0.00    +0.000 A 
ATOM     27  C   UNL     1       2.776   3.528  20.501  0.00  0.00    +0.000 A 
ENDBRANCH  21  22
ENDBRANCH  19  21
ENDBRANCH   1  17
BRANCH   1  28
ATOM     28  C   UNL     1       6.365   5.273  16.269  0.00  0.00    +0.000 C 
BRANCH  28  29
ATOM     29  C   UNL     1       6.435   3.866  15.647  0.00  0.00    +0.000 C 
BRANCH  29  30
ATOM     30  C   UNL     1       5.848   3.773  14.227  0.00  0.00    +0.000 C 
BRANCH  30  31
ATOM     31  C   UNL     1       6.700   4.620  13.272  0.00  0.00    +0.000 C 
BRANCH  31  32
ATOM     32  C   UNL     1       7.086   3.918  11.975  0.00  0.00    +0.000 C 
BRANCH  32  34
ATOM     33  O   UNL     1       4.949   2.782  11.600  0.00  0.00    +0.000 OA
ATOM     34  C   UNL     1       6.174   2.718  11.666  0.00  0.00    +0.000 C 
ATOM     35  N   UNL     1       6.851   1.548  11.464  0.00  0.00    +0.000 N 
ATOM     36  H   UNL     1       7.855   1.445  11.555  0.00  0.00    +0.000 HD
BRANCH  35  37
ATOM     37  O   UNL     1       6.129   0.371  11.194  0.00  0.00    +0.000 OA
ATOM     38  H   UNL     1       6.641  -0.046  10.456  0.00  0.00    +0.000 HD
ENDBRANCH  35  37
ENDBRANCH  32  34
ENDBRANCH  31  32
ENDBRANCH  30  31
ENDBRANCH  29  30
ENDBRANCH  28  29
ENDBRANCH   1  28
TORSDOF 13
ENDMDL
MODEL 4
REMARK VINA RESULT:      -8.8      2.783      4.320
REMARK  Name = 
REMARK  13 active torsions:
REMARK  status: ('A' for Active; 'I' for Inactive)
REMARK    1  A    between atoms: C_2  and  C_3
REMARK    2  A    between atoms: C_3  and  C_4
REMARK    3  A    between atoms: C_4  and  C_5
REMARK    4  A    between atoms: C_5  and  C_6
REMARK    5  A    between atoms: C_6  and  C_7
REMARK    6  A    between atoms: C_7  and  C_8
REMARK    7  A    between atoms: C_8  and  N_9
REMARK    8  A    between atoms: C_8  and  C_22
REMARK    9  A    between atoms: C_10  and  C_12
REMARK   10  A    between atoms: C_12  and  C_13
REMARK   11  A    between atoms: N_24  and  C_25
REMARK   12  A    between atoms: C_25  and  C_26
REMARK   13  A    between atoms: N_32  and  O_33
REMARK                            x       y       z     vdW  Elec       q    Type
REMARK                         _______ _______ _______ _____ _____    ______ ____
ROOT
ATOM      1  C   UNL     1       6.580   6.289  18.012  0.00  0.00    +0.000 C 
ENDROOT
BRANCH   1   2
ATOM      2  N   UNL     1       5.334   7.106  18.040  0.00  0.00    +0.000 N 
ATOM      3  C   UNL     1       4.326   7.037  17.137  0.00  0.00    +0.000 C 
ATOM      4  O   UNL     1       4.373   6.440  16.042  0.00  0.00    +0.000 OA
ATOM      5  H   UNL     1       5.167   7.637  18.877  0.00  0.00    +0.000 HD
BRANCH   3   6
ATOM      6  C   UNL     1       3.068   7.846  17.324  0.00  0.00    +0.000 C 
BRANCH   6   7
ATOM      7  C   UNL     1       2.454   7.721  18.681  0.00  0.00    +0.000 A 
ATOM      8  C   UNL     1       2.682   6.653  19.522  0.00  0.00    +0.000 A 
ATOM      9  N   UNL     1       2.045   6.879  20.707  0.00  0.00    +0.000 N 
ATOM     10  C   UNL     1       1.384   8.082  20.677  0.00  0.00    +0.000 A 
ATOM     11  C   UNL     1       0.621   8.702  21.675  0.00  0.00    +0.000 A 
ATOM     12  C   UNL     1       0.071   9.960  21.396  0.00  0.00    +0.000 A 
ATOM     13  C   UNL     1       0.308  10.573  20.168  0.00  0.00    +0.000 A 
ATOM     14  C   UNL     1       1.084   9.938  19.183  0.00  0.00    +0.000 A 
ATOM     15  C   UNL     1       1.633   8.654  19.422  0.00  0.00    +0.000 A 
ATOM     16  H   UNL     1       2.084   6.269  21.510  0.00  0.00    +0.000 HD
ENDBRANCH   6   7
ENDBRANCH   3   6
ENDBRANCH   1   2
BRANCH   1  17
ATOM     17  C   UNL     1       6.726   5.290  19.224  0.00  0.00    +0.000 C 
ATOM     18  O   UNL     1       7.513   5.507  20.144  0.00  0.00    +0.000 OA
ATOM     19  N   UNL     1       5.981   4.135  19.229  0.00  0.00    +0.000 N 
ATOM     20  H   UNL     1       6.023   3.597  20.067  0.00  0.00    +0.000 HD
BRANCH  19  21
ATOM     21  C   UNL     1       5.085   3.739  18.180  0.00  0.00    +0.000 C 
BRANCH  21  22
ATOM     22  C   UNL     1       3.682   3.483  18.565  0.00  0.00    +0.000 A 
ATOM     23  C   UNL     1       2.699   3.688  17.586  0.00  0.00    +0.000 A 
ATOM     24  C   UNL     1       1.370   3.530  17.913  0.00  0.00    +0.000 A 
ATOM     25  C   UNL     1       1.025   3.122  19.201  0.00  0.00    +0.000 A 
ATOM     26  C   UNL     1       2.001   2.821  20.143  0.00  0.00    +0.000 A 
ATOM     27  C   UNL     1       3.341   2.975  19.817  0.00  0.00    +0.000 A 
ENDBRANCH  21  22
ENDBRANCH  19  21
ENDBRANCH   1  17
BRANCH   1  28
ATOM     28  C   UNL     1       7.849   7.124  17.606  0.00  0.00    +0.000 C 
BRANCH  28  29
ATOM     29  C   UNL     1       7.633   8.639  17.769  0.00  0.00    +0.000 C 
BRANCH  29  30
ATOM     30  C   UNL     1       8.733   9.351  18.577  0.00  0.00    +0.000 C 
BRANCH  30  31
ATOM     31  C   UNL     1       8.831  10.812  18.118  0.00  0.00    +0.000 C 
BRANCH  31  32
ATOM     32  C   UNL     1      10.252  11.306  17.875  0.00  0.00    +0.000 C 
BRANCH  32  34
ATOM     33  O   UNL     1      11.323  13.472  18.273  0.00  0.00    +0.000 OA
ATOM     34  C   UNL     1      10.346  12.842  17.876  0.00  0.00    +0.000 C 
ATOM     35  N   UNL     1       9.232  13.464  17.387  0.00  0.00    +0.000 N 
ATOM     36  H   UNL     1       8.391  12.982  17.093  0.00  0.00    +0.000 HD
BRANCH  35  37
ATOM     37  O   UNL     1       9.185  14.870  17.354  0.00  0.00    +0.000 OA
ATOM     38  H   UNL     1       9.612  15.132  18.208  0.00  0.00    +0.000 HD
ENDBRANCH  35  37
ENDBRANCH  32  34
ENDBRANCH  31  32
ENDBRANCH  30  31
ENDBRANCH  29  30
ENDBRANCH  28  29
ENDBRANCH   1  28
TORSDOF 13
ENDMDL
MODEL 5
REMARK VINA RESULT:      -8.5      4.272      9.825
REMARK  Name = 
REMARK  13 active torsions:
REMARK  status: ('A' for Active; 'I' for Inactive)
REMARK    1  A    between atoms: C_2  and  C_3
REMARK    2  A    between atoms: C_3  and  C_4
REMARK    3  A    between atoms: C_4  and  C_5
REMARK    4  A    between atoms: C_5  and  C_6
REMARK    5  A    between atoms: C_6  and  C_7
REMARK    6  A    between atoms: C_7  and  C_8
REMARK    7  A    between atoms: C_8  and  N_9
REMARK    8  A    between atoms: C_8  and  C_22
REMARK    9  A    between atoms: C_10  and  C_12
REMARK   10  A    between atoms: C_12  and  C_13
REMARK   11  A    between atoms: N_24  and  C_25
REMARK   12  A    between atoms: C_25  and  C_26
REMARK   13  A    between atoms: N_32  and  O_33
REMARK                            x       y       z     vdW  Elec       q    Type
REMARK                         _______ _______ _______ _____ _____    ______ ____
ROOT
ATOM      1  C   UNL     1       2.503   6.406  18.687  0.00  0.00    +0.000 C 
ENDROOT
BRANCH   1   2
ATOM      2  N   UNL     1       3.139   5.554  17.643  0.00  0.00    +0.000 N 
ATOM      3  C   UNL     1       4.204   4.737  17.834  0.00  0.00    +0.000 C 
ATOM      4  O   UNL     1       4.937   4.726  18.843  0.00  0.00    +0.000 OA
ATOM      5  H   UNL     1       2.644   5.469  16.772  0.00  0.00    +0.000 HD
BRANCH   3   6
ATOM      6  C   UNL     1       4.700   3.847  16.722  0.00  0.00    +0.000 C 
BRANCH   6   7
ATOM      7  C   UNL     1       5.758   4.466  15.867  0.00  0.00    +0.000 A 
ATOM      8  C   UNL     1       6.729   5.312  16.355  0.00  0.00    +0.000 A 
ATOM      9  N   UNL     1       7.583   5.637  15.341  0.00  0.00    +0.000 N 
ATOM     10  C   UNL     1       7.199   5.025  14.173  0.00  0.00    +0.000 A 
ATOM     11  C   UNL     1       7.794   5.076  12.906  0.00  0.00    +0.000 A 
ATOM     12  C   UNL     1       7.212   4.325  11.876  0.00  0.00    +0.000 A 
ATOM     13  C   UNL     1       6.091   3.538  12.129  0.00  0.00    +0.000 A 
ATOM     14  C   UNL     1       5.514   3.494  13.409  0.00  0.00    +0.000 A 
ATOM     15  C   UNL     1       6.062   4.261  14.467  0.00  0.00    +0.000 A 
ATOM     16  H   UNL     1       8.406   6.213  15.440  0.00  0.00    +0.000 HD
ENDBRANCH   6   7
ENDBRANCH   3   6
ENDBRANCH   1   2
BRANCH   1  17
ATOM     17  C   UNL     1       2.338   7.919  18.275  0.00  0.00    +0.000 C 
ATOM     18  O   UNL     1       2.760   8.341  17.199  0.00  0.00    +0.000 OA
ATOM     19  N   UNL     1       1.741   8.789  19.156  0.00  0.00    +0.000 N 
ATOM     20  H   UNL     1       1.557   9.703  18.803  0.00  0.00    +0.000 HD
BRANCH  19  21
ATOM     21  C   UNL     1       1.274   8.429  20.465  0.00  0.00    +0.000 C 
BRANCH  21  22
ATOM     22  C   UNL     1       0.526   9.462  21.212  0.00  0.00    +0.000 A 
ATOM     23  C   UNL     1       0.033   9.110  22.476  0.00  0.00    +0.000 A 
ATOM     24  C   UNL     1      -0.730  10.013  23.184  0.00  0.00    +0.000 A 
ATOM     25  C   UNL     1      -0.960  11.281  22.652  0.00  0.00    +0.000 A 
ATOM     26  C   UNL     1      -0.388  11.667  21.446  0.00  0.00    +0.000 A 
ATOM     27  C   UNL     1       0.384  10.762  20.731  0.00  0.00    +0.000 A 
ENDBRANCH  21  22
ENDBRANCH  19  21
ENDBRANCH   1  17
BRANCH   1  28
ATOM     28  C   UNL     1       3.041   6.105  20.134  0.00  0.00    +0.000 C 
BRANCH  28  29
ATOM     29  C   UNL     1       2.136   5.129  20.907  0.00  0.00    +0.000 C 
BRANCH  29  30
ATOM     30  C   UNL     1       0.789   4.837  20.220  0.00  0.00    +0.000 C 
BRANCH  30  31
ATOM     31  C   UNL     1       0.762   3.371  19.765  0.00  0.00    +0.000 C 
BRANCH  31  32
ATOM     32  C   UNL     1       1.669   2.443  20.564  0.00  0.00    +0.000 C 
BRANCH  32  34
ATOM     33  O   UNL     1       2.893   1.536  18.647  0.00  0.00    +0.000 OA
ATOM     34  C   UNL     1       2.921   2.025  19.774  0.00  0.00    +0.000 C 
ATOM     35  N   UNL     1       4.094   2.247  20.439  0.00  0.00    +0.000 N 
ATOM     36  H   UNL     1       4.156   2.605  21.385  0.00  0.00    +0.000 HD
BRANCH  35  37
ATOM     37  O   UNL     1       5.311   1.887  19.831  0.00  0.00    +0.000 OA
ATOM     38  H   UNL     1       5.026   1.355  19.047  0.00  0.00    +0.000 HD
ENDBRANCH  35  37
ENDBRANCH  32  34
ENDBRANCH  31  32
ENDBRANCH  30  31
ENDBRANCH  29  30
ENDBRANCH  28  29
ENDBRANCH   1  28
TORSDOF 13
ENDMDL
MODEL 6
REMARK VINA RESULT:      -8.5      4.305      7.777
REMARK  Name = 
REMARK  13 active torsions:
REMARK  status: ('A' for Active; 'I' for Inactive)
REMARK    1  A    between atoms: C_2  and  C_3
REMARK    2  A    between atoms: C_3  and  C_4
REMARK    3  A    between atoms: C_4  and  C_5
REMARK    4  A    between atoms: C_5  and  C_6
REMARK    5  A    between atoms: C_6  and  C_7
REMARK    6  A    between atoms: C_7  and  C_8
REMARK    7  A    between atoms: C_8  and  N_9
REMARK    8  A    between atoms: C_8  and  C_22
REMARK    9  A    between atoms: C_10  and  C_12
REMARK   10  A    between atoms: C_12  and  C_13
REMARK   11  A    between atoms: N_24  and  C_25
REMARK   12  A    between atoms: C_25  and  C_26
REMARK   13  A    between atoms: N_32  and  O_33
REMARK                            x       y       z     vdW  Elec       q    Type
REMARK                         _______ _______ _______ _____ _____    ______ ____
ROOT
ATOM      1  C   UNL     1       5.007   5.754  18.347  0.00  0.00    +0.000 C 
ENDROOT
BRANCH   1   2
ATOM      2  N   UNL     1       4.058   6.571  19.155  0.00  0.00    +0.000 N 
ATOM      3  C   UNL     1       2.712   6.598  19.002  0.00  0.00    +0.000 C 
ATOM      4  O   UNL     1       2.083   6.111  18.041  0.00  0.00    +0.000 OA
ATOM      5  H   UNL     1       4.438   7.018  19.972  0.00  0.00    +0.000 HD
BRANCH   3   6
ATOM      6  C   UNL     1       1.845   7.391  19.946  0.00  0.00    +0.000 C 
BRANCH   6   7
ATOM      7  C   UNL     1       1.489   8.757  19.452  0.00  0.00    +0.000 A 
ATOM      8  C   UNL     1       1.771   9.200  18.179  0.00  0.00    +0.000 A 
ATOM      9  N   UNL     1       1.248  10.450  18.020  0.00  0.00    +0.000 N 
ATOM     10  C   UNL     1       0.621  10.860  19.170  0.00  0.00    +0.000 A 
ATOM     11  C   UNL     1      -0.053  12.059  19.436  0.00  0.00    +0.000 A 
ATOM     12  C   UNL     1      -0.639  12.218  20.699  0.00  0.00    +0.000 A 
ATOM     13  C   UNL     1      -0.566  11.193  21.640  0.00  0.00    +0.000 A 
ATOM     14  C   UNL     1       0.108   9.994  21.351  0.00  0.00    +0.000 A 
ATOM     15  C   UNL     1       0.734   9.811  20.093  0.00  0.00    +0.000 A 
ATOM     16  H   UNL     1       1.280  10.986  17.165  0.00  0.00    +0.000 HD
ENDBRANCH   6   7
ENDBRANCH   3   6
ENDBRANCH   1   2
BRANCH   1  17
ATOM     17  C   UNL     1       5.892   4.762  19.196  0.00  0.00    +0.000 C 
ATOM     18  O   UNL     1       6.915   5.140  19.764  0.00  0.00    +0.000 OA
ATOM     19  N   UNL     1       5.527   3.439  19.270  0.00  0.00    +0.000 N 
ATOM     20  H   UNL     1       6.049   2.881  19.908  0.00  0.00    +0.000 HD
BRANCH  19  21
ATOM     21  C   UNL     1       4.396   2.868  18.593  0.00  0.00    +0.000 C 
BRANCH  21  22
ATOM     22  C   UNL     1       3.104   2.905  19.310  0.00  0.00    +0.000 A 
ATOM     23  C   UNL     1       3.146   3.092  20.699  0.00  0.00    +0.000 A 
ATOM     24  C   UNL     1       1.975   3.064  21.424  0.00  0.00    +0.000 A 
ATOM     25  C   UNL     1       0.760   2.898  20.759  0.00  0.00    +0.000 A 
ATOM     26  C   UNL     1       0.708   2.813  19.373  0.00  0.00    +0.000 A 
ATOM     27  C   UNL     1       1.886   2.845  18.638  0.00  0.00    +0.000 A 
ENDBRANCH  21  22
ENDBRANCH  19  21
ENDBRANCH   1  17
BRANCH   1  28
ATOM     28  C   UNL     1       5.728   6.587  17.224  0.00  0.00    +0.000 C 
BRANCH  28  29
ATOM     29  C   UNL     1       5.160   6.299  15.823  0.00  0.00    +0.000 C 
BRANCH  29  30
ATOM     30  C   UNL     1       5.543   4.919  15.256  0.00  0.00    +0.000 C 
BRANCH  30  31
ATOM     31  C   UNL     1       5.738   5.033  13.738  0.00  0.00    +0.000 C 
BRANCH  31  32
ATOM     32  C   UNL     1       6.706   4.016  13.146  0.00  0.00    +0.000 C 
BRANCH  32  34
ATOM     33  O   UNL     1       4.838   3.128  11.837  0.00  0.00    +0.000 OA
ATOM     34  C   UNL     1       6.011   3.033  12.189  0.00  0.00    +0.000 C 
ATOM     35  N   UNL     1       6.820   2.023  11.751  0.00  0.00    +0.000 N 
ATOM     36  H   UNL     1       7.777   1.885  12.054  0.00  0.00    +0.000 HD
BRANCH  35  37
ATOM     37  O   UNL     1       6.296   1.044  10.886  0.00  0.00    +0.000 OA
ATOM     38  H   UNL     1       5.851   1.578  10.181  0.00  0.00    +0.000 HD
ENDBRANCH  35  37
ENDBRANCH  32  34
ENDBRANCH  31  32
ENDBRANCH  30  31
ENDBRANCH  29  30
ENDBRANCH  28  29
ENDBRANCH   1  28
TORSDOF 13
ENDMDL
MODEL 7
REMARK VINA RESULT:      -8.5      2.540      8.902
REMARK  Name = 
REMARK  13 active torsions:
REMARK  status: ('A' for Active; 'I' for Inactive)
REMARK    1  A    between atoms: C_2  and  C_3
REMARK    2  A    between atoms: C_3  and  C_4
REMARK    3  A    between atoms: C_4  and  C_5
REMARK    4  A    between atoms: C_5  and  C_6
REMARK    5  A    between atoms: C_6  and  C_7
REMARK    6  A    between atoms: C_7  and  C_8
REMARK    7  A    between atoms: C_8  and  N_9
REMARK    8  A    between atoms: C_8  and  C_22
REMARK    9  A    between atoms: C_10  and  C_12
REMARK   10  A    between atoms: C_12  and  C_13
REMARK   11  A    between atoms: N_24  and  C_25
REMARK   12  A    between atoms: C_25  and  C_26
REMARK   13  A    between atoms: N_32  and  O_33
REMARK                            x       y       z     vdW  Elec       q    Type
REMARK                         _______ _______ _______ _____ _____    ______ ____
ROOT
ATOM      1  C   UNL     1       6.409   6.154  18.018  0.00  0.00    +0.000 C 
ENDROOT
BRANCH   1   2
ATOM      2  N   UNL     1       6.853   7.543  17.707  0.00  0.00    +0.000 N 
ATOM      3  C   UNL     1       8.004   8.116  18.134  0.00  0.00    +0.000 C 
ATOM      4  O   UNL     1       8.762   7.654  19.011  0.00  0.00    +0.000 OA
ATOM      5  H   UNL     1       6.327   8.034  17.004  0.00  0.00    +0.000 HD
BRANCH   3   6
ATOM      6  C   UNL     1       8.393   9.498  17.674  0.00  0.00    +0.000 C 
BRANCH   6   7
ATOM      7  C   UNL     1       9.111  10.309  18.704  0.00  0.00    +0.000 A 
ATOM      8  C   UNL     1       8.877  10.195  20.057  0.00  0.00    +0.000 A 
ATOM      9  N   UNL     1       9.745  11.009  20.725  0.00  0.00    +0.000 N 
ATOM     10  C   UNL     1      10.558  11.675  19.843  0.00  0.00    +0.000 A 
ATOM     11  C   UNL     1      11.587  12.591  20.099  0.00  0.00    +0.000 A 
ATOM     12  C   UNL     1      12.293  13.110  19.006  0.00  0.00    +0.000 A 
ATOM     13  C   UNL     1      11.984  12.698  17.712  0.00  0.00    +0.000 A 
ATOM     14  C   UNL     1      10.954  11.772  17.476  0.00  0.00    +0.000 A 
ATOM     15  C   UNL     1      10.203  11.247  18.556  0.00  0.00    +0.000 A 
ATOM     16  H   UNL     1       9.810  11.083  21.730  0.00  0.00    +0.000 HD
ENDBRANCH   6   7
ENDBRANCH   3   6
ENDBRANCH   1   2
BRANCH   1  17
ATOM     17  C   UNL     1       7.434   5.036  17.586  0.00  0.00    +0.000 C 
ATOM     18  O   UNL     1       8.090   4.410  18.417  0.00  0.00    +0.000 OA
ATOM     19  N   UNL     1       7.622   4.784  16.248  0.00  0.00    +0.000 N 
ATOM     20  H   UNL     1       8.190   3.995  16.032  0.00  0.00    +0.000 HD
BRANCH  19  21
ATOM     21  C   UNL     1       6.969   5.497  15.186  0.00  0.00    +0.000 C 
BRANCH  21  22
ATOM     22  C   UNL     1       6.594   4.712  13.991  0.00  0.00    +0.000 A 
ATOM     23  C   UNL     1       5.311   4.146  13.971  0.00  0.00    +0.000 A 
ATOM     24  C   UNL     1       4.936   3.348  12.913  0.00  0.00    +0.000 A 
ATOM     25  C   UNL     1       5.823   3.154  11.854  0.00  0.00    +0.000 A 
ATOM     26  C   UNL     1       7.055   3.795  11.823  0.00  0.00    +0.000 A 
ATOM     27  C   UNL     1       7.434   4.603  12.886  0.00  0.00    +0.000 A 
ENDBRANCH  21  22
ENDBRANCH  19  21
ENDBRANCH   1  17
BRANCH   1  28
ATOM     28  C   UNL     1       4.891   5.910  17.688  0.00  0.00    +0.000 C 
BRANCH  28  29
ATOM     29  C   UNL     1       4.375   4.574  18.251  0.00  0.00    +0.000 C 
BRANCH  29  30
ATOM     30  C   UNL     1       3.411   3.823  17.314  0.00  0.00    +0.000 C 
BRANCH  30  31
ATOM     31  C   UNL     1       1.967   4.213  17.658  0.00  0.00    +0.000 C 
BRANCH  31  32
ATOM     32  C   UNL     1       1.201   3.165  18.457  0.00  0.00    +0.000 C 
BRANCH  32  34
ATOM     33  O   UNL     1       0.768   4.440  20.502  0.00  0.00    +0.000 OA
ATOM     34  C   UNL     1       1.241   3.438  19.970  0.00  0.00    +0.000 C 
ATOM     35  N   UNL     1       1.856   2.455  20.692  0.00  0.00    +0.000 N 
ATOM     36  H   UNL     1       2.297   1.638  20.287  0.00  0.00    +0.000 HD
BRANCH  35  37
ATOM     37  O   UNL     1       1.977   2.596  22.088  0.00  0.00    +0.000 OA
ATOM     38  H   UNL     1       1.038   2.685  22.390  0.00  0.00    +0.000 HD
ENDBRANCH  35  37
ENDBRANCH  32  34
ENDBRANCH  31  32
ENDBRANCH  30  31
ENDBRANCH  29  30
ENDBRANCH  28  29
ENDBRANCH   1  28
TORSDOF 13
ENDMDL
MODEL 8
REMARK VINA RESULT:      -8.5      4.200      7.630
REMARK  Name = 
REMARK  13 active torsions:
REMARK  status: ('A' for Active; 'I' for Inactive)
REMARK    1  A    between atoms: C_2  and  C_3
REMARK    2  A    between atoms: C_3  and  C_4
REMARK    3  A    between atoms: C_4  and  C_5
REMARK    4  A    between atoms: C_5  and  C_6
REMARK    5  A    between atoms: C_6  and  C_7
REMARK    6  A    between atoms: C_7  and  C_8
REMARK    7  A    between atoms: C_8  and  N_9
REMARK    8  A    between atoms: C_8  and  C_22
REMARK    9  A    between atoms: C_10  and  C_12
REMARK   10  A    between atoms: C_12  and  C_13
REMARK   11  A    between atoms: N_24  and  C_25
REMARK   12  A    between atoms: C_25  and  C_26
REMARK   13  A    between atoms: N_32  and  O_33
REMARK                            x       y       z     vdW  Elec       q    Type
REMARK                         _______ _______ _______ _____ _____    ______ ____
ROOT
ATOM      1  C   UNL     1       5.534   4.856  16.646  0.00  0.00    +0.000 C 
ENDROOT
BRANCH   1   2
ATOM      2  N   UNL     1       4.317   5.685  16.874  0.00  0.00    +0.000 N 
ATOM      3  C   UNL     1       4.307   6.963  17.325  0.00  0.00    +0.000 C 
ATOM      4  O   UNL     1       5.284   7.568  17.811  0.00  0.00    +0.000 OA
ATOM      5  H   UNL     1       3.451   5.314  16.522  0.00  0.00    +0.000 HD
BRANCH   3   6
ATOM      6  C   UNL     1       3.015   7.734  17.424  0.00  0.00    +0.000 C 
BRANCH   6   7
ATOM      7  C   UNL     1       2.367   7.677  18.770  0.00  0.00    +0.000 A 
ATOM      8  C   UNL     1       2.511   6.616  19.636  0.00  0.00    +0.000 A 
ATOM      9  N   UNL     1       1.865   6.907  20.803  0.00  0.00    +0.000 N 
ATOM     10  C   UNL     1       1.282   8.148  20.735  0.00  0.00    +0.000 A 
ATOM     11  C   UNL     1       0.540   8.836  21.702  0.00  0.00    +0.000 A 
ATOM     12  C   UNL     1       0.076  10.120  21.387  0.00  0.00    +0.000 A 
ATOM     13  C   UNL     1       0.376  10.689  20.152  0.00  0.00    +0.000 A 
ATOM     14  C   UNL     1       1.130   9.986  19.197  0.00  0.00    +0.000 A 
ATOM     15  C   UNL     1       1.592   8.676  19.473  0.00  0.00    +0.000 A 
ATOM     16  H   UNL     1       1.849   6.313  21.619  0.00  0.00    +0.000 HD
ENDBRANCH   6   7
ENDBRANCH   3   6
ENDBRANCH   1   2
BRANCH   1  17
ATOM     17  C   UNL     1       6.167   4.260  17.962  0.00  0.00    +0.000 C 
ATOM     18  O   UNL     1       7.296   4.578  18.334  0.00  0.00    +0.000 OA
ATOM     19  N   UNL     1       5.451   3.339  18.688  0.00  0.00    +0.000 N 
ATOM     20  H   UNL     1       5.843   3.081  19.567  0.00  0.00    +0.000 HD
BRANCH  19  21
ATOM     21  C   UNL     1       4.157   2.838  18.317  0.00  0.00    +0.000 C 
BRANCH  21  22
ATOM     22  C   UNL     1       3.110   2.867  19.359  0.00  0.00    +0.000 A 
ATOM     23  C   UNL     1       1.784   3.029  18.933  0.00  0.00    +0.000 A 
ATOM     24  C   UNL     1       0.777   3.132  19.867  0.00  0.00    +0.000 A 
ATOM     25  C   UNL     1       1.086   3.026  21.223  0.00  0.00    +0.000 A 
ATOM     26  C   UNL     1       2.384   2.764  21.643  0.00  0.00    +0.000 A 
ATOM     27  C   UNL     1       3.401   2.655  20.705  0.00  0.00    +0.000 A 
ENDBRANCH  21  22
ENDBRANCH  19  21
ENDBRANCH   1  17
BRANCH   1  28
ATOM     28  C   UNL     1       6.517   5.490  15.594  0.00  0.00    +0.000 C 
BRANCH  28  29
ATOM     29  C   UNL     1       6.817   4.537  14.422  0.00  0.00    +0.000 C 
BRANCH  29  30
ATOM     30  C   UNL     1       7.462   5.220  13.202  0.00  0.00    +0.000 C 
BRANCH  30  31
ATOM     31  C   UNL     1       7.157   4.398  11.943  0.00  0.00    +0.000 C 
BRANCH  31  32
ATOM     32  C   UNL     1       6.956   2.908  12.193  0.00  0.00    +0.000 C 
BRANCH  32  34
ATOM     33  O   UNL     1       5.503   1.233  11.154  0.00  0.00    +0.000 OA
ATOM     34  C   UNL     1       5.653   2.379  11.568  0.00  0.00    +0.000 C 
ATOM     35  N   UNL     1       4.653   3.309  11.510  0.00  0.00    +0.000 N 
ATOM     36  H   UNL     1       4.752   4.275  11.798  0.00  0.00    +0.000 HD
BRANCH  35  37
ATOM     37  O   UNL     1       3.416   2.956  10.939  0.00  0.00    +0.000 OA
ATOM     38  H   UNL     1       3.669   2.588  10.056  0.00  0.00    +0.000 HD
ENDBRANCH  35  37
ENDBRANCH  32  34
ENDBRANCH  31  32
ENDBRANCH  30  31
ENDBRANCH  29  30
ENDBRANCH  28  29
ENDBRANCH   1  28
TORSDOF 13
ENDMDL
MODEL 9
REMARK VINA RESULT:      -8.4      2.059      3.215
REMARK  Name = 
REMARK  13 active torsions:
REMARK  status: ('A' for Active; 'I' for Inactive)
REMARK    1  A    between atoms: C_2  and  C_3
REMARK    2  A    between atoms: C_3  and  C_4
REMARK    3  A    between atoms: C_4  and  C_5
REMARK    4  A    between atoms: C_5  and  C_6
REMARK    5  A    between atoms: C_6  and  C_7
REMARK    6  A    between atoms: C_7  and  C_8
REMARK    7  A    between atoms: C_8  and  N_9
REMARK    8  A    between atoms: C_8  and  C_22
REMARK    9  A    between atoms: C_10  and  C_12
REMARK   10  A    between atoms: C_12  and  C_13
REMARK   11  A    between atoms: N_24  and  C_25
REMARK   12  A    between atoms: C_25  and  C_26
REMARK   13  A    between atoms: N_32  and  O_33
REMARK                            x       y       z     vdW  Elec       q    Type
REMARK                         _______ _______ _______ _____ _____    ______ ____
ROOT
ATOM      1  C   UNL     1       6.862   6.160  17.000  0.00  0.00    +0.000 C 
ENDROOT
BRANCH   1   2
ATOM      2  N   UNL     1       5.375   6.054  17.006  0.00  0.00    +0.000 N 
ATOM      3  C   UNL     1       4.650   5.189  17.757  0.00  0.00    +0.000 C 
ATOM      4  O   UNL     1       5.111   4.221  18.395  0.00  0.00    +0.000 OA
ATOM      5  H   UNL     1       4.873   6.781  16.528  0.00  0.00    +0.000 HD
BRANCH   3   6
ATOM      6  C   UNL     1       3.143   5.240  17.750  0.00  0.00    +0.000 C 
BRANCH   6   7
ATOM      7  C   UNL     1       2.554   6.114  18.810  0.00  0.00    +0.000 A 
ATOM      8  C   UNL     1       2.412   5.722  20.123  0.00  0.00    +0.000 A 
ATOM      9  N   UNL     1       1.920   6.770  20.846  0.00  0.00    +0.000 N 
ATOM     10  C   UNL     1       1.723   7.863  20.039  0.00  0.00    +0.000 A 
ATOM     11  C   UNL     1       1.248   9.138  20.369  0.00  0.00    +0.000 A 
ATOM     12  C   UNL     1       1.170  10.096  19.350  0.00  0.00    +0.000 A 
ATOM     13  C   UNL     1       1.581   9.779  18.057  0.00  0.00    +0.000 A 
ATOM     14  C   UNL     1       2.062   8.496  17.747  0.00  0.00    +0.000 A 
ATOM     15  C   UNL     1       2.130   7.496  18.749  0.00  0.00    +0.000 A 
ATOM     16  H   UNL     1       1.759   6.760  21.843  0.00  0.00    +0.000 HD
ENDBRANCH   6   7
ENDBRANCH   3   6
ENDBRANCH   1   2
BRANCH   1  17
ATOM     17  C   UNL     1       7.607   4.801  16.705  0.00  0.00    +0.000 C 
ATOM     18  O   UNL     1       8.195   4.185  17.593  0.00  0.00    +0.000 OA
ATOM     19  N   UNL     1       7.626   4.317  15.419  0.00  0.00    +0.000 N 
ATOM     20  H   UNL     1       8.007   3.403  15.307  0.00  0.00    +0.000 HD
BRANCH  19  21
ATOM     21  C   UNL     1       7.038   4.981  14.290  0.00  0.00    +0.000 C 
BRANCH  21  22
ATOM     22  C   UNL     1       6.479   4.118  13.229  0.00  0.00    +0.000 A 
ATOM     23  C   UNL     1       5.082   4.024  13.147  0.00  0.00    +0.000 A 
ATOM     24  C   UNL     1       4.510   3.180  12.221  0.00  0.00    +0.000 A 
ATOM     25  C   UNL     1       5.330   2.467  11.346  0.00  0.00    +0.000 A 
ATOM     26  C   UNL     1       6.708   2.635  11.358  0.00  0.00    +0.000 A 
ATOM     27  C   UNL     1       7.289   3.488  12.287  0.00  0.00    +0.000 A 
ENDBRANCH  21  22
ENDBRANCH  19  21
ENDBRANCH   1  17
BRANCH   1  28
ATOM     28  C   UNL     1       7.415   7.049  18.173  0.00  0.00    +0.000 C 
BRANCH  28  29
ATOM     29  C   UNL     1       7.967   8.399  17.679  0.00  0.00    +0.000 C 
BRANCH  29  30
ATOM     30  C   UNL     1       8.665   9.234  18.768  0.00  0.00    +0.000 C 
BRANCH  30  31
ATOM     31  C   UNL     1       9.300  10.474  18.124  0.00  0.00    +0.000 C 
BRANCH  31  32
ATOM     32  C   UNL     1      10.212  11.270  19.049  0.00  0.00    +0.000 C 
BRANCH  32  34
ATOM     33  O   UNL     1       8.754  12.907  20.140  0.00  0.00    +0.000 OA
ATOM     34  C   UNL     1       9.448  11.897  20.228  0.00  0.00    +0.000 C 
ATOM     35  N   UNL     1       9.605  11.225  21.407  0.00  0.00    +0.000 N 
ATOM     36  H   UNL     1      10.204  10.417  21.530  0.00  0.00    +0.000 HD
BRANCH  35  37
ATOM     37  O   UNL     1       8.973  11.710  22.568  0.00  0.00    +0.000 OA
ATOM     38  H   UNL     1       8.052  11.357  22.490  0.00  0.00    +0.000 HD
ENDBRANCH  35  37
ENDBRANCH  32  34
ENDBRANCH  31  32
ENDBRANCH  30  31
ENDBRANCH  29  30
ENDBRANCH  28  29
ENDBRANCH   1  28
TORSDOF 13
ENDMDL
