MODEL 1
REMARK VINA RESULT:      -6.7      0.000      0.000
REMARK  Name = 
REMARK  9 active torsions:
REMARK  status: ('A' for Active; 'I' for Inactive)
REMARK    1  A    between atoms: C_1  and  N_2
REMARK    2  A    between atoms: N_2  and  S_3
REMARK    3  A    between atoms: S_3  and  C_6
REMARK    4  A    between atoms: C_8  and  C_9
REMARK    5  A    between atoms: N_11  and  C_12
REMARK    6  A    between atoms: N_11  and  C_13
REMARK    7  A    between atoms: C_13  and  C_14
REMARK    8  A    between atoms: C_18  and  C_19
REMARK    9  A    between atoms: C_20  and  C_21
REMARK                            x       y       z     vdW  Elec       q    Type
REMARK                         _______ _______ _______ _____ _____    ______ ____
ROOT
ATOM      1  C   UNL     1       4.517   5.855  17.080  0.00  0.00    +0.000 A 
ATOM      2  C   UNL     1       4.103   6.967  17.790  0.00  0.00    +0.000 A 
ATOM      3  C   UNL     1       2.922   6.634  18.526  0.00  0.00    +0.000 A 
ATOM      4  C   UNL     1       2.592   5.363  18.067  0.00  0.00    +0.000 A 
ATOM      5  C   UNL     1       1.471   4.410  18.237  0.00  0.00    +0.000 C 
ATOM      6  O   UNL     1       3.566   4.884  17.251  0.00  0.00    +0.000 OA
ENDROOT
BRANCH   3   7
ATOM      7  C   UNL     1       2.145   7.457  19.464  0.00  0.00    +0.000 C 
ATOM      8  O   UNL     1       1.889   7.015  20.582  0.00  0.00    +0.000 OA
ATOM      9  N   UNL     1       1.686   8.720  19.043  0.00  0.00    +0.000 N 
ATOM     10  C   UNL     1       1.998   9.322  17.753  0.00  0.00    +0.000 C 
BRANCH   9  11
ATOM     11  C   UNL     1       0.660   9.403  19.837  0.00  0.00    +0.000 C 
BRANCH  11  12
ATOM     12  C   UNL     1       0.015  10.562  19.109  0.00  0.00    +0.000 A 
ATOM     13  S   UNL     1      -1.452  10.311  18.239  0.00  0.00    +0.000 S 
ATOM     14  C   UNL     1      -1.611  11.962  17.861  0.00  0.00    +0.000 A 
ATOM     15  C   UNL     1      -0.584  12.705  18.388  0.00  0.00    +0.000 A 
ATOM     16  C   UNL     1       0.368  11.909  19.112  0.00  0.00    +0.000 A 
ATOM     17  C   UNL     1       1.544  12.513  19.806  0.00  0.00    +0.000 C 
ENDBRANCH  11  12
ENDBRANCH   9  11
ENDBRANCH   3   7
BRANCH   1  18
ATOM     18  S   UNL     1       5.947   5.578  16.056  0.00  0.00    +0.000 S 
ATOM     19  O   UNL     1       6.789   6.739  16.248  0.00  0.00    +0.000 OA
ATOM     20  O   UNL     1       5.426   5.224  14.753  0.00  0.00    +0.000 OA
BRANCH  18  22
ATOM     21  C   UNL     1       7.729   4.534  17.758  0.00  0.00    +0.000 C 
ATOM     22  N   UNL     1       6.781   4.248  16.677  0.00  0.00    +0.000 NA
ATOM     23  H   UNL     1       6.134   3.484  16.865  0.00  0.00    +0.000 HD
ENDBRANCH  18  22
ENDBRANCH   1  18
TORSDOF 5
ENDMDL
MODEL 2
REMARK VINA RESULT:      -6.6      1.407      1.900
REMARK  Name = 
REMARK  9 active torsions:
REMARK  status: ('A' for Active; 'I' for Inactive)
REMARK    1  A    between atoms: C_1  and  N_2
REMARK    2  A    between atoms: N_2  and  S_3
REMARK    3  A    between atoms: S_3  and  C_6
REMARK    4  A    between atoms: C_8  and  C_9
REMARK    5  A    between atoms: N_11  and  C_12
REMARK    6  A    between atoms: N_11  and  C_13
REMARK    7  A    between atoms: C_13  and  C_14
REMARK    8  A    between atoms: C_18  and  C_19
REMARK    9  A    between atoms: C_20  and  C_21
REMARK                            x       y       z     vdW  Elec       q    Type
REMARK                         _______ _______ _______ _____ _____    ______ ____
ROOT
ATOM      1  C   UNL     1       4.886   5.936  17.284  0.00  0.00    +0.000 A 
ATOM      2  C   UNL     1       4.414   6.967  18.076  0.00  0.00    +0.000 A 
ATOM      3  C   UNL     1       3.120   6.613  18.573  0.00  0.00    +0.000 A 
ATOM      4  C   UNL     1       2.811   5.440  17.894  0.00  0.00    +0.000 A 
ATOM      5  C   UNL     1       1.639   4.546  17.757  0.00  0.00    +0.000 C 
ATOM      6  O   UNL     1       3.880   5.013  17.172  0.00  0.00    +0.000 OA
ENDROOT
BRANCH   3   7
ATOM      7  C   UNL     1       2.241   7.350  19.493  0.00  0.00    +0.000 C 
ATOM      8  O   UNL     1       1.985   6.869  20.595  0.00  0.00    +0.000 OA
ATOM      9  N   UNL     1       1.689   8.576  19.073  0.00  0.00    +0.000 N 
ATOM     10  C   UNL     1       1.993   9.224  17.804  0.00  0.00    +0.000 C 
BRANCH   9  11
ATOM     11  C   UNL     1       0.581   9.154  19.838  0.00  0.00    +0.000 C 
BRANCH  11  12
ATOM     12  C   UNL     1       0.232  10.563  19.411  0.00  0.00    +0.000 A 
ATOM     13  S   UNL     1       1.180  11.886  19.981  0.00  0.00    +0.000 S 
ATOM     14  C   UNL     1       0.336  13.014  19.027  0.00  0.00    +0.000 A 
ATOM     15  C   UNL     1      -0.643  12.412  18.276  0.00  0.00    +0.000 A 
ATOM     16  C   UNL     1      -0.717  10.993  18.487  0.00  0.00    +0.000 A 
ATOM     17  C   UNL     1      -1.680  10.129  17.742  0.00  0.00    +0.000 C 
ENDBRANCH  11  12
ENDBRANCH   9  11
ENDBRANCH   3   7
BRANCH   1  18
ATOM     18  S   UNL     1       6.445   5.709  16.455  0.00  0.00    +0.000 S 
ATOM     19  O   UNL     1       6.954   4.442  16.933  0.00  0.00    +0.000 OA
ATOM     20  O   UNL     1       7.172   6.944  16.656  0.00  0.00    +0.000 OA
BRANCH  18  22
ATOM     21  C   UNL     1       5.836   4.173  14.351  0.00  0.00    +0.000 C 
ATOM     22  N   UNL     1       6.137   5.534  14.806  0.00  0.00    +0.000 NA
ATOM     23  H   UNL     1       5.477   6.245  14.493  0.00  0.00    +0.000 HD
ENDBRANCH  18  22
ENDBRANCH   1  18
TORSDOF 5
ENDMDL
MODEL 3
REMARK VINA RESULT:      -6.5      3.376      7.772
REMARK  Name = 
REMARK  9 active torsions:
REMARK  status: ('A' for Active; 'I' for Inactive)
REMARK    1  A    between atoms: C_1  and  N_2
REMARK    2  A    between atoms: N_2  and  S_3
REMARK    3  A    between atoms: S_3  and  C_6
REMARK    4  A    between atoms: C_8  and  C_9
REMARK    5  A    between atoms: N_11  and  C_12
REMARK    6  A    between atoms: N_11  and  C_13
REMARK    7  A    between atoms: C_13  and  C_14
REMARK    8  A    between atoms: C_18  and  C_19
REMARK    9  A    between atoms: C_20  and  C_21
REMARK                            x       y       z     vdW  Elec       q    Type
REMARK                         _______ _______ _______ _____ _____    ______ ____
ROOT
ATOM      1  C   UNL     1      -1.109  10.476  17.975  0.00  0.00    +0.000 A 
ATOM      2  C   UNL     1      -0.416   9.294  17.789  0.00  0.00    +0.000 A 
ATOM      3  C   UNL     1       0.930   9.471  18.240  0.00  0.00    +0.000 A 
ATOM      4  C   UNL     1       1.013  10.832  18.515  0.00  0.00    +0.000 A 
ATOM      5  C   UNL     1       2.072  11.796  18.891  0.00  0.00    +0.000 C 
ATOM      6  O   UNL     1      -0.210  11.414  18.408  0.00  0.00    +0.000 OA
ENDROOT
BRANCH   3   7
ATOM      7  C   UNL     1       2.029   8.496  18.300  0.00  0.00    +0.000 C 
ATOM      8  O   UNL     1       2.779   8.375  17.335  0.00  0.00    +0.000 OA
ATOM      9  N   UNL     1       2.171   7.701  19.454  0.00  0.00    +0.000 N 
ATOM     10  C   UNL     1       1.349   7.831  20.651  0.00  0.00    +0.000 C 
BRANCH   9  11
ATOM     11  C   UNL     1       3.046   6.526  19.403  0.00  0.00    +0.000 C 
BRANCH  11  12
ATOM     12  C   UNL     1       2.290   5.225  19.248  0.00  0.00    +0.000 A 
ATOM     13  S   UNL     1       1.786   4.714  17.680  0.00  0.00    +0.000 S 
ATOM     14  C   UNL     1       1.192   3.229  18.261  0.00  0.00    +0.000 A 
ATOM     15  C   UNL     1       1.376   3.103  19.615  0.00  0.00    +0.000 A 
ATOM     16  C   UNL     1       2.009   4.251  20.203  0.00  0.00    +0.000 A 
ATOM     17  C   UNL     1       2.347   4.315  21.656  0.00  0.00    +0.000 C 
ENDBRANCH  11  12
ENDBRANCH   9  11
ENDBRANCH   3   7
BRANCH   1  18
ATOM     18  S   UNL     1      -2.821  10.890  17.712  0.00  0.00    +0.000 S 
ATOM     19  O   UNL     1      -3.112  11.947  18.656  0.00  0.00    +0.000 OA
ATOM     20  O   UNL     1      -3.532   9.629  17.740  0.00  0.00    +0.000 OA
BRANCH  18  22
ATOM     21  C   UNL     1      -3.118  10.586  15.070  0.00  0.00    +0.000 C 
ATOM     22  N   UNL     1      -2.964  11.549  16.165  0.00  0.00    +0.000 NA
ATOM     23  H   UNL     1      -3.645  12.307  16.166  0.00  0.00    +0.000 HD
ENDBRANCH  18  22
ENDBRANCH   1  18
TORSDOF 5
ENDMDL
MODEL 4
REMARK VINA RESULT:      -6.5      2.879      4.017
REMARK  Name = 
REMARK  9 active torsions:
REMARK  status: ('A' for Active; 'I' for Inactive)
REMARK    1  A    between atoms: C_1  and  N_2
REMARK    2  A    between atoms: N_2  and  S_3
REMARK    3  A    between atoms: S_3  and  C_6
REMARK    4  A    between atoms: C_8  and  C_9
REMARK    5  A    between atoms: N_11  and  C_12
REMARK    6  A    between atoms: N_11  and  C_13
REMARK    7  A    between atoms: C_13  and  C_14
REMARK    8  A    between atoms: C_18  and  C_19
REMARK    9  A    between atoms: C_20  and  C_21
REMARK                            x       y       z     vdW  Elec       q    Type
REMARK                         _______ _______ _______ _____ _____    ______ ____
ROOT
ATOM      1  C   UNL     1       2.695   4.971  19.761  0.00  0.00    +0.000 A 
ATOM      2  C   UNL     1       1.991   6.159  19.820  0.00  0.00    +0.000 A 
ATOM      3  C   UNL     1       2.480   7.038  18.802  0.00  0.00    +0.000 A 
ATOM      4  C   UNL     1       3.591   6.373  18.295  0.00  0.00    +0.000 A 
ATOM      5  C   UNL     1       4.682   6.666  17.337  0.00  0.00    +0.000 C 
ATOM      6  O   UNL     1       3.685   5.127  18.828  0.00  0.00    +0.000 OA
ENDROOT
BRANCH   3   7
ATOM      7  C   UNL     1       2.018   8.383  18.431  0.00  0.00    +0.000 C 
ATOM      8  O   UNL     1       2.214   8.793  17.289  0.00  0.00    +0.000 OA
ATOM      9  N   UNL     1       1.391   9.181  19.408  0.00  0.00    +0.000 N 
ATOM     10  C   UNL     1       1.082   8.737  20.761  0.00  0.00    +0.000 C 
BRANCH   9  11
ATOM     11  C   UNL     1       1.215  10.613  19.148  0.00  0.00    +0.000 C 
BRANCH  11  12
ATOM     12  C   UNL     1      -0.211  11.083  19.337  0.00  0.00    +0.000 A 
ATOM     13  S   UNL     1      -0.573  12.235  20.568  0.00  0.00    +0.000 S 
ATOM     14  C   UNL     1      -2.201  12.361  20.091  0.00  0.00    +0.000 A 
ATOM     15  C   UNL     1      -2.478  11.559  19.012  0.00  0.00    +0.000 A 
ATOM     16  C   UNL     1      -1.337  10.811  18.563  0.00  0.00    +0.000 A 
ATOM     17  C   UNL     1      -1.396   9.907  17.377  0.00  0.00    +0.000 C 
ENDBRANCH  11  12
ENDBRANCH   9  11
ENDBRANCH   3   7
BRANCH   1  18
ATOM     18  S   UNL     1       2.518   3.452  20.675  0.00  0.00    +0.000 S 
ATOM     19  O   UNL     1       2.311   3.852  22.049  0.00  0.00    +0.000 OA
ATOM     20  O   UNL     1       3.644   2.632  20.282  0.00  0.00    +0.000 OA
BRANCH  18  22
ATOM     21  C   UNL     1       0.985   2.474  18.712  0.00  0.00    +0.000 C 
ATOM     22  N   UNL     1       1.102   2.696  20.156  0.00  0.00    +0.000 NA
ATOM     23  H   UNL     1       0.908   1.877  20.731  0.00  0.00    +0.000 HD
ENDBRANCH  18  22
ENDBRANCH   1  18
TORSDOF 5
ENDMDL
MODEL 5
REMARK VINA RESULT:      -6.5      1.138      1.215
REMARK  Name = 
REMARK  9 active torsions:
REMARK  status: ('A' for Active; 'I' for Inactive)
REMARK    1  A    between atoms: C_1  and  N_2
REMARK    2  A    between atoms: N_2  and  S_3
REMARK    3  A    between atoms: S_3  and  C_6
REMARK    4  A    between atoms: C_8  and  C_9
REMARK    5  A    between atoms: N_11  and  C_12
REMARK    6  A    between atoms: N_11  and  C_13
REMARK    7  A    between atoms: C_13  and  C_14
REMARK    8  A    between atoms: C_18  and  C_19
REMARK    9  A    between atoms: C_20  and  C_21
REMARK                            x       y       z     vdW  Elec       q    Type
REMARK                         _______ _______ _______ _____ _____    ______ ____
ROOT
ATOM      1  C   UNL     1       4.791   5.413  17.603  0.00  0.00    +0.000 A 
ATOM      2  C   UNL     1       4.425   6.471  18.414  0.00  0.00    +0.000 A 
ATOM      3  C   UNL     1       3.049   6.324  18.774  0.00  0.00    +0.000 A 
ATOM      4  C   UNL     1       2.614   5.255  17.998  0.00  0.00    +0.000 A 
ATOM      5  C   UNL     1       1.326   4.586  17.703  0.00  0.00    +0.000 C 
ATOM      6  O   UNL     1       3.660   4.685  17.345  0.00  0.00    +0.000 OA
ENDROOT
BRANCH   3   7
ATOM      7  C   UNL     1       2.222   7.158  19.659  0.00  0.00    +0.000 C 
ATOM      8  O   UNL     1       1.913   6.732  20.770  0.00  0.00    +0.000 OA
ATOM      9  N   UNL     1       1.779   8.411  19.196  0.00  0.00    +0.000 N 
ATOM     10  C   UNL     1       2.152   8.995  17.913  0.00  0.00    +0.000 C 
BRANCH   9  11
ATOM     11  C   UNL     1       0.712   9.102  19.928  0.00  0.00    +0.000 C 
BRANCH  11  12
ATOM     12  C   UNL     1       0.163  10.303  19.189  0.00  0.00    +0.000 A 
ATOM     13  S   UNL     1      -1.171  10.106  18.115  0.00  0.00    +0.000 S 
ATOM     14  C   UNL     1      -1.290  11.777  17.819  0.00  0.00    +0.000 A 
ATOM     15  C   UNL     1      -0.349  12.486  18.524  0.00  0.00    +0.000 A 
ATOM     16  C   UNL     1       0.502  11.647  19.321  0.00  0.00    +0.000 A 
ATOM     17  C   UNL     1       1.568  12.207  20.204  0.00  0.00    +0.000 C 
ENDBRANCH  11  12
ENDBRANCH   9  11
ENDBRANCH   3   7
BRANCH   1  18
ATOM     18  S   UNL     1       6.363   4.959  16.899  0.00  0.00    +0.000 S 
ATOM     19  O   UNL     1       7.157   4.478  18.009  0.00  0.00    +0.000 OA
ATOM     20  O   UNL     1       6.775   6.098  16.107  0.00  0.00    +0.000 OA
BRANCH  18  22
ATOM     21  C   UNL     1       6.249   3.934  14.430  0.00  0.00    +0.000 C 
ATOM     22  N   UNL     1       6.110   3.652  15.862  0.00  0.00    +0.000 NA
ATOM     23  H   UNL     1       6.626   2.837  16.190  0.00  0.00    +0.000 HD
ENDBRANCH  18  22
ENDBRANCH   1  18
TORSDOF 5
ENDMDL
MODEL 6
REMARK VINA RESULT:      -6.5      1.176      1.563
REMARK  Name = 
REMARK  9 active torsions:
REMARK  status: ('A' for Active; 'I' for Inactive)
REMARK    1  A    between atoms: C_1  and  N_2
REMARK    2  A    between atoms: N_2  and  S_3
REMARK    3  A    between atoms: S_3  and  C_6
REMARK    4  A    between atoms: C_8  and  C_9
REMARK    5  A    between atoms: N_11  and  C_12
REMARK    6  A    between atoms: N_11  and  C_13
REMARK    7  A    between atoms: C_13  and  C_14
REMARK    8  A    between atoms: C_18  and  C_19
REMARK    9  A    between atoms: C_20  and  C_21
REMARK                            x       y       z     vdW  Elec       q    Type
REMARK                         _______ _______ _______ _____ _____    ______ ____
ROOT
ATOM      1  C   UNL     1       4.749   5.466  17.563  0.00  0.00    +0.000 A 
ATOM      2  C   UNL     1       4.382   6.534  18.361  0.00  0.00    +0.000 A 
ATOM      3  C   UNL     1       3.020   6.363  18.765  0.00  0.00    +0.000 A 
ATOM      4  C   UNL     1       2.588   5.268  18.026  0.00  0.00    +0.000 A 
ATOM      5  C   UNL     1       1.308   4.562  17.785  0.00  0.00    +0.000 C 
ATOM      6  O   UNL     1       3.628   4.706  17.356  0.00  0.00    +0.000 OA
ENDROOT
BRANCH   3   7
ATOM      7  C   UNL     1       2.200   7.198  19.656  0.00  0.00    +0.000 C 
ATOM      8  O   UNL     1       1.942   6.795  20.788  0.00  0.00    +0.000 OA
ATOM      9  N   UNL     1       1.705   8.425  19.174  0.00  0.00    +0.000 N 
ATOM     10  C   UNL     1       2.017   8.983  17.864  0.00  0.00    +0.000 C 
BRANCH   9  11
ATOM     11  C   UNL     1       0.644   9.106  19.924  0.00  0.00    +0.000 C 
BRANCH  11  12
ATOM     12  C   UNL     1       0.337  10.490  19.398  0.00  0.00    +0.000 A 
ATOM     13  S   UNL     1       1.352  11.813  19.836  0.00  0.00    +0.000 S 
ATOM     14  C   UNL     1       0.521  12.898  18.822  0.00  0.00    +0.000 A 
ATOM     15  C   UNL     1      -0.503  12.280  18.148  0.00  0.00    +0.000 A 
ATOM     16  C   UNL     1      -0.625  10.886  18.471  0.00  0.00    +0.000 A 
ATOM     17  C   UNL     1      -1.643  10.007  17.823  0.00  0.00    +0.000 C 
ENDBRANCH  11  12
ENDBRANCH   9  11
ENDBRANCH   3   7
BRANCH   1  18
ATOM     18  S   UNL     1       6.309   5.031  16.824  0.00  0.00    +0.000 S 
ATOM     19  O   UNL     1       6.850   6.271  16.310  0.00  0.00    +0.000 OA
ATOM     20  O   UNL     1       6.026   3.908  15.956  0.00  0.00    +0.000 OA
BRANCH  18  22
ATOM     21  C   UNL     1       7.867   5.553  18.936  0.00  0.00    +0.000 C 
ATOM     22  N   UNL     1       7.339   4.508  18.053  0.00  0.00    +0.000 NA
ATOM     23  H   UNL     1       6.935   3.705  18.534  0.00  0.00    +0.000 HD
ENDBRANCH  18  22
ENDBRANCH   1  18
TORSDOF 5
ENDMDL
MODEL 7
REMARK VINA RESULT:      -6.5      1.519      1.966
REMARK  Name = 
REMARK  9 active torsions:
REMARK  status: ('A' for Active; 'I' for Inactive)
REMARK    1  A    between atoms: C_1  and  N_2
REMARK    2  A    between atoms: N_2  and  S_3
REMARK    3  A    between atoms: S_3  and  C_6
REMARK    4  A    between atoms: C_8  and  C_9
REMARK    5  A    between atoms: N_11  and  C_12
REMARK    6  A    between atoms: N_11  and  C_13
REMARK    7  A    between atoms: C_13  and  C_14
REMARK    8  A    between atoms: C_18  and  C_19
REMARK    9  A    between atoms: C_20  and  C_21
REMARK                            x       y       z     vdW  Elec       q    Type
REMARK                         _______ _______ _______ _____ _____    ______ ____
ROOT
ATOM      1  C   UNL     1       4.922   5.354  17.682  0.00  0.00    +0.000 A 
ATOM      2  C   UNL     1       4.502   6.366  18.525  0.00  0.00    +0.000 A 
ATOM      3  C   UNL     1       3.117   6.171  18.827  0.00  0.00    +0.000 A 
ATOM      4  C   UNL     1       2.737   5.129  17.989  0.00  0.00    +0.000 A 
ATOM      5  C   UNL     1       1.477   4.443  17.619  0.00  0.00    +0.000 C 
ATOM      6  O   UNL     1       3.820   4.612  17.352  0.00  0.00    +0.000 OA
ENDROOT
BRANCH   3   7
ATOM      7  C   UNL     1       2.239   6.946  19.717  0.00  0.00    +0.000 C 
ATOM      8  O   UNL     1       1.893   6.461  20.791  0.00  0.00    +0.000 OA
ATOM      9  N   UNL     1       1.790   8.213  19.296  0.00  0.00    +0.000 N 
ATOM     10  C   UNL     1       2.204   8.865  18.060  0.00  0.00    +0.000 C 
BRANCH   9  11
ATOM     11  C   UNL     1       0.681   8.847  20.016  0.00  0.00    +0.000 C 
BRANCH  11  12
ATOM     12  C   UNL     1       0.433  10.277  19.587  0.00  0.00    +0.000 A 
ATOM     13  S   UNL     1       1.367  11.549  20.281  0.00  0.00    +0.000 S 
ATOM     14  C   UNL     1       0.669  12.728  19.272  0.00  0.00    +0.000 A 
ATOM     15  C   UNL     1      -0.249  12.180  18.411  0.00  0.00    +0.000 A 
ATOM     16  C   UNL     1      -0.400  10.762  18.581  0.00  0.00    +0.000 A 
ATOM     17  C   UNL     1      -1.313   9.951  17.722  0.00  0.00    +0.000 C 
ENDBRANCH  11  12
ENDBRANCH   9  11
ENDBRANCH   3   7
BRANCH   1  18
ATOM     18  S   UNL     1       6.529   4.967  17.019  0.00  0.00    +0.000 S 
ATOM     19  O   UNL     1       6.277   4.161  15.844  0.00  0.00    +0.000 OA
ATOM     20  O   UNL     1       7.297   4.462  18.137  0.00  0.00    +0.000 OA
BRANCH  18  22
ATOM     21  C   UNL     1       7.676   7.325  17.549  0.00  0.00    +0.000 C 
ATOM     22  N   UNL     1       7.235   6.407  16.494  0.00  0.00    +0.000 NA
ATOM     23  H   UNL     1       7.930   6.217  15.774  0.00  0.00    +0.000 HD
ENDBRANCH  18  22
ENDBRANCH   1  18
TORSDOF 5
ENDMDL
MODEL 8
REMARK VINA RESULT:      -6.4      3.524      7.647
REMARK  Name = 
REMARK  9 active torsions:
REMARK  status: ('A' for Active; 'I' for Inactive)
REMARK    1  A    between atoms: C_1  and  N_2
REMARK    2  A    between atoms: N_2  and  S_3
REMARK    3  A    between atoms: S_3  and  C_6
REMARK    4  A    between atoms: C_8  and  C_9
REMARK    5  A    between atoms: N_11  and  C_12
REMARK    6  A    between atoms: N_11  and  C_13
REMARK    7  A    between atoms: C_13  and  C_14
REMARK    8  A    between atoms: C_18  and  C_19
REMARK    9  A    between atoms: C_20  and  C_21
REMARK                            x       y       z     vdW  Elec       q    Type
REMARK                         _______ _______ _______ _____ _____    ______ ____
ROOT
ATOM      1  C   UNL     1       2.378   4.545  18.466  0.00  0.00    +0.000 A 
ATOM      2  C   UNL     1       3.404   4.436  17.546  0.00  0.00    +0.000 A 
ATOM      3  C   UNL     1       3.938   5.739  17.293  0.00  0.00    +0.000 A 
ATOM      4  C   UNL     1       3.066   6.593  17.959  0.00  0.00    +0.000 A 
ATOM      5  C   UNL     1       2.861   8.054  18.075  0.00  0.00    +0.000 C 
ATOM      6  O   UNL     1       2.175   5.880  18.696  0.00  0.00    +0.000 OA
ENDROOT
BRANCH   3   7
ATOM      7  C   UNL     1       5.069   6.134  16.438  0.00  0.00    +0.000 C 
ATOM      8  O   UNL     1       4.894   6.975  15.560  0.00  0.00    +0.000 OA
ATOM      9  N   UNL     1       6.317   5.509  16.630  0.00  0.00    +0.000 N 
ATOM     10  C   UNL     1       6.603   4.545  17.684  0.00  0.00    +0.000 C 
BRANCH   9  11
ATOM     11  C   UNL     1       7.349   5.656  15.598  0.00  0.00    +0.000 C 
BRANCH  11  12
ATOM     12  C   UNL     1       7.051   4.869  14.341  0.00  0.00    +0.000 A 
ATOM     13  S   UNL     1       5.771   3.715  14.341  0.00  0.00    +0.000 S 
ATOM     14  C   UNL     1       5.947   3.391  12.680  0.00  0.00    +0.000 A 
ATOM     15  C   UNL     1       6.948   4.146  12.119  0.00  0.00    +0.000 A 
ATOM     16  C   UNL     1       7.598   5.006  13.067  0.00  0.00    +0.000 A 
ATOM     17  C   UNL     1       8.687   5.947  12.669  0.00  0.00    +0.000 C 
ENDBRANCH  11  12
ENDBRANCH   9  11
ENDBRANCH   3   7
BRANCH   1  18
ATOM     18  S   UNL     1       1.377   3.307  19.263  0.00  0.00    +0.000 S 
ATOM     19  O   UNL     1       0.675   2.632  18.193  0.00  0.00    +0.000 OA
ATOM     20  O   UNL     1       0.669   4.003  20.316  0.00  0.00    +0.000 OA
BRANCH  18  22
ATOM     21  C   UNL     1       3.713   2.691  20.413  0.00  0.00    +0.000 C 
ATOM     22  N   UNL     1       2.412   2.179  19.972  0.00  0.00    +0.000 NA
ATOM     23  H   UNL     1       1.910   1.628  20.667  0.00  0.00    +0.000 HD
ENDBRANCH  18  22
ENDBRANCH   1  18
TORSDOF 5
ENDMDL
MODEL 9
REMARK VINA RESULT:      -6.4      4.303      5.935
REMARK  Name = 
REMARK  9 active torsions:
REMARK  status: ('A' for Active; 'I' for Inactive)
REMARK    1  A    between atoms: C_1  and  N_2
REMARK    2  A    between atoms: N_2  and  S_3
REMARK    3  A    between atoms: S_3  and  C_6
REMARK    4  A    between atoms: C_8  and  C_9
REMARK    5  A    between atoms: N_11  and  C_12
REMARK    6  A    between atoms: N_11  and  C_13
REMARK    7  A    between atoms: C_13  and  C_14
REMARK    8  A    between atoms: C_18  and  C_19
REMARK    9  A    between atoms: C_20  and  C_21
REMARK                            x       y       z     vdW  Elec       q    Type
REMARK                         _______ _______ _______ _____ _____    ______ ____
ROOT
ATOM      1  C   UNL     1       6.136   4.161  14.734  0.00  0.00    +0.000 A 
ATOM      2  C   UNL     1       5.084   4.078  15.628  0.00  0.00    +0.000 A 
ATOM      3  C   UNL     1       5.571   4.366  16.943  0.00  0.00    +0.000 A 
ATOM      4  C   UNL     1       6.950   4.437  16.780  0.00  0.00    +0.000 A 
ATOM      5  C   UNL     1       8.137   4.568  17.655  0.00  0.00    +0.000 C 
ATOM      6  O   UNL     1       7.277   4.368  15.463  0.00  0.00    +0.000 OA
ENDROOT
BRANCH   3   7
ATOM      7  C   UNL     1       4.832   4.457  18.211  0.00  0.00    +0.000 C 
ATOM      8  O   UNL     1       4.893   3.525  19.010  0.00  0.00    +0.000 OA
ATOM      9  N   UNL     1       4.045   5.598  18.461  0.00  0.00    +0.000 N 
ATOM     10  C   UNL     1       3.972   6.757  17.580  0.00  0.00    +0.000 C 
BRANCH   9  11
ATOM     11  C   UNL     1       3.070   5.562  19.555  0.00  0.00    +0.000 C 
BRANCH  11  12
ATOM     12  C   UNL     1       2.117   4.390  19.466  0.00  0.00    +0.000 A 
ATOM     13  S   UNL     1       1.418   3.974  17.945  0.00  0.00    +0.000 S 
ATOM     14  C   UNL     1       0.657   2.591  18.577  0.00  0.00    +0.000 A 
ATOM     15  C   UNL     1       0.927   2.427  19.913  0.00  0.00    +0.000 A 
ATOM     16  C   UNL     1       1.770   3.461  20.444  0.00  0.00    +0.000 A 
ATOM     17  C   UNL     1       2.229   3.461  21.865  0.00  0.00    +0.000 C 
ENDBRANCH  11  12
ENDBRANCH   9  11
ENDBRANCH   3   7
BRANCH   1  18
ATOM     18  S   UNL     1       6.186   4.009  12.960  0.00  0.00    +0.000 S 
ATOM     19  O   UNL     1       7.315   4.810  12.538  0.00  0.00    +0.000 OA
ATOM     20  O   UNL     1       4.841   4.295  12.510  0.00  0.00    +0.000 OA
BRANCH  18  22
ATOM     21  C   UNL     1       5.805   1.828  11.459  0.00  0.00    +0.000 C 
ATOM     22  N   UNL     1       6.544   2.404  12.586  0.00  0.00    +0.000 NA
ATOM     23  H   UNL     1       7.554   2.266  12.551  0.00  0.00    +0.000 HD
ENDBRANCH  18  22
ENDBRANCH   1  18
TORSDOF 5
ENDMDL
