MODEL 1
REMARK VINA RESULT:      -7.5      0.000      0.000
REMARK  Name = 
REMARK  12 active torsions:
REMARK  status: ('A' for Active; 'I' for Inactive)
REMARK    1  A    between atoms: C_1  and  O_2
REMARK    2  A    between atoms: O_2  and  C_3
REMARK    3  A    between atoms: C_3  and  C_5
REMARK    4  A    between atoms: C_5  and  O_6
REMARK    5  A    between atoms: O_6  and  C_7
REMARK    6  A    between atoms: N_10  and  C_11
REMARK    7  A    between atoms: C_14  and  C_15
REMARK    8  A    between atoms: N_17  and  C_18
REMARK    9  A    between atoms: N_21  and  C_22
REMARK   10  A    between atoms: C_26  and  O_27
REMARK   11  A    between atoms: O_27  and  C_28
REMARK   12  A    between atoms: C_31  and  C_32
REMARK                            x       y       z     vdW  Elec       q    Type
REMARK                         _______ _______ _______ _____ _____    ______ ____
ROOT
ATOM      1  C   UNL     1       0.764  11.859  20.452  0.00  0.00    +0.000 A 
ATOM      2  C   UNL     1       1.092  11.783  19.086  0.00  0.00    +0.000 A 
ATOM      3  C   UNL     1       1.482  10.593  18.482  0.00  0.00    +0.000 A 
ATOM      4  C   UNL     1       1.577   9.415  19.221  0.00  0.00    +0.000 A 
ATOM      5  C   UNL     1       1.192   9.449  20.562  0.00  0.00    +0.000 A 
ATOM      6  C   UNL     1       0.740  10.643  21.174  0.00  0.00    +0.000 A 
ENDROOT
BRANCH   1  10
ATOM      7  C   UNL     1      -2.899  12.962  22.295  0.00  0.00    +0.000 A 
ATOM      8  N   UNL     1      -1.884  12.837  21.407  0.00  0.00    +0.000 NA
ATOM      9  C   UNL     1      -0.728  13.478  21.655  0.00  0.00    +0.000 A 
ATOM     10  N   UNL     1       0.449  13.143  20.946  0.00  0.00    +0.000 N 
ATOM     11  N   UNL     1      -0.581  14.311  22.690  0.00  0.00    +0.000 NA
ATOM     12  C   UNL     1      -1.580  14.338  23.599  0.00  0.00    +0.000 A 
ATOM     13  C   UNL     1      -2.763  13.662  23.472  0.00  0.00    +0.000 A 
ATOM     14  H   UNL     1       0.799  13.933  20.449  0.00  0.00    +0.000 HD
BRANCH  13  15
ATOM     15  C   UNL     1      -3.719  13.694  24.613  0.00  0.00    +0.000 C 
ATOM     16  F   UNL     1      -3.335  14.349  25.738  0.00  0.00    +0.000 F 
ATOM     17  F   UNL     1      -4.862  14.358  24.312  0.00  0.00    +0.000 F 
ATOM     18  F   UNL     1      -4.073  12.458  25.052  0.00  0.00    +0.000 F 
ENDBRANCH  13  15
BRANCH   7  19
ATOM     19  O   UNL     1      -4.007  12.224  21.971  0.00  0.00    +0.000 OA
BRANCH  19  20
ATOM     20  C   UNL     1      -4.962  12.900  21.152  0.00  0.00    +0.000 C 
BRANCH  20  21
ATOM     21  C   UNL     1      -6.379  12.804  21.670  0.00  0.00    +0.000 C 
ATOM     22  O   UNL     1      -7.016  13.754  22.021  0.00  0.00    +0.000 OA
BRANCH  21  24
ATOM     23  C   UNL     1      -7.319  11.087  20.437  0.00  0.00    +0.000 C 
ATOM     24  O   UNL     1      -6.767  11.503  21.687  0.00  0.00    +0.000 OA
ENDBRANCH  21  24
ENDBRANCH  20  21
ENDBRANCH  19  20
ENDBRANCH   7  19
ENDBRANCH   1  10
BRANCH   4  25
ATOM     25  C   UNL     1       2.121   8.211  18.517  0.00  0.00    +0.000 C 
ATOM     26  O   UNL     1       2.416   8.327  17.330  0.00  0.00    +0.000 OA
ATOM     27  N   UNL     1       2.300   7.028  19.223  0.00  0.00    +0.000 N 
ATOM     28  H   UNL     1       1.859   6.921  20.123  0.00  0.00    +0.000 HD
BRANCH  27  29
ATOM     29  C   UNL     1       2.863   5.810  18.608  0.00  0.00    +0.000 C 
ATOM     30  C   UNL     1       1.757   4.885  18.084  0.00  0.00    +0.000 C 
ATOM     31  C   UNL     1       2.325   3.567  17.538  0.00  0.00    +0.000 C 
ATOM     32  N   UNL     1       3.141   2.868  18.542  0.00  0.00    +0.000 NA
ATOM     33  C   UNL     1       3.683   1.616  18.008  0.00  0.00    +0.000 C 
ATOM     34  C   UNL     1       4.248   3.712  18.991  0.00  0.00    +0.000 C 
ATOM     35  C   UNL     1       3.749   5.022  19.587  0.00  0.00    +0.000 C 
ENDBRANCH  27  29
ENDBRANCH   4  25
BRANCH   6  36
ATOM     36  O   UNL     1       0.375  10.387  22.471  0.00  0.00    +0.000 OA
ATOM     37  C   UNL     1      -0.405   9.249  22.779  0.00  0.00    +0.000 C 
ENDBRANCH   6  36
TORSDOF 9
ENDMDL
MODEL 2
REMARK VINA RESULT:      -7.4      2.649      3.308
REMARK  Name = 
REMARK  12 active torsions:
REMARK  status: ('A' for Active; 'I' for Inactive)
REMARK    1  A    between atoms: C_1  and  O_2
REMARK    2  A    between atoms: O_2  and  C_3
REMARK    3  A    between atoms: C_3  and  C_5
REMARK    4  A    between atoms: C_5  and  O_6
REMARK    5  A    between atoms: O_6  and  C_7
REMARK    6  A    between atoms: N_10  and  C_11
REMARK    7  A    between atoms: C_14  and  C_15
REMARK    8  A    between atoms: N_17  and  C_18
REMARK    9  A    between atoms: N_21  and  C_22
REMARK   10  A    between atoms: C_26  and  O_27
REMARK   11  A    between atoms: O_27  and  C_28
REMARK   12  A    between atoms: C_31  and  C_32
REMARK                            x       y       z     vdW  Elec       q    Type
REMARK                         _______ _______ _______ _____ _____    ______ ____
ROOT
ATOM      1  C   UNL     1      -0.002  11.391  20.280  0.00  0.00    +0.000 A 
ATOM      2  C   UNL     1       0.207  10.997  18.946  0.00  0.00    +0.000 A 
ATOM      3  C   UNL     1       0.866   9.819  18.615  0.00  0.00    +0.000 A 
ATOM      4  C   UNL     1       1.363   8.975  19.608  0.00  0.00    +0.000 A 
ATOM      5  C   UNL     1       1.108   9.309  20.939  0.00  0.00    +0.000 A 
ATOM      6  C   UNL     1       0.390  10.479  21.287  0.00  0.00    +0.000 A 
ENDROOT
BRANCH   1  10
ATOM      7  C   UNL     1      -4.099  12.240  19.555  0.00  0.00    +0.000 A 
ATOM      8  N   UNL     1      -2.750  12.195  19.451  0.00  0.00    +0.000 NA
ATOM      9  C   UNL     1      -2.011  12.894  20.331  0.00  0.00    +0.000 A 
ATOM     10  N   UNL     1      -0.626  12.643  20.470  0.00  0.00    +0.000 N 
ATOM     11  N   UNL     1      -2.561  13.708  21.236  0.00  0.00    +0.000 NA
ATOM     12  C   UNL     1      -3.904  13.657  21.369  0.00  0.00    +0.000 A 
ATOM     13  C   UNL     1      -4.734  12.919  20.570  0.00  0.00    +0.000 A 
ATOM     14  H   UNL     1      -0.097  13.464  20.269  0.00  0.00    +0.000 HD
BRANCH  13  15
ATOM     15  C   UNL     1      -6.182  12.868  20.914  0.00  0.00    +0.000 C 
ATOM     16  F   UNL     1      -6.614  13.649  21.936  0.00  0.00    +0.000 F 
ATOM     17  F   UNL     1      -6.970  13.316  19.904  0.00  0.00    +0.000 F 
ATOM     18  F   UNL     1      -6.614  11.622  21.240  0.00  0.00    +0.000 F 
ENDBRANCH  13  15
BRANCH   7  19
ATOM     19  O   UNL     1      -4.748  11.449  18.643  0.00  0.00    +0.000 OA
BRANCH  19  20
ATOM     20  C   UNL     1      -4.273  11.562  17.302  0.00  0.00    +0.000 C 
BRANCH  20  21
ATOM     21  C   UNL     1      -3.370  10.425  16.882  0.00  0.00    +0.000 C 
ATOM     22  O   UNL     1      -3.284   9.396  17.485  0.00  0.00    +0.000 OA
BRANCH  21  24
ATOM     23  C   UNL     1      -3.305  10.282  14.573  0.00  0.00    +0.000 C 
ATOM     24  O   UNL     1      -2.688  10.779  15.761  0.00  0.00    +0.000 OA
ENDBRANCH  21  24
ENDBRANCH  20  21
ENDBRANCH  19  20
ENDBRANCH   7  19
ENDBRANCH   1  10
BRANCH   4  25
ATOM     25  C   UNL     1       2.163   7.792  19.160  0.00  0.00    +0.000 C 
ATOM     26  O   UNL     1       2.901   7.937  18.188  0.00  0.00    +0.000 OA
ATOM     27  N   UNL     1       2.069   6.597  19.862  0.00  0.00    +0.000 N 
ATOM     28  H   UNL     1       1.311   6.467  20.512  0.00  0.00    +0.000 HD
BRANCH  27  29
ATOM     29  C   UNL     1       2.853   5.398  19.502  0.00  0.00    +0.000 C 
ATOM     30  C   UNL     1       2.497   4.899  18.096  0.00  0.00    +0.000 C 
ATOM     31  C   UNL     1       3.226   3.592  17.752  0.00  0.00    +0.000 C 
ATOM     32  N   UNL     1       2.963   2.542  18.749  0.00  0.00    +0.000 NA
ATOM     33  C   UNL     1       3.669   1.303  18.413  0.00  0.00    +0.000 C 
ATOM     34  C   UNL     1       3.373   2.978  20.083  0.00  0.00    +0.000 C 
ATOM     35  C   UNL     1       2.649   4.251  20.505  0.00  0.00    +0.000 C 
ENDBRANCH  27  29
ENDBRANCH   4  25
BRANCH   6  36
ATOM     36  O   UNL     1       0.236  10.536  22.649  0.00  0.00    +0.000 OA
ATOM     37  C   UNL     1      -1.056  10.486  23.221  0.00  0.00    +0.000 C 
ENDBRANCH   6  36
TORSDOF 9
ENDMDL
MODEL 3
REMARK VINA RESULT:      -7.3      2.586      3.455
REMARK  Name = 
REMARK  12 active torsions:
REMARK  status: ('A' for Active; 'I' for Inactive)
REMARK    1  A    between atoms: C_1  and  O_2
REMARK    2  A    between atoms: O_2  and  C_3
REMARK    3  A    between atoms: C_3  and  C_5
REMARK    4  A    between atoms: C_5  and  O_6
REMARK    5  A    between atoms: O_6  and  C_7
REMARK    6  A    between atoms: N_10  and  C_11
REMARK    7  A    between atoms: C_14  and  C_15
REMARK    8  A    between atoms: N_17  and  C_18
REMARK    9  A    between atoms: N_21  and  C_22
REMARK   10  A    between atoms: C_26  and  O_27
REMARK   11  A    between atoms: O_27  and  C_28
REMARK   12  A    between atoms: C_31  and  C_32
REMARK                            x       y       z     vdW  Elec       q    Type
REMARK                         _______ _______ _______ _____ _____    ______ ____
ROOT
ATOM      1  C   UNL     1      -0.459  11.269  21.997  0.00  0.00    +0.000 A 
ATOM      2  C   UNL     1      -0.222  10.016  22.591  0.00  0.00    +0.000 A 
ATOM      3  C   UNL     1       0.519   9.024  21.961  0.00  0.00    +0.000 A 
ATOM      4  C   UNL     1       1.054   9.231  20.690  0.00  0.00    +0.000 A 
ATOM      5  C   UNL     1       0.891  10.489  20.107  0.00  0.00    +0.000 A 
ATOM      6  C   UNL     1       0.185  11.525  20.765  0.00  0.00    +0.000 A 
ENDROOT
BRANCH   1  10
ATOM      7  C   UNL     1      -4.252  12.702  20.734  0.00  0.00    +0.000 A 
ATOM      8  N   UNL     1      -2.937  12.628  21.051  0.00  0.00    +0.000 NA
ATOM      9  C   UNL     1      -2.590  12.546  22.348  0.00  0.00    +0.000 A 
ATOM     10  N   UNL     1      -1.283  12.157  22.721  0.00  0.00    +0.000 N 
ATOM     11  N   UNL     1      -3.487  12.637  23.334  0.00  0.00    +0.000 NA
ATOM     12  C   UNL     1      -4.790  12.619  22.978  0.00  0.00    +0.000 A 
ATOM     13  C   UNL     1      -5.242  12.626  21.687  0.00  0.00    +0.000 A 
ATOM     14  H   UNL     1      -0.840  12.873  23.256  0.00  0.00    +0.000 HD
BRANCH  13  15
ATOM     15  C   UNL     1      -6.705  12.482  21.450  0.00  0.00    +0.000 C 
ATOM     16  F   UNL     1      -7.125  11.400  20.746  0.00  0.00    +0.000 F 
ATOM     17  F   UNL     1      -7.402  12.319  22.602  0.00  0.00    +0.000 F 
ATOM     18  F   UNL     1      -7.250  13.539  20.794  0.00  0.00    +0.000 F 
ENDBRANCH  13  15
BRANCH   7  19
ATOM     19  O   UNL     1      -4.491  12.727  19.385  0.00  0.00    +0.000 OA
BRANCH  19  20
ATOM     20  C   UNL     1      -4.200  11.509  18.699  0.00  0.00    +0.000 C 
BRANCH  20  21
ATOM     21  C   UNL     1      -4.567  11.538  17.233  0.00  0.00    +0.000 C 
ATOM     22  O   UNL     1      -5.336  12.324  16.763  0.00  0.00    +0.000 OA
BRANCH  21  24
ATOM     23  C   UNL     1      -2.821  11.027  15.803  0.00  0.00    +0.000 C 
ATOM     24  O   UNL     1      -3.913  10.540  16.584  0.00  0.00    +0.000 OA
ENDBRANCH  21  24
ENDBRANCH  20  21
ENDBRANCH  19  20
ENDBRANCH   7  19
ENDBRANCH   1  10
BRANCH   4  25
ATOM     25  C   UNL     1       1.733   8.067  20.038  0.00  0.00    +0.000 C 
ATOM     26  O   UNL     1       2.247   8.248  18.938  0.00  0.00    +0.000 OA
ATOM     27  N   UNL     1       1.784   6.846  20.700  0.00  0.00    +0.000 N 
ATOM     28  H   UNL     1       1.182   6.691  21.492  0.00  0.00    +0.000 HD
BRANCH  27  29
ATOM     29  C   UNL     1       2.465   5.663  20.138  0.00  0.00    +0.000 C 
ATOM     30  C   UNL     1       1.947   5.333  18.732  0.00  0.00    +0.000 C 
ATOM     31  C   UNL     1       2.570   4.044  18.180  0.00  0.00    +0.000 C 
ATOM     32  N   UNL     1       2.354   2.904  19.084  0.00  0.00    +0.000 NA
ATOM     33  C   UNL     1       2.959   1.681  18.550  0.00  0.00    +0.000 C 
ATOM     34  C   UNL     1       2.917   3.175  20.407  0.00  0.00    +0.000 C 
ATOM     35  C   UNL     1       2.305   4.423  21.032  0.00  0.00    +0.000 C 
ENDBRANCH  27  29
ENDBRANCH   4  25
BRANCH   6  36
ATOM     36  O   UNL     1       0.223  12.664  20.001  0.00  0.00    +0.000 OA
ATOM     37  C   UNL     1      -0.236  12.639  18.664  0.00  0.00    +0.000 C 
ENDBRANCH   6  36
TORSDOF 9
ENDMDL
MODEL 4
REMARK VINA RESULT:      -7.3      0.568      1.067
REMARK  Name = 
REMARK  12 active torsions:
REMARK  status: ('A' for Active; 'I' for Inactive)
REMARK    1  A    between atoms: C_1  and  O_2
REMARK    2  A    between atoms: O_2  and  C_3
REMARK    3  A    between atoms: C_3  and  C_5
REMARK    4  A    between atoms: C_5  and  O_6
REMARK    5  A    between atoms: O_6  and  C_7
REMARK    6  A    between atoms: N_10  and  C_11
REMARK    7  A    between atoms: C_14  and  C_15
REMARK    8  A    between atoms: N_17  and  C_18
REMARK    9  A    between atoms: N_21  and  C_22
REMARK   10  A    between atoms: C_26  and  O_27
REMARK   11  A    between atoms: O_27  and  C_28
REMARK   12  A    between atoms: C_31  and  C_32
REMARK                            x       y       z     vdW  Elec       q    Type
REMARK                         _______ _______ _______ _____ _____    ______ ____
ROOT
ATOM      1  C   UNL     1       0.820  11.715  20.714  0.00  0.00    +0.000 A 
ATOM      2  C   UNL     1       1.036  11.625  19.327  0.00  0.00    +0.000 A 
ATOM      3  C   UNL     1       1.374  10.429  18.706  0.00  0.00    +0.000 A 
ATOM      4  C   UNL     1       1.527   9.257  19.446  0.00  0.00    +0.000 A 
ATOM      5  C   UNL     1       1.252   9.306  20.813  0.00  0.00    +0.000 A 
ATOM      6  C   UNL     1       0.853  10.507  21.448  0.00  0.00    +0.000 A 
ENDROOT
BRANCH   1  10
ATOM      7  C   UNL     1      -2.858  12.966  22.428  0.00  0.00    +0.000 A 
ATOM      8  N   UNL     1      -1.814  12.807  21.580  0.00  0.00    +0.000 NA
ATOM      9  C   UNL     1      -0.639  13.385  21.887  0.00  0.00    +0.000 A 
ATOM     10  N   UNL     1       0.548  13.005  21.220  0.00  0.00    +0.000 N 
ATOM     11  N   UNL     1      -0.495  14.192  22.942  0.00  0.00    +0.000 NA
ATOM     12  C   UNL     1      -1.528  14.253  23.811  0.00  0.00    +0.000 A 
ATOM     13  C   UNL     1      -2.736  13.639  23.623  0.00  0.00    +0.000 A 
ATOM     14  H   UNL     1       0.956  13.785  20.753  0.00  0.00    +0.000 HD
BRANCH  13  15
ATOM     15  C   UNL     1      -3.736  13.699  24.725  0.00  0.00    +0.000 C 
ATOM     16  F   UNL     1      -4.191  12.522  25.226  0.00  0.00    +0.000 F 
ATOM     17  F   UNL     1      -3.237  14.274  25.846  0.00  0.00    +0.000 F 
ATOM     18  F   UNL     1      -4.865  14.377  24.390  0.00  0.00    +0.000 F 
ENDBRANCH  13  15
BRANCH   7  19
ATOM     19  O   UNL     1      -3.986  12.291  22.045  0.00  0.00    +0.000 OA
BRANCH  19  20
ATOM     20  C   UNL     1      -4.960  13.081  21.363  0.00  0.00    +0.000 C 
BRANCH  20  21
ATOM     21  C   UNL     1      -6.063  12.267  20.727  0.00  0.00    +0.000 C 
ATOM     22  O   UNL     1      -5.895  11.563  19.775  0.00  0.00    +0.000 OA
BRANCH  21  24
ATOM     23  C   UNL     1      -7.256  13.773  22.016  0.00  0.00    +0.000 C 
ATOM     24  O   UNL     1      -7.228  12.491  21.388  0.00  0.00    +0.000 OA
ENDBRANCH  21  24
ENDBRANCH  20  21
ENDBRANCH  19  20
ENDBRANCH   7  19
ENDBRANCH   1  10
BRANCH   4  25
ATOM     25  C   UNL     1       2.011   8.046  18.712  0.00  0.00    +0.000 C 
ATOM     26  O   UNL     1       2.122   8.124  17.491  0.00  0.00    +0.000 OA
ATOM     27  N   UNL     1       2.341   6.900  19.425  0.00  0.00    +0.000 N 
ATOM     28  H   UNL     1       2.043   6.815  20.384  0.00  0.00    +0.000 HD
BRANCH  27  29
ATOM     29  C   UNL     1       2.857   5.678  18.777  0.00  0.00    +0.000 C 
ATOM     30  C   UNL     1       1.716   4.747  18.348  0.00  0.00    +0.000 C 
ATOM     31  C   UNL     1       2.242   3.426  17.769  0.00  0.00    +0.000 C 
ATOM     32  N   UNL     1       3.137   2.737  18.711  0.00  0.00    +0.000 NA
ATOM     33  C   UNL     1       3.638   1.481  18.145  0.00  0.00    +0.000 C 
ATOM     34  C   UNL     1       4.274   3.586  19.065  0.00  0.00    +0.000 C 
ATOM     35  C   UNL     1       3.819   4.900  19.689  0.00  0.00    +0.000 C 
ENDBRANCH  27  29
ENDBRANCH   4  25
BRANCH   6  36
ATOM     36  O   UNL     1       0.595  10.263  22.773  0.00  0.00    +0.000 OA
ATOM     37  C   UNL     1      -0.691   9.839  23.181  0.00  0.00    +0.000 C 
ENDBRANCH   6  36
TORSDOF 9
ENDMDL
MODEL 5
REMARK VINA RESULT:      -7.2      2.791      3.786
REMARK  Name = 
REMARK  12 active torsions:
REMARK  status: ('A' for Active; 'I' for Inactive)
REMARK    1  A    between atoms: C_1  and  O_2
REMARK    2  A    between atoms: O_2  and  C_3
REMARK    3  A    between atoms: C_3  and  C_5
REMARK    4  A    between atoms: C_5  and  O_6
REMARK    5  A    between atoms: O_6  and  C_7
REMARK    6  A    between atoms: N_10  and  C_11
REMARK    7  A    between atoms: C_14  and  C_15
REMARK    8  A    between atoms: N_17  and  C_18
REMARK    9  A    between atoms: N_21  and  C_22
REMARK   10  A    between atoms: C_26  and  O_27
REMARK   11  A    between atoms: O_27  and  C_28
REMARK   12  A    between atoms: C_31  and  C_32
REMARK                            x       y       z     vdW  Elec       q    Type
REMARK                         _______ _______ _______ _____ _____    ______ ____
ROOT
ATOM      1  C   UNL     1      -0.154  10.870  21.739  0.00  0.00    +0.000 A 
ATOM      2  C   UNL     1      -0.416   9.607  22.302  0.00  0.00    +0.000 A 
ATOM      3  C   UNL     1       0.221   8.453  21.863  0.00  0.00    +0.000 A 
ATOM      4  C   UNL     1       1.149   8.500  20.824  0.00  0.00    +0.000 A 
ATOM      5  C   UNL     1       1.478   9.749  20.295  0.00  0.00    +0.000 A 
ATOM      6  C   UNL     1       0.876  10.939  20.773  0.00  0.00    +0.000 A 
ENDROOT
BRANCH   1  10
ATOM      7  C   UNL     1      -3.733  12.358  20.006  0.00  0.00    +0.000 A 
ATOM      8  N   UNL     1      -2.447  12.233  20.411  0.00  0.00    +0.000 NA
ATOM      9  C   UNL     1      -2.167  12.367  21.720  0.00  0.00    +0.000 A 
ATOM     10  N   UNL     1      -0.920  11.945  22.237  0.00  0.00    +0.000 N 
ATOM     11  N   UNL     1      -3.093  12.719  22.615  0.00  0.00    +0.000 NA
ATOM     12  C   UNL     1      -4.375  12.745  22.191  0.00  0.00    +0.000 A 
ATOM     13  C   UNL     1      -4.767  12.547  20.894  0.00  0.00    +0.000 A 
ATOM     14  H   UNL     1      -0.435  12.709  22.657  0.00  0.00    +0.000 HD
BRANCH  13  15
ATOM     15  C   UNL     1      -6.226  12.487  20.600  0.00  0.00    +0.000 C 
ATOM     16  F   UNL     1      -6.763  11.270  20.331  0.00  0.00    +0.000 F 
ATOM     17  F   UNL     1      -6.983  12.869  21.658  0.00  0.00    +0.000 F 
ATOM     18  F   UNL     1      -6.592  13.255  19.541  0.00  0.00    +0.000 F 
ENDBRANCH  13  15
BRANCH   7  19
ATOM     19  O   UNL     1      -3.910  12.148  18.664  0.00  0.00    +0.000 OA
BRANCH  19  20
ATOM     20  C   UNL     1      -2.742  11.722  17.961  0.00  0.00    +0.000 C 
BRANCH  20  21
ATOM     21  C   UNL     1      -3.007  10.623  16.958  0.00  0.00    +0.000 C 
ATOM     22  O   UNL     1      -3.429   9.546  17.259  0.00  0.00    +0.000 OA
BRANCH  21  24
ATOM     23  C   UNL     1      -3.086  10.149  14.695  0.00  0.00    +0.000 C 
ATOM     24  O   UNL     1      -2.668  11.056  15.715  0.00  0.00    +0.000 OA
ENDBRANCH  21  24
ENDBRANCH  20  21
ENDBRANCH  19  20
ENDBRANCH   7  19
ENDBRANCH   1  10
BRANCH   4  25
ATOM     25  C   UNL     1       1.694   7.194  20.336  0.00  0.00    +0.000 C 
ATOM     26  O   UNL     1       1.427   6.186  20.985  0.00  0.00    +0.000 OA
ATOM     27  N   UNL     1       2.446   7.159  19.168  0.00  0.00    +0.000 N 
ATOM     28  H   UNL     1       2.806   8.021  18.790  0.00  0.00    +0.000 HD
BRANCH  27  29
ATOM     29  C   UNL     1       2.987   5.906  18.605  0.00  0.00    +0.000 C 
ATOM     30  C   UNL     1       1.872   5.026  18.026  0.00  0.00    +0.000 C 
ATOM     31  C   UNL     1       2.408   3.674  17.534  0.00  0.00    +0.000 C 
ATOM     32  N   UNL     1       3.128   2.954  18.596  0.00  0.00    +0.000 NA
ATOM     33  C   UNL     1       3.641   1.669  18.113  0.00  0.00    +0.000 C 
ATOM     34  C   UNL     1       4.245   3.752  19.101  0.00  0.00    +0.000 C 
ATOM     35  C   UNL     1       3.773   5.094  19.648  0.00  0.00    +0.000 C 
ENDBRANCH  27  29
ENDBRANCH   4  25
BRANCH   6  36
ATOM     36  O   UNL     1       1.416  12.020  20.124  0.00  0.00    +0.000 OA
ATOM     37  C   UNL     1       1.628  11.979  18.727  0.00  0.00    +0.000 C 
ENDBRANCH   6  36
TORSDOF 9
ENDMDL
MODEL 6
REMARK VINA RESULT:      -7.1      2.821      3.731
REMARK  Name = 
REMARK  12 active torsions:
REMARK  status: ('A' for Active; 'I' for Inactive)
REMARK    1  A    between atoms: C_1  and  O_2
REMARK    2  A    between atoms: O_2  and  C_3
REMARK    3  A    between atoms: C_3  and  C_5
REMARK    4  A    between atoms: C_5  and  O_6
REMARK    5  A    between atoms: O_6  and  C_7
REMARK    6  A    between atoms: N_10  and  C_11
REMARK    7  A    between atoms: C_14  and  C_15
REMARK    8  A    between atoms: N_17  and  C_18
REMARK    9  A    between atoms: N_21  and  C_22
REMARK   10  A    between atoms: C_26  and  O_27
REMARK   11  A    between atoms: O_27  and  C_28
REMARK   12  A    between atoms: C_31  and  C_32
REMARK                            x       y       z     vdW  Elec       q    Type
REMARK                         _______ _______ _______ _____ _____    ______ ____
ROOT
ATOM      1  C   UNL     1       0.039  11.290  20.812  0.00  0.00    +0.000 A 
ATOM      2  C   UNL     1       0.057  10.199  21.699  0.00  0.00    +0.000 A 
ATOM      3  C   UNL     1       0.657   8.988  21.374  0.00  0.00    +0.000 A 
ATOM      4  C   UNL     1       1.262   8.801  20.132  0.00  0.00    +0.000 A 
ATOM      5  C   UNL     1       1.317   9.890  19.260  0.00  0.00    +0.000 A 
ATOM      6  C   UNL     1       0.758  11.144  19.603  0.00  0.00    +0.000 A 
ENDROOT
BRANCH   1  10
ATOM      7  C   UNL     1      -4.016  12.186  19.924  0.00  0.00    +0.000 A 
ATOM      8  N   UNL     1      -2.662  12.204  19.945  0.00  0.00    +0.000 NA
ATOM      9  C   UNL     1      -2.040  12.676  21.040  0.00  0.00    +0.000 A 
ATOM     10  N   UNL     1      -0.662  12.435  21.247  0.00  0.00    +0.000 N 
ATOM     11  N   UNL     1      -2.708  13.219  22.062  0.00  0.00    +0.000 NA
ATOM     12  C   UNL     1      -4.054  13.100  22.045  0.00  0.00    +0.000 A 
ATOM     13  C   UNL     1      -4.772  12.567  21.009  0.00  0.00    +0.000 A 
ATOM     14  H   UNL     1      -0.159  13.294  21.310  0.00  0.00    +0.000 HD
BRANCH  13  15
ATOM     15  C   UNL     1      -6.240  12.393  21.186  0.00  0.00    +0.000 C 
ATOM     16  F   UNL     1      -7.060  13.044  20.322  0.00  0.00    +0.000 F 
ATOM     17  F   UNL     1      -6.636  11.110  20.992  0.00  0.00    +0.000 F 
ATOM     18  F   UNL     1      -6.682  12.771  22.414  0.00  0.00    +0.000 F 
ENDBRANCH  13  15
BRANCH   7  19
ATOM     19  O   UNL     1      -4.541  11.635  18.785  0.00  0.00    +0.000 OA
BRANCH  19  20
ATOM     20  C   UNL     1      -3.726  11.769  17.620  0.00  0.00    +0.000 C 
BRANCH  20  21
ATOM     21  C   UNL     1      -3.560  10.481  16.847  0.00  0.00    +0.000 C 
ATOM     22  O   UNL     1      -3.089   9.488  17.318  0.00  0.00    +0.000 OA
BRANCH  21  24
ATOM     23  C   UNL     1      -3.085  10.139  14.608  0.00  0.00    +0.000 C 
ATOM     24  O   UNL     1      -3.999  10.659  15.574  0.00  0.00    +0.000 OA
ENDBRANCH  21  24
ENDBRANCH  20  21
ENDBRANCH  19  20
ENDBRANCH   7  19
ENDBRANCH   1  10
BRANCH   4  25
ATOM     25  C   UNL     1       1.774   7.429  19.822  0.00  0.00    +0.000 C 
ATOM     26  O   UNL     1       2.182   7.216  18.683  0.00  0.00    +0.000 OA
ATOM     27  N   UNL     1       1.799   6.466  20.822  0.00  0.00    +0.000 N 
ATOM     28  H   UNL     1       1.273   6.621  21.667  0.00  0.00    +0.000 HD
BRANCH  27  29
ATOM     29  C   UNL     1       2.322   5.103  20.603  0.00  0.00    +0.000 C 
ATOM     30  C   UNL     1       3.567   5.118  19.708  0.00  0.00    +0.000 C 
ATOM     31  C   UNL     1       4.058   3.699  19.386  0.00  0.00    +0.000 C 
ATOM     32  N   UNL     1       2.998   2.882  18.774  0.00  0.00    +0.000 NA
ATOM     33  C   UNL     1       3.476   1.529  18.477  0.00  0.00    +0.000 C 
ATOM     34  C   UNL     1       1.835   2.794  19.655  0.00  0.00    +0.000 C 
ATOM     35  C   UNL     1       1.270   4.172  19.978  0.00  0.00    +0.000 C 
ENDBRANCH  27  29
ENDBRANCH   4  25
BRANCH   6  36
ATOM     36  O   UNL     1       0.999  12.046  18.598  0.00  0.00    +0.000 OA
ATOM     37  C   UNL     1       2.208  12.777  18.572  0.00  0.00    +0.000 C 
ENDBRANCH   6  36
TORSDOF 9
ENDMDL
MODEL 7
REMARK VINA RESULT:      -7.1      2.294      3.140
REMARK  Name = 
REMARK  12 active torsions:
REMARK  status: ('A' for Active; 'I' for Inactive)
REMARK    1  A    between atoms: C_1  and  O_2
REMARK    2  A    between atoms: O_2  and  C_3
REMARK    3  A    between atoms: C_3  and  C_5
REMARK    4  A    between atoms: C_5  and  O_6
REMARK    5  A    between atoms: O_6  and  C_7
REMARK    6  A    between atoms: N_10  and  C_11
REMARK    7  A    between atoms: C_14  and  C_15
REMARK    8  A    between atoms: N_17  and  C_18
REMARK    9  A    between atoms: N_21  and  C_22
REMARK   10  A    between atoms: C_26  and  O_27
REMARK   11  A    between atoms: O_27  and  C_28
REMARK   12  A    between atoms: C_31  and  C_32
REMARK                            x       y       z     vdW  Elec       q    Type
REMARK                         _______ _______ _______ _____ _____    ______ ____
ROOT
ATOM      1  C   UNL     1      -0.410  11.175  22.289  0.00  0.00    +0.000 A 
ATOM      2  C   UNL     1      -0.430   9.827  22.690  0.00  0.00    +0.000 A 
ATOM      3  C   UNL     1       0.214   8.829  21.967  0.00  0.00    +0.000 A 
ATOM      4  C   UNL     1       0.904   9.129  20.793  0.00  0.00    +0.000 A 
ATOM      5  C   UNL     1       0.995  10.468  20.411  0.00  0.00    +0.000 A 
ATOM      6  C   UNL     1       0.390  11.499  21.170  0.00  0.00    +0.000 A 
ENDROOT
BRANCH   1  10
ATOM      7  C   UNL     1      -4.114  12.935  21.184  0.00  0.00    +0.000 A 
ATOM      8  N   UNL     1      -2.803  12.754  21.472  0.00  0.00    +0.000 NA
ATOM      9  C   UNL     1      -2.443  12.570  22.755  0.00  0.00    +0.000 A 
ATOM     10  N   UNL     1      -1.161  12.071  23.080  0.00  0.00    +0.000 N 
ATOM     11  N   UNL     1      -3.318  12.661  23.761  0.00  0.00    +0.000 NA
ATOM     12  C   UNL     1      -4.624  12.753  23.430  0.00  0.00    +0.000 A 
ATOM     13  C   UNL     1      -5.093  12.869  22.149  0.00  0.00    +0.000 A 
ATOM     14  H   UNL     1      -0.662  12.722  23.648  0.00  0.00    +0.000 HD
BRANCH  13  15
ATOM     15  C   UNL     1      -6.566  12.838  21.932  0.00  0.00    +0.000 C 
ATOM     16  F   UNL     1      -7.073  11.815  21.199  0.00  0.00    +0.000 F 
ATOM     17  F   UNL     1      -7.256  12.686  23.089  0.00  0.00    +0.000 F 
ATOM     18  F   UNL     1      -7.042  13.954  21.321  0.00  0.00    +0.000 F 
ENDBRANCH  13  15
BRANCH   7  19
ATOM     19  O   UNL     1      -4.370  13.058  19.844  0.00  0.00    +0.000 OA
BRANCH  19  20
ATOM     20  C   UNL     1      -4.090  11.893  19.068  0.00  0.00    +0.000 C 
BRANCH  20  21
ATOM     21  C   UNL     1      -4.977  11.748  17.853  0.00  0.00    +0.000 C 
ATOM     22  O   UNL     1      -4.565  11.459  16.768  0.00  0.00    +0.000 OA
BRANCH  21  24
ATOM     23  C   UNL     1      -6.909  12.874  17.258  0.00  0.00    +0.000 C 
ATOM     24  O   UNL     1      -6.263  12.016  18.199  0.00  0.00    +0.000 OA
ENDBRANCH  21  24
ENDBRANCH  20  21
ENDBRANCH  19  20
ENDBRANCH   7  19
ENDBRANCH   1  10
BRANCH   4  25
ATOM     25  C   UNL     1       1.462   7.977  20.017  0.00  0.00    +0.000 C 
ATOM     26  O   UNL     1       1.845   8.193  18.871  0.00  0.00    +0.000 OA
ATOM     27  N   UNL     1       1.555   6.728  20.618  0.00  0.00    +0.000 N 
ATOM     28  H   UNL     1       1.048   6.554  21.471  0.00  0.00    +0.000 HD
BRANCH  27  29
ATOM     29  C   UNL     1       2.126   5.553  19.930  0.00  0.00    +0.000 C 
ATOM     30  C   UNL     1       1.614   4.243  20.542  0.00  0.00    +0.000 C 
ATOM     31  C   UNL     1       2.282   3.015  19.906  0.00  0.00    +0.000 C 
ATOM     32  N   UNL     1       3.748   3.083  19.998  0.00  0.00    +0.000 NA
ATOM     33  C   UNL     1       4.374   1.910  19.383  0.00  0.00    +0.000 C 
ATOM     34  C   UNL     1       4.255   4.290  19.346  0.00  0.00    +0.000 C 
ATOM     35  C   UNL     1       3.663   5.552  19.963  0.00  0.00    +0.000 C 
ENDBRANCH  27  29
ENDBRANCH   4  25
BRANCH   6  36
ATOM     36  O   UNL     1       0.680  12.716  20.606  0.00  0.00    +0.000 OA
ATOM     37  C   UNL     1       1.251  12.784  19.315  0.00  0.00    +0.000 C 
ENDBRANCH   6  36
TORSDOF 9
ENDMDL
MODEL 8
REMARK VINA RESULT:      -7.0      2.576      3.095
REMARK  Name = 
REMARK  12 active torsions:
REMARK  status: ('A' for Active; 'I' for Inactive)
REMARK    1  A    between atoms: C_1  and  O_2
REMARK    2  A    between atoms: O_2  and  C_3
REMARK    3  A    between atoms: C_3  and  C_5
REMARK    4  A    between atoms: C_5  and  O_6
REMARK    5  A    between atoms: O_6  and  C_7
REMARK    6  A    between atoms: N_10  and  C_11
REMARK    7  A    between atoms: C_14  and  C_15
REMARK    8  A    between atoms: N_17  and  C_18
REMARK    9  A    between atoms: N_21  and  C_22
REMARK   10  A    between atoms: C_26  and  O_27
REMARK   11  A    between atoms: O_27  and  C_28
REMARK   12  A    between atoms: C_31  and  C_32
REMARK                            x       y       z     vdW  Elec       q    Type
REMARK                         _______ _______ _______ _____ _____    ______ ____
ROOT
ATOM      1  C   UNL     1      -0.144  11.356  20.848  0.00  0.00    +0.000 A 
ATOM      2  C   UNL     1       0.392  11.709  19.596  0.00  0.00    +0.000 A 
ATOM      3  C   UNL     1       1.044  10.790  18.782  0.00  0.00    +0.000 A 
ATOM      4  C   UNL     1       1.205   9.465  19.187  0.00  0.00    +0.000 A 
ATOM      5  C   UNL     1       0.623   9.074  20.394  0.00  0.00    +0.000 A 
ATOM      6  C   UNL     1      -0.091   9.989  21.204  0.00  0.00    +0.000 A 
ENDROOT
BRANCH   1  10
ATOM      7  C   UNL     1      -4.175  12.662  20.566  0.00  0.00    +0.000 A 
ATOM      8  N   UNL     1      -2.826  12.599  20.466  0.00  0.00    +0.000 NA
ATOM      9  C   UNL     1      -2.088  12.764  21.579  0.00  0.00    +0.000 A 
ATOM     10  N   UNL     1      -0.720  12.404  21.597  0.00  0.00    +0.000 N 
ATOM     11  N   UNL     1      -2.632  13.088  22.754  0.00  0.00    +0.000 NA
ATOM     12  C   UNL     1      -3.980  13.052  22.834  0.00  0.00    +0.000 A 
ATOM     13  C   UNL     1      -4.814  12.819  21.775  0.00  0.00    +0.000 A 
ATOM     14  H   UNL     1      -0.150  13.194  21.809  0.00  0.00    +0.000 HD
BRANCH  13  15
ATOM     15  C   UNL     1      -6.274  12.691  22.041  0.00  0.00    +0.000 C 
ATOM     16  F   UNL     1      -6.670  12.576  23.333  0.00  0.00    +0.000 F 
ATOM     17  F   UNL     1      -6.968  13.792  21.661  0.00  0.00    +0.000 F 
ATOM     18  F   UNL     1      -6.841  11.622  21.422  0.00  0.00    +0.000 F 
ENDBRANCH  13  15
BRANCH   7  19
ATOM     19  O   UNL     1      -4.825  12.426  19.384  0.00  0.00    +0.000 OA
BRANCH  19  20
ATOM     20  C   UNL     1      -4.051  11.749  18.394  0.00  0.00    +0.000 C 
BRANCH  20  21
ATOM     21  C   UNL     1      -4.722  11.681  17.042  0.00  0.00    +0.000 C 
ATOM     22  O   UNL     1      -5.572  12.445  16.691  0.00  0.00    +0.000 OA
BRANCH  21  24
ATOM     23  C   UNL     1      -3.006  10.951  15.672  0.00  0.00    +0.000 C 
ATOM     24  O   UNL     1      -4.224  10.628  16.343  0.00  0.00    +0.000 OA
ENDBRANCH  21  24
ENDBRANCH  20  21
ENDBRANCH  19  20
ENDBRANCH   7  19
ENDBRANCH   1  10
BRANCH   4  25
ATOM     25  C   UNL     1       2.024   8.577  18.303  0.00  0.00    +0.000 C 
ATOM     26  O   UNL     1       2.204   8.935  17.142  0.00  0.00    +0.000 OA
ATOM     27  N   UNL     1       2.570   7.410  18.823  0.00  0.00    +0.000 N 
ATOM     28  H   UNL     1       2.231   7.059  19.704  0.00  0.00    +0.000 HD
BRANCH  27  29
ATOM     29  C   UNL     1       3.417   6.502  18.025  0.00  0.00    +0.000 C 
ATOM     30  C   UNL     1       3.990   5.369  18.886  0.00  0.00    +0.000 C 
ATOM     31  C   UNL     1       4.957   4.479  18.092  0.00  0.00    +0.000 C 
ATOM     32  N   UNL     1       6.046   5.262  17.488  0.00  0.00    +0.000 NA
ATOM     33  C   UNL     1       6.958   4.403  16.728  0.00  0.00    +0.000 C 
ATOM     34  C   UNL     1       5.513   6.295  16.600  0.00  0.00    +0.000 C 
ATOM     35  C   UNL     1       4.577   7.243  17.339  0.00  0.00    +0.000 C 
ENDBRANCH  27  29
ENDBRANCH   4  25
BRANCH   6  36
ATOM     36  O   UNL     1      -0.602   9.334  22.296  0.00  0.00    +0.000 OA
ATOM     37  C   UNL     1       0.022   9.461  23.559  0.00  0.00    +0.000 C 
ENDBRANCH   6  36
TORSDOF 9
ENDMDL
MODEL 9
REMARK VINA RESULT:      -7.0      2.110      2.580
REMARK  Name = 
REMARK  12 active torsions:
REMARK  status: ('A' for Active; 'I' for Inactive)
REMARK    1  A    between atoms: C_1  and  O_2
REMARK    2  A    between atoms: O_2  and  C_3
REMARK    3  A    between atoms: C_3  and  C_5
REMARK    4  A    between atoms: C_5  and  O_6
REMARK    5  A    between atoms: O_6  and  C_7
REMARK    6  A    between atoms: N_10  and  C_11
REMARK    7  A    between atoms: C_14  and  C_15
REMARK    8  A    between atoms: N_17  and  C_18
REMARK    9  A    between atoms: N_21  and  C_22
REMARK   10  A    between atoms: C_26  and  O_27
REMARK   11  A    between atoms: O_27  and  C_28
REMARK   12  A    between atoms: C_31  and  C_32
REMARK                            x       y       z     vdW  Elec       q    Type
REMARK                         _______ _______ _______ _____ _____    ______ ____
ROOT
ATOM      1  C   UNL     1       0.412  11.614  20.211  0.00  0.00    +0.000 A 
ATOM      2  C   UNL     1       1.152  11.595  19.015  0.00  0.00    +0.000 A 
ATOM      3  C   UNL     1       1.676  10.422  18.485  0.00  0.00    +0.000 A 
ATOM      4  C   UNL     1       1.495   9.201  19.135  0.00  0.00    +0.000 A 
ATOM      5  C   UNL     1       0.706   9.183  20.286  0.00  0.00    +0.000 A 
ATOM      6  C   UNL     1       0.122  10.364  20.805  0.00  0.00    +0.000 A 
ENDROOT
BRANCH   1  10
ATOM      7  C   UNL     1      -3.600  12.998  20.344  0.00  0.00    +0.000 A 
ATOM      8  N   UNL     1      -2.303  12.823  19.995  0.00  0.00    +0.000 NA
ATOM      9  C   UNL     1      -1.346  13.300  20.811  0.00  0.00    +0.000 A 
ATOM     10  N   UNL     1      -0.002  12.883  20.667  0.00  0.00    +0.000 N 
ATOM     11  N   UNL     1      -1.630  14.026  21.896  0.00  0.00    +0.000 NA
ATOM     12  C   UNL     1      -2.929  14.101  22.259  0.00  0.00    +0.000 A 
ATOM     13  C   UNL     1      -3.967  13.583  21.534  0.00  0.00    +0.000 A 
ATOM     14  H   UNL     1       0.591  13.663  20.481  0.00  0.00    +0.000 HD
BRANCH  13  15
ATOM     15  C   UNL     1      -5.335  13.639  22.122  0.00  0.00    +0.000 C 
ATOM     16  F   UNL     1      -6.011  12.470  22.255  0.00  0.00    +0.000 F 
ATOM     17  F   UNL     1      -5.328  14.075  23.406  0.00  0.00    +0.000 F 
ATOM     18  F   UNL     1      -6.186  14.439  21.428  0.00  0.00    +0.000 F 
ENDBRANCH  13  15
BRANCH   7  19
ATOM     19  O   UNL     1      -4.486  12.426  19.470  0.00  0.00    +0.000 OA
BRANCH  19  20
ATOM     20  C   UNL     1      -3.932  11.421  18.621  0.00  0.00    +0.000 C 
BRANCH  20  21
ATOM     21  C   UNL     1      -4.220  11.642  17.153  0.00  0.00    +0.000 C 
ATOM     22  O   UNL     1      -5.281  12.005  16.739  0.00  0.00    +0.000 OA
BRANCH  21  24
ATOM     23  C   UNL     1      -2.945   9.936  16.249  0.00  0.00    +0.000 C 
ATOM     24  O   UNL     1      -3.112  11.343  16.426  0.00  0.00    +0.000 OA
ENDBRANCH  21  24
ENDBRANCH  20  21
ENDBRANCH  19  20
ENDBRANCH   7  19
ENDBRANCH   1  10
BRANCH   4  25
ATOM     25  C   UNL     1       2.195   8.011  18.557  0.00  0.00    +0.000 C 
ATOM     26  O   UNL     1       2.792   8.159  17.494  0.00  0.00    +0.000 OA
ATOM     27  N   UNL     1       2.173   6.804  19.245  0.00  0.00    +0.000 N 
ATOM     28  H   UNL     1       1.512   6.677  19.994  0.00  0.00    +0.000 HD
BRANCH  27  29
ATOM     29  C   UNL     1       2.869   5.596  18.758  0.00  0.00    +0.000 C 
ATOM     30  C   UNL     1       1.931   4.704  17.935  0.00  0.00    +0.000 C 
ATOM     31  C   UNL     1       2.612   3.395  17.512  0.00  0.00    +0.000 C 
ATOM     32  N   UNL     1       3.135   2.654  18.671  0.00  0.00    +0.000 NA
ATOM     33  C   UNL     1       3.788   1.410  18.255  0.00  0.00    +0.000 C 
ATOM     34  C   UNL     1       4.093   3.467  19.418  0.00  0.00    +0.000 C 
ATOM     35  C   UNL     1       3.465   4.767  19.907  0.00  0.00    +0.000 C 
ENDBRANCH  27  29
ENDBRANCH   4  25
BRANCH   6  36
ATOM     36  O   UNL     1      -0.642  10.056  21.902  0.00  0.00    +0.000 OA
ATOM     37  C   UNL     1      -0.028   9.609  23.094  0.00  0.00    +0.000 C 
ENDBRANCH   6  36
TORSDOF 9
ENDMDL
