MODEL 1
REMARK VINA RESULT:      -7.4      0.000      0.000
REMARK  Name = 
REMARK  4 active torsions:
REMARK  status: ('A' for Active; 'I' for Inactive)
REMARK    1  A    between atoms: C_1  and  O_2
REMARK    2  A    between atoms: O_2  and  C_3
REMARK    3  A    between atoms: C_6  and  N_7
REMARK    4  A    between atoms: C_8  and  C_9
REMARK                            x       y       z     vdW  Elec       q    Type
REMARK                         _______ _______ _______ _____ _____    ______ ____
ROOT
ATOM      1  N   UNL     1       0.476  11.872  20.482  0.00  0.00    +0.000 N 
ATOM      2  C   UNL     1      -0.070  10.833  19.714  0.00  0.00    +0.000 A 
ATOM      3  C   UNL     1      -1.362  11.281  19.522  0.00  0.00    +0.000 A 
ATOM      4  N   UNL     1      -1.585  12.215  20.571  0.00  0.00    +0.000 N 
ATOM      5  C   UNL     1      -0.513  12.057  21.376  0.00  0.00    +0.000 A 
ATOM      6  C   UNL     1      -0.698  11.445  22.736  0.00  0.00    +0.000 C 
ATOM      7  C   UNL     1      -2.120  11.580  23.297  0.00  0.00    +0.000 C 
ATOM      8  C   UNL     1      -3.061  12.421  22.470  0.00  0.00    +0.000 A 
ATOM      9  C   UNL     1      -4.256  12.891  23.028  0.00  0.00    +0.000 A 
ATOM     10  C   UNL     1      -5.104  13.714  22.281  0.00  0.00    +0.000 A 
ATOM     11  C   UNL     1      -4.778  14.060  20.963  0.00  0.00    +0.000 A 
ATOM     12  C   UNL     1      -3.631  13.537  20.361  0.00  0.00    +0.000 A 
ATOM     13  C   UNL     1      -2.818  12.716  21.123  0.00  0.00    +0.000 A 
ENDROOT
BRANCH   2  14
ATOM     14  C   UNL     1       0.734   9.654  19.300  0.00  0.00    +0.000 A 
ATOM     15  C   UNL     1       1.096   8.756  20.324  0.00  0.00    +0.000 A 
ATOM     16  C   UNL     1       1.953   7.697  20.074  0.00  0.00    +0.000 A 
ATOM     17  C   UNL     1       2.467   7.541  18.786  0.00  0.00    +0.000 A 
ATOM     18 CL   UNL     1       3.603   6.291  18.484  0.00  0.00    +0.000 Cl
ATOM     19  C   UNL     1       2.070   8.401  17.761  0.00  0.00    +0.000 A 
ATOM     20  C   UNL     1       1.190   9.462  18.006  0.00  0.00    +0.000 A 
ENDBRANCH   2  14
BRANCH   1  24
ATOM     21  C   UNL     1       3.477  14.535  19.022  0.00  0.00    +0.000 A 
ATOM     22  C   UNL     1       3.367  14.281  20.386  0.00  0.00    +0.000 A 
ATOM     23  C   UNL     1       2.372  13.423  20.850  0.00  0.00    +0.000 A 
ATOM     24  C   UNL     1       1.466  12.836  19.955  0.00  0.00    +0.000 A 
ATOM     25  C   UNL     1       1.554  13.107  18.595  0.00  0.00    +0.000 A 
ATOM     26  C   UNL     1       2.568  13.957  18.136  0.00  0.00    +0.000 A 
BRANCH  21  28
ATOM     27  C   UNL     1       5.493  14.806  17.854  0.00  0.00    +0.000 C 
ATOM     28  O   UNL     1       4.475  15.397  18.659  0.00  0.00    +0.000 OA
ENDBRANCH  21  28
ENDBRANCH   1  24
TORSDOF 3
ENDMDL
MODEL 2
REMARK VINA RESULT:      -7.3      2.941      4.639
REMARK  Name = 
REMARK  4 active torsions:
REMARK  status: ('A' for Active; 'I' for Inactive)
REMARK    1  A    between atoms: C_1  and  O_2
REMARK    2  A    between atoms: O_2  and  C_3
REMARK    3  A    between atoms: C_6  and  N_7
REMARK    4  A    between atoms: C_8  and  C_9
REMARK                            x       y       z     vdW  Elec       q    Type
REMARK                         _______ _______ _______ _____ _____    ______ ____
ROOT
ATOM      1  N   UNL     1      -0.628  11.227  19.583  0.00  0.00    +0.000 N 
ATOM      2  C   UNL     1      -0.055  10.227  20.382  0.00  0.00    +0.000 A 
ATOM      3  C   UNL     1      -0.711  10.421  21.581  0.00  0.00    +0.000 A 
ATOM      4  N   UNL     1      -1.184  11.761  21.526  0.00  0.00    +0.000 N 
ATOM      5  C   UNL     1      -0.582  12.271  20.430  0.00  0.00    +0.000 A 
ATOM      6  C   UNL     1       0.480  13.320  20.595  0.00  0.00    +0.000 C 
ATOM      7  C   UNL     1       0.385  14.109  21.907  0.00  0.00    +0.000 C 
ATOM      8  C   UNL     1      -0.830  13.812  22.751  0.00  0.00    +0.000 A 
ATOM      9  C   UNL     1      -1.201  14.685  23.780  0.00  0.00    +0.000 A 
ATOM     10  C   UNL     1      -2.356  14.439  24.529  0.00  0.00    +0.000 A 
ATOM     11  C   UNL     1      -3.141  13.308  24.271  0.00  0.00    +0.000 A 
ATOM     12  C   UNL     1      -2.745  12.381  23.303  0.00  0.00    +0.000 A 
ATOM     13  C   UNL     1      -1.590  12.647  22.587  0.00  0.00    +0.000 A 
ENDROOT
BRANCH   2  14
ATOM     14  C   UNL     1       0.966   9.285  19.853  0.00  0.00    +0.000 A 
ATOM     15  C   UNL     1       1.489   9.585  18.578  0.00  0.00    +0.000 A 
ATOM     16  C   UNL     1       2.345   8.708  17.935  0.00  0.00    +0.000 A 
ATOM     17  C   UNL     1       2.673   7.507  18.566  0.00  0.00    +0.000 A 
ATOM     18 CL   UNL     1       3.656   6.368  17.741  0.00  0.00    +0.000 Cl
ATOM     19  C   UNL     1       2.195   7.233  19.848  0.00  0.00    +0.000 A 
ATOM     20  C   UNL     1       1.343   8.126  20.510  0.00  0.00    +0.000 A 
ENDBRANCH   2  14
BRANCH   1  24
ATOM     21  C   UNL     1      -3.349  10.588  16.353  0.00  0.00    +0.000 A 
ATOM     22  C   UNL     1      -3.653  11.503  17.358  0.00  0.00    +0.000 A 
ATOM     23  C   UNL     1      -2.763  11.689  18.414  0.00  0.00    +0.000 A 
ATOM     24  C   UNL     1      -1.580  10.942  18.486  0.00  0.00    +0.000 A 
ATOM     25  C   UNL     1      -1.282  10.007  17.500  0.00  0.00    +0.000 A 
ATOM     26  C   UNL     1      -2.174   9.840  16.434  0.00  0.00    +0.000 A 
BRANCH  21  28
ATOM     27  C   UNL     1      -3.755  10.025  14.114  0.00  0.00    +0.000 C 
ATOM     28  O   UNL     1      -4.283  10.464  15.363  0.00  0.00    +0.000 OA
ENDBRANCH  21  28
ENDBRANCH   1  24
TORSDOF 3
ENDMDL
MODEL 3
REMARK VINA RESULT:      -7.3      2.985      5.456
REMARK  Name = 
REMARK  4 active torsions:
REMARK  status: ('A' for Active; 'I' for Inactive)
REMARK    1  A    between atoms: C_1  and  O_2
REMARK    2  A    between atoms: O_2  and  C_3
REMARK    3  A    between atoms: C_6  and  N_7
REMARK    4  A    between atoms: C_8  and  C_9
REMARK                            x       y       z     vdW  Elec       q    Type
REMARK                         _______ _______ _______ _____ _____    ______ ____
ROOT
ATOM      1  N   UNL     1       0.259  11.418  18.808  0.00  0.00    +0.000 N 
ATOM      2  C   UNL     1       0.993  10.629  19.704  0.00  0.00    +0.000 A 
ATOM      3  C   UNL     1       1.101  11.474  20.792  0.00  0.00    +0.000 A 
ATOM      4  N   UNL     1       0.895  12.778  20.262  0.00  0.00    +0.000 N 
ATOM      5  C   UNL     1       0.910  12.589  18.926  0.00  0.00    +0.000 A 
ATOM      6  C   UNL     1       2.057  13.130  18.120  0.00  0.00    +0.000 C 
ATOM      7  C   UNL     1       2.790  14.305  18.780  0.00  0.00    +0.000 C 
ATOM      8  C   UNL     1       2.164  14.821  20.052  0.00  0.00    +0.000 A 
ATOM      9  C   UNL     1       2.533  16.073  20.557  0.00  0.00    +0.000 A 
ATOM     10  C   UNL     1       1.916  16.576  21.707  0.00  0.00    +0.000 A 
ATOM     11  C   UNL     1       0.941  15.826  22.375  0.00  0.00    +0.000 A 
ATOM     12  C   UNL     1       0.616  14.541  21.934  0.00  0.00    +0.000 A 
ATOM     13  C   UNL     1       1.252  14.066  20.800  0.00  0.00    +0.000 A 
ENDROOT
BRANCH   2  14
ATOM     14  C   UNL     1       1.419   9.245  19.370  0.00  0.00    +0.000 A 
ATOM     15  C   UNL     1       1.432   8.323  20.437  0.00  0.00    +0.000 A 
ATOM     16  C   UNL     1       1.936   7.044  20.268  0.00  0.00    +0.000 A 
ATOM     17  C   UNL     1       2.447   6.685  19.020  0.00  0.00    +0.000 A 
ATOM     18 CL   UNL     1       3.160   5.137  18.822  0.00  0.00    +0.000 Cl
ATOM     19  C   UNL     1       2.389   7.581  17.952  0.00  0.00    +0.000 A 
ATOM     20  C   UNL     1       1.864   8.869  18.114  0.00  0.00    +0.000 A 
ENDBRANCH   2  14
BRANCH   1  24
ATOM     21  C   UNL     1      -3.835  10.834  17.743  0.00  0.00    +0.000 A 
ATOM     22  C   UNL     1      -3.482  11.814  18.666  0.00  0.00    +0.000 A 
ATOM     23  C   UNL     1      -2.144  11.982  19.017  0.00  0.00    +0.000 A 
ATOM     24  C   UNL     1      -1.157  11.154  18.467  0.00  0.00    +0.000 A 
ATOM     25  C   UNL     1      -1.505  10.155  17.564  0.00  0.00    +0.000 A 
ATOM     26  C   UNL     1      -2.850  10.006  17.205  0.00  0.00    +0.000 A 
BRANCH  21  28
ATOM     27  C   UNL     1      -5.857  11.983  17.441  0.00  0.00    +0.000 C 
ATOM     28  O   UNL     1      -5.171  10.734  17.467  0.00  0.00    +0.000 OA
ENDBRANCH  21  28
ENDBRANCH   1  24
TORSDOF 3
ENDMDL
MODEL 4
REMARK VINA RESULT:      -7.2      3.842      7.385
REMARK  Name = 
REMARK  4 active torsions:
REMARK  status: ('A' for Active; 'I' for Inactive)
REMARK    1  A    between atoms: C_1  and  O_2
REMARK    2  A    between atoms: O_2  and  C_3
REMARK    3  A    between atoms: C_6  and  N_7
REMARK    4  A    between atoms: C_8  and  C_9
REMARK                            x       y       z     vdW  Elec       q    Type
REMARK                         _______ _______ _______ _____ _____    ______ ____
ROOT
ATOM      1  N   UNL     1      -0.850  10.834  20.069  0.00  0.00    +0.000 N 
ATOM      2  C   UNL     1       0.166  11.754  20.365  0.00  0.00    +0.000 A 
ATOM      3  C   UNL     1       1.218  11.251  19.624  0.00  0.00    +0.000 A 
ATOM      4  N   UNL     1       0.890   9.885  19.405  0.00  0.00    +0.000 N 
ATOM      5  C   UNL     1      -0.177   9.678  20.206  0.00  0.00    +0.000 A 
ATOM      6  C   UNL     1      -0.031   8.794  21.412  0.00  0.00    +0.000 C 
ATOM      7  C   UNL     1       1.116   7.780  21.313  0.00  0.00    +0.000 C 
ATOM      8  C   UNL     1       1.819   7.731  19.979  0.00  0.00    +0.000 A 
ATOM      9  C   UNL     1       2.637   6.643  19.657  0.00  0.00    +0.000 A 
ATOM     10  C   UNL     1       3.248   6.570  18.401  0.00  0.00    +0.000 A 
ATOM     11  C   UNL     1       3.063   7.592  17.462  0.00  0.00    +0.000 A 
ATOM     12  C   UNL     1       2.315   8.725  17.792  0.00  0.00    +0.000 A 
ATOM     13  C   UNL     1       1.734   8.773  19.047  0.00  0.00    +0.000 A 
ENDROOT
BRANCH   2  14
ATOM     14  C   UNL     1      -0.063  12.922  21.255  0.00  0.00    +0.000 A 
ATOM     15  C   UNL     1      -0.768  12.666  22.448  0.00  0.00    +0.000 A 
ATOM     16  C   UNL     1      -1.152  13.701  23.285  0.00  0.00    +0.000 A 
ATOM     17  C   UNL     1      -0.839  15.011  22.919  0.00  0.00    +0.000 A 
ATOM     18 CL   UNL     1      -1.390  16.308  23.897  0.00  0.00    +0.000 Cl
ATOM     19  C   UNL     1      -0.099  15.260  21.762  0.00  0.00    +0.000 A 
ATOM     20  C   UNL     1       0.307  14.215  20.922  0.00  0.00    +0.000 A 
ENDBRANCH   2  14
BRANCH   1  24
ATOM     21  C   UNL     1      -4.260  11.579  17.608  0.00  0.00    +0.000 A 
ATOM     22  C   UNL     1      -3.271  10.693  17.189  0.00  0.00    +0.000 A 
ATOM     23  C   UNL     1      -2.156  10.473  17.995  0.00  0.00    +0.000 A 
ATOM     24  C   UNL     1      -2.011  11.157  19.210  0.00  0.00    +0.000 A 
ATOM     25  C   UNL     1      -2.981  12.063  19.621  0.00  0.00    +0.000 A 
ATOM     26  C   UNL     1      -4.107  12.264  18.813  0.00  0.00    +0.000 A 
BRANCH  21  28
ATOM     27  C   UNL     1      -6.309  12.648  17.213  0.00  0.00    +0.000 C 
ATOM     28  O   UNL     1      -5.312  11.741  16.750  0.00  0.00    +0.000 OA
ENDBRANCH  21  28
ENDBRANCH   1  24
TORSDOF 3
ENDMDL
MODEL 5
REMARK VINA RESULT:      -7.1      3.698      7.275
REMARK  Name = 
REMARK  4 active torsions:
REMARK  status: ('A' for Active; 'I' for Inactive)
REMARK    1  A    between atoms: C_1  and  O_2
REMARK    2  A    between atoms: O_2  and  C_3
REMARK    3  A    between atoms: C_6  and  N_7
REMARK    4  A    between atoms: C_8  and  C_9
REMARK                            x       y       z     vdW  Elec       q    Type
REMARK                         _______ _______ _______ _____ _____    ______ ____
ROOT
ATOM      1  N   UNL     1       0.048  10.475  19.143  0.00  0.00    +0.000 N 
ATOM      2  C   UNL     1       1.228  11.146  18.790  0.00  0.00    +0.000 A 
ATOM      3  C   UNL     1       1.978  10.120  18.248  0.00  0.00    +0.000 A 
ATOM      4  N   UNL     1       1.411   8.931  18.785  0.00  0.00    +0.000 N 
ATOM      5  C   UNL     1       0.560   9.379  19.732  0.00  0.00    +0.000 A 
ATOM      6  C   UNL     1       0.873   9.131  21.180  0.00  0.00    +0.000 C 
ATOM      7  C   UNL     1       1.800   7.934  21.426  0.00  0.00    +0.000 C 
ATOM      8  C   UNL     1       2.133   7.115  20.203  0.00  0.00    +0.000 A 
ATOM      9  C   UNL     1       2.679   5.834  20.344  0.00  0.00    +0.000 A 
ATOM     10  C   UNL     1       2.939   5.053  19.213  0.00  0.00    +0.000 A 
ATOM     11  C   UNL     1       2.675   5.550  17.931  0.00  0.00    +0.000 A 
ATOM     12  C   UNL     1       2.205   6.855  17.765  0.00  0.00    +0.000 A 
ATOM     13  C   UNL     1       1.969   7.608  18.903  0.00  0.00    +0.000 A 
ENDROOT
BRANCH   2  14
ATOM     14  C   UNL     1       1.400  12.606  19.008  0.00  0.00    +0.000 A 
ATOM     15  C   UNL     1       2.222  13.281  18.083  0.00  0.00    +0.000 A 
ATOM     16  C   UNL     1       2.557  14.612  18.266  0.00  0.00    +0.000 A 
ATOM     17  C   UNL     1       2.076  15.275  19.396  0.00  0.00    +0.000 A 
ATOM     18 CL   UNL     1       2.560  16.895  19.685  0.00  0.00    +0.000 Cl
ATOM     19  C   UNL     1       1.223  14.621  20.286  0.00  0.00    +0.000 A 
ATOM     20  C   UNL     1       0.867  13.280  20.094  0.00  0.00    +0.000 A 
ENDBRANCH   2  14
BRANCH   1  24
ATOM     21  C   UNL     1      -3.597  11.168  17.028  0.00  0.00    +0.000 A 
ATOM     22  C   UNL     1      -3.352  11.814  18.236  0.00  0.00    +0.000 A 
ATOM     23  C   UNL     1      -2.166  11.565  18.924  0.00  0.00    +0.000 A 
ATOM     24  C   UNL     1      -1.231  10.650  18.420  0.00  0.00    +0.000 A 
ATOM     25  C   UNL     1      -1.482   9.981  17.228  0.00  0.00    +0.000 A 
ATOM     26  C   UNL     1      -2.669  10.251  16.536  0.00  0.00    +0.000 A 
BRANCH  21  28
ATOM     27  C   UNL     1      -5.683  12.216  17.248  0.00  0.00    +0.000 C 
ATOM     28  O   UNL     1      -4.790  11.464  16.430  0.00  0.00    +0.000 OA
ENDBRANCH  21  28
ENDBRANCH   1  24
TORSDOF 3
ENDMDL
MODEL 6
REMARK VINA RESULT:      -7.1      3.794      7.282
REMARK  Name = 
REMARK  4 active torsions:
REMARK  status: ('A' for Active; 'I' for Inactive)
REMARK    1  A    between atoms: C_1  and  O_2
REMARK    2  A    between atoms: O_2  and  C_3
REMARK    3  A    between atoms: C_6  and  N_7
REMARK    4  A    between atoms: C_8  and  C_9
REMARK                            x       y       z     vdW  Elec       q    Type
REMARK                         _______ _______ _______ _____ _____    ______ ____
ROOT
ATOM      1  N   UNL     1      -0.143  10.587  19.342  0.00  0.00    +0.000 N 
ATOM      2  C   UNL     1       0.995  11.381  19.145  0.00  0.00    +0.000 A 
ATOM      3  C   UNL     1       1.855  10.486  18.537  0.00  0.00    +0.000 A 
ATOM      4  N   UNL     1       1.359   9.203  18.896  0.00  0.00    +0.000 N 
ATOM      5  C   UNL     1       0.423   9.470  19.832  0.00  0.00    +0.000 A 
ATOM      6  C   UNL     1       0.676   9.074  21.259  0.00  0.00    +0.000 C 
ATOM      7  C   UNL     1       1.683   7.928  21.424  0.00  0.00    +0.000 C 
ATOM      8  C   UNL     1       2.147   7.289  20.138  0.00  0.00    +0.000 A 
ATOM      9  C   UNL     1       2.787   6.044  20.165  0.00  0.00    +0.000 A 
ATOM     10  C   UNL     1       3.171   5.426  18.971  0.00  0.00    +0.000 A 
ATOM     11  C   UNL     1       2.938   6.052  17.740  0.00  0.00    +0.000 A 
ATOM     12  C   UNL     1       2.373   7.330  17.696  0.00  0.00    +0.000 A 
ATOM     13  C   UNL     1       2.015   7.920  18.896  0.00  0.00    +0.000 A 
ENDROOT
BRANCH   2  14
ATOM     14  C   UNL     1       1.036  12.813  19.541  0.00  0.00    +0.000 A 
ATOM     15  C   UNL     1       0.718  13.097  20.884  0.00  0.00    +0.000 A 
ATOM     16  C   UNL     1       0.596  14.403  21.328  0.00  0.00    +0.000 A 
ATOM     17  C   UNL     1       0.780  15.441  20.414  0.00  0.00    +0.000 A 
ATOM     18 CL   UNL     1       0.538  17.060  20.926  0.00  0.00    +0.000 Cl
ATOM     19  C   UNL     1       1.142  15.161  19.095  0.00  0.00    +0.000 A 
ATOM     20  C   UNL     1       1.284  13.842  18.647  0.00  0.00    +0.000 A 
ENDBRANCH   2  14
BRANCH   1  24
ATOM     21  C   UNL     1      -3.699  11.251  17.072  0.00  0.00    +0.000 A 
ATOM     22  C   UNL     1      -3.515  11.892  18.294  0.00  0.00    +0.000 A 
ATOM     23  C   UNL     1      -2.358  11.653  19.032  0.00  0.00    +0.000 A 
ATOM     24  C   UNL     1      -1.391  10.752  18.564  0.00  0.00    +0.000 A 
ATOM     25  C   UNL     1      -1.580  10.088  17.358  0.00  0.00    +0.000 A 
ATOM     26  C   UNL     1      -2.739  10.348  16.616  0.00  0.00    +0.000 A 
BRANCH  21  28
ATOM     27  C   UNL     1      -5.806  12.271  17.206  0.00  0.00    +0.000 C 
ATOM     28  O   UNL     1      -4.868  11.537  16.423  0.00  0.00    +0.000 OA
ENDBRANCH  21  28
ENDBRANCH   1  24
TORSDOF 3
ENDMDL
MODEL 7
REMARK VINA RESULT:      -7.1      3.921      7.347
REMARK  Name = 
REMARK  4 active torsions:
REMARK  status: ('A' for Active; 'I' for Inactive)
REMARK    1  A    between atoms: C_1  and  O_2
REMARK    2  A    between atoms: O_2  and  C_3
REMARK    3  A    between atoms: C_6  and  N_7
REMARK    4  A    between atoms: C_8  and  C_9
REMARK                            x       y       z     vdW  Elec       q    Type
REMARK                         _______ _______ _______ _____ _____    ______ ____
ROOT
ATOM      1  N   UNL     1      -0.900  10.932  19.794  0.00  0.00    +0.000 N 
ATOM      2  C   UNL     1       0.118  11.883  19.953  0.00  0.00    +0.000 A 
ATOM      3  C   UNL     1       1.158  11.293  19.262  0.00  0.00    +0.000 A 
ATOM      4  N   UNL     1       0.832   9.909  19.224  0.00  0.00    +0.000 N 
ATOM      5  C   UNL     1      -0.219   9.803  20.064  0.00  0.00    +0.000 A 
ATOM      6  C   UNL     1      -0.048   9.079  21.369  0.00  0.00    +0.000 C 
ATOM      7  C   UNL     1       1.101   8.063  21.377  0.00  0.00    +0.000 C 
ATOM      8  C   UNL     1       1.780   7.847  20.047  0.00  0.00    +0.000 A 
ATOM      9  C   UNL     1       2.597   6.728  19.850  0.00  0.00    +0.000 A 
ATOM     10  C   UNL     1       3.185   6.498  18.601  0.00  0.00    +0.000 A 
ATOM     11  C   UNL     1       2.979   7.393  17.545  0.00  0.00    +0.000 A 
ATOM     12  C   UNL     1       2.232   8.558  17.743  0.00  0.00    +0.000 A 
ATOM     13  C   UNL     1       1.674   8.763  18.993  0.00  0.00    +0.000 A 
ENDROOT
BRANCH   2  14
ATOM     14  C   UNL     1      -0.100  13.154  20.692  0.00  0.00    +0.000 A 
ATOM     15  C   UNL     1      -0.378  13.033  22.069  0.00  0.00    +0.000 A 
ATOM     16  C   UNL     1      -0.726  14.139  22.826  0.00  0.00    +0.000 A 
ATOM     17  C   UNL     1      -0.812  15.382  22.197  0.00  0.00    +0.000 A 
ATOM     18 CL   UNL     1      -1.335  16.743  23.100  0.00  0.00    +0.000 Cl
ATOM     19  C   UNL     1      -0.490  15.509  20.844  0.00  0.00    +0.000 A 
ATOM     20  C   UNL     1      -0.120  14.396  20.080  0.00  0.00    +0.000 A 
ENDBRANCH   2  14
BRANCH   1  24
ATOM     21  C   UNL     1      -4.272  11.729  17.298  0.00  0.00    +0.000 A 
ATOM     22  C   UNL     1      -4.285  12.104  18.639  0.00  0.00    +0.000 A 
ATOM     23  C   UNL     1      -3.185  11.823  19.446  0.00  0.00    +0.000 A 
ATOM     24  C   UNL     1      -2.077  11.141  18.923  0.00  0.00    +0.000 A 
ATOM     25  C   UNL     1      -2.068  10.739  17.593  0.00  0.00    +0.000 A 
ATOM     26  C   UNL     1      -3.172  11.042  16.786  0.00  0.00    +0.000 A 
BRANCH  21  28
ATOM     27  C   UNL     1      -6.472  12.537  17.379  0.00  0.00    +0.000 C 
ATOM     28  O   UNL     1      -5.398  12.036  16.586  0.00  0.00    +0.000 OA
ENDBRANCH  21  28
ENDBRANCH   1  24
TORSDOF 3
ENDMDL
MODEL 8
REMARK VINA RESULT:      -7.0      0.903      1.378
REMARK  Name = 
REMARK  4 active torsions:
REMARK  status: ('A' for Active; 'I' for Inactive)
REMARK    1  A    between atoms: C_1  and  O_2
REMARK    2  A    between atoms: O_2  and  C_3
REMARK    3  A    between atoms: C_6  and  N_7
REMARK    4  A    between atoms: C_8  and  C_9
REMARK                            x       y       z     vdW  Elec       q    Type
REMARK                         _______ _______ _______ _____ _____    ______ ____
ROOT
ATOM      1  N   UNL     1       0.142  12.181  20.299  0.00  0.00    +0.000 N 
ATOM      2  C   UNL     1      -0.261  10.964  19.732  0.00  0.00    +0.000 A 
ATOM      3  C   UNL     1      -1.610  11.185  19.531  0.00  0.00    +0.000 A 
ATOM      4  N   UNL     1      -1.944  12.238  20.427  0.00  0.00    +0.000 N 
ATOM      5  C   UNL     1      -0.843  12.368  21.197  0.00  0.00    +0.000 A 
ATOM      6  C   UNL     1      -0.905  11.967  22.643  0.00  0.00    +0.000 C 
ATOM      7  C   UNL     1      -2.318  11.989  23.241  0.00  0.00    +0.000 C 
ATOM      8  C   UNL     1      -3.392  12.541  22.335  0.00  0.00    +0.000 A 
ATOM      9  C   UNL     1      -4.630  12.922  22.866  0.00  0.00    +0.000 A 
ATOM     10  C   UNL     1      -5.607  13.482  22.037  0.00  0.00    +0.000 A 
ATOM     11  C   UNL     1      -5.365  13.650  20.668  0.00  0.00    +0.000 A 
ATOM     12  C   UNL     1      -4.167  13.204  20.104  0.00  0.00    +0.000 A 
ATOM     13  C   UNL     1      -3.224  12.642  20.949  0.00  0.00    +0.000 A 
ENDROOT
BRANCH   2  14
ATOM     14  C   UNL     1       0.698   9.859  19.473  0.00  0.00    +0.000 A 
ATOM     15  C   UNL     1       1.125   9.704  18.139  0.00  0.00    +0.000 A 
ATOM     16  C   UNL     1       1.913   8.630  17.762  0.00  0.00    +0.000 A 
ATOM     17  C   UNL     1       2.268   7.687  18.728  0.00  0.00    +0.000 A 
ATOM     18 CL   UNL     1       3.163   6.301  18.257  0.00  0.00    +0.000 Cl
ATOM     19  C   UNL     1       1.886   7.866  20.059  0.00  0.00    +0.000 A 
ATOM     20  C   UNL     1       1.105   8.962  20.447  0.00  0.00    +0.000 A 
ENDBRANCH   2  14
BRANCH   1  24
ATOM     21  C   UNL     1       2.531  15.161  18.388  0.00  0.00    +0.000 A 
ATOM     22  C   UNL     1       1.249  15.468  18.836  0.00  0.00    +0.000 A 
ATOM     23  C   UNL     1       0.475  14.481  19.443  0.00  0.00    +0.000 A 
ATOM     24  C   UNL     1       0.967  13.177  19.580  0.00  0.00    +0.000 A 
ATOM     25  C   UNL     1       2.236  12.856  19.111  0.00  0.00    +0.000 A 
ATOM     26  C   UNL     1       3.013  13.859  18.518  0.00  0.00    +0.000 A 
BRANCH  21  28
ATOM     27  C   UNL     1       4.419  16.550  18.467  0.00  0.00    +0.000 C 
ATOM     28  O   UNL     1       3.213  16.187  17.797  0.00  0.00    +0.000 OA
ENDBRANCH  21  28
ENDBRANCH   1  24
TORSDOF 3
ENDMDL
MODEL 9
REMARK VINA RESULT:      -7.0      3.714      7.258
REMARK  Name = 
REMARK  4 active torsions:
REMARK  status: ('A' for Active; 'I' for Inactive)
REMARK    1  A    between atoms: C_1  and  O_2
REMARK    2  A    between atoms: O_2  and  C_3
REMARK    3  A    between atoms: C_6  and  N_7
REMARK    4  A    between atoms: C_8  and  C_9
REMARK                            x       y       z     vdW  Elec       q    Type
REMARK                         _______ _______ _______ _____ _____    ______ ____
ROOT
ATOM      1  N   UNL     1       0.197  10.538  19.232  0.00  0.00    +0.000 N 
ATOM      2  C   UNL     1       1.409  11.151  18.883  0.00  0.00    +0.000 A 
ATOM      3  C   UNL     1       2.096  10.100  18.308  0.00  0.00    +0.000 A 
ATOM      4  N   UNL     1       1.470   8.931  18.821  0.00  0.00    +0.000 N 
ATOM      5  C   UNL     1       0.653   9.401  19.788  0.00  0.00    +0.000 A 
ATOM      6  C   UNL     1       0.966   9.099  21.226  0.00  0.00    +0.000 C 
ATOM      7  C   UNL     1       1.827   7.847  21.432  0.00  0.00    +0.000 C 
ATOM      8  C   UNL     1       2.103   7.042  20.185  0.00  0.00    +0.000 A 
ATOM      9  C   UNL     1       2.578   5.730  20.288  0.00  0.00    +0.000 A 
ATOM     10  C   UNL     1       2.784   4.965  19.136  0.00  0.00    +0.000 A 
ATOM     11  C   UNL     1       2.536   5.509  17.869  0.00  0.00    +0.000 A 
ATOM     12  C   UNL     1       2.138   6.842  17.740  0.00  0.00    +0.000 A 
ATOM     13  C   UNL     1       1.954   7.576  18.900  0.00  0.00    +0.000 A 
ENDROOT
BRANCH   2  14
ATOM     14  C   UNL     1       1.663  12.594  19.136  0.00  0.00    +0.000 A 
ATOM     15  C   UNL     1       1.268  13.084  20.398  0.00  0.00    +0.000 A 
ATOM     16  C   UNL     1       1.336  14.435  20.691  0.00  0.00    +0.000 A 
ATOM     17  C   UNL     1       1.792  15.313  19.706  0.00  0.00    +0.000 A 
ATOM     18 CL   UNL     1       1.792  16.999  20.022  0.00  0.00    +0.000 Cl
ATOM     19  C   UNL     1       2.229  14.822  18.475  0.00  0.00    +0.000 A 
ATOM     20  C   UNL     1       2.179  13.453  18.181  0.00  0.00    +0.000 A 
ENDBRANCH   2  14
BRANCH   1  24
ATOM     21  C   UNL     1      -3.538  11.116  17.245  0.00  0.00    +0.000 A 
ATOM     22  C   UNL     1      -2.626  10.179  16.768  0.00  0.00    +0.000 A 
ATOM     23  C   UNL     1      -1.404  10.013  17.416  0.00  0.00    +0.000 A 
ATOM     24  C   UNL     1      -1.077  10.802  18.528  0.00  0.00    +0.000 A 
ATOM     25  C   UNL     1      -1.972  11.758  18.993  0.00  0.00    +0.000 A 
ATOM     26  C   UNL     1      -3.205  11.905  18.345  0.00  0.00    +0.000 A 
BRANCH  21  28
ATOM     27  C   UNL     1      -5.654  12.117  17.109  0.00  0.00    +0.000 C 
ATOM     28  O   UNL     1      -4.705  11.218  16.540  0.00  0.00    +0.000 OA
ENDBRANCH  21  28
ENDBRANCH   1  24
TORSDOF 3
ENDMDL
