MODEL 1
REMARK VINA RESULT:      -7.6      0.000      0.000
REMARK  Name = 
REMARK  7 active torsions:
REMARK  status: ('A' for Active; 'I' for Inactive)
REMARK    1  A    between atoms: C_4  and  O_5
REMARK    2  A    between atoms: C_8  and  C_9
REMARK    3  A    between atoms: C_13  and  O_14
REMARK    4  A    between atoms: O_14  and  C_15
REMARK    5  A    between atoms: C_15  and  C_16
REMARK    6  A    between atoms: C_16  and  O_17
REMARK    7  A    between atoms: O_17  and  C_18
REMARK                            x       y       z     vdW  Elec       q    Type
REMARK                         _______ _______ _______ _____ _____    ______ ____
ROOT
ATOM      1  C   UNL     1       4.839   5.073  17.765  0.00  0.00    +0.000 A 
ATOM      2  C   UNL     1       5.833   4.097  17.907  0.00  0.00    +0.000 A 
ATOM      3  C   UNL     1       7.174   4.457  17.850  0.00  0.00    +0.000 A 
ATOM      4  C   UNL     1       7.531   5.791  17.642  0.00  0.00    +0.000 A 
ATOM      5  C   UNL     1       6.560   6.795  17.510  0.00  0.00    +0.000 A 
ATOM      6  C   UNL     1       5.205   6.430  17.598  0.00  0.00    +0.000 A 
ATOM      7 CL   UNL     1       3.973   7.650  17.460  0.00  0.00    +0.000 Cl
ENDROOT
BRANCH   1  14
ATOM      8  O   UNL     1       0.721   3.561  17.614  0.00  0.00    +0.000 OA
ATOM      9  C   UNL     1       1.364   3.681  18.643  0.00  0.00    +0.000 C 
ATOM     10  N   UNL     1       1.002   3.169  19.875  0.00  0.00    +0.000 NA
ATOM     11  C   UNL     1       1.825   3.542  20.791  0.00  0.00    +0.000 C 
ATOM     12  S   UNL     1       3.128   4.588  20.366  0.00  0.00    +0.000 S 
ATOM     13  C   UNL     1       2.690   4.369  18.713  0.00  0.00    +0.000 C 
ATOM     14  C   UNL     1       3.446   4.621  17.634  0.00  0.00    +0.000 C 
BRANCH  11  15
ATOM     15  O   UNL     1       1.696   3.089  22.043  0.00  0.00    +0.000 OA
ATOM     16  H   UNL     1       2.044   2.186  22.067  0.00  0.00    +0.000 HD
ENDBRANCH  11  15
ENDBRANCH   1  14
BRANCH   5  17
ATOM     17  O   UNL     1       6.865   8.120  17.273  0.00  0.00    +0.000 OA
BRANCH  17  18
ATOM     18  C   UNL     1       8.112   8.553  17.818  0.00  0.00    +0.000 C 
BRANCH  18  19
ATOM     19  C   UNL     1       8.222  10.068  17.905  0.00  0.00    +0.000 C 
BRANCH  19  20
ATOM     20  O   UNL     1       9.355  10.343  18.737  0.00  0.00    +0.000 OA
BRANCH  20  21
ATOM     21  C   UNL     1       9.396  11.658  19.295  0.00  0.00    +0.000 C 
ATOM     22  C   UNL     1      10.604  11.716  20.246  0.00  0.00    +0.000 C 
ATOM     23  C   UNL     1      11.945  11.627  19.507  0.00  0.00    +0.000 C 
ATOM     24  C   UNL     1      12.045  12.643  18.371  0.00  0.00    +0.000 C 
ATOM     25  C   UNL     1      10.845  12.559  17.434  0.00  0.00    +0.000 C 
ATOM     26  C   UNL     1       9.541  12.732  18.212  0.00  0.00    +0.000 C 
ENDBRANCH  20  21
ENDBRANCH  19  20
ENDBRANCH  18  19
ENDBRANCH  17  18
ENDBRANCH   5  17
TORSDOF 7
ENDMDL
MODEL 2
REMARK VINA RESULT:      -7.5      5.177      8.227
REMARK  Name = 
REMARK  7 active torsions:
REMARK  status: ('A' for Active; 'I' for Inactive)
REMARK    1  A    between atoms: C_4  and  O_5
REMARK    2  A    between atoms: C_8  and  C_9
REMARK    3  A    between atoms: C_13  and  O_14
REMARK    4  A    between atoms: O_14  and  C_15
REMARK    5  A    between atoms: C_15  and  C_16
REMARK    6  A    between atoms: C_16  and  O_17
REMARK    7  A    between atoms: O_17  and  C_18
REMARK                            x       y       z     vdW  Elec       q    Type
REMARK                         _______ _______ _______ _____ _____    ______ ____
ROOT
ATOM      1  C   UNL     1       2.622   5.196  18.447  0.00  0.00    +0.000 A 
ATOM      2  C   UNL     1       2.044   4.216  19.262  0.00  0.00    +0.000 A 
ATOM      3  C   UNL     1       1.399   4.582  20.438  0.00  0.00    +0.000 A 
ATOM      4  C   UNL     1       1.334   5.927  20.809  0.00  0.00    +0.000 A 
ATOM      5  C   UNL     1       1.891   6.934  20.008  0.00  0.00    +0.000 A 
ATOM      6  C   UNL     1       2.517   6.561  18.805  0.00  0.00    +0.000 A 
ATOM      7 CL   UNL     1       3.200   7.784  17.774  0.00  0.00    +0.000 Cl
ENDROOT
BRANCH   1  14
ATOM      8  O   UNL     1       5.347   4.017  15.214  0.00  0.00    +0.000 OA
ATOM      9  C   UNL     1       5.711   4.277  16.349  0.00  0.00    +0.000 C 
ATOM     10  N   UNL     1       7.022   4.460  16.745  0.00  0.00    +0.000 NA
ATOM     11  C   UNL     1       7.102   4.623  18.018  0.00  0.00    +0.000 C 
ATOM     12  S   UNL     1       5.661   4.543  18.962  0.00  0.00    +0.000 S 
ATOM     13  C   UNL     1       4.767   4.493  17.489  0.00  0.00    +0.000 C 
ATOM     14  C   UNL     1       3.461   4.749  17.324  0.00  0.00    +0.000 C 
BRANCH  11  15
ATOM     15  O   UNL     1       8.279   4.893  18.593  0.00  0.00    +0.000 OA
ATOM     16  H   UNL     1       8.918   4.236  18.283  0.00  0.00    +0.000 HD
ENDBRANCH  11  15
ENDBRANCH   1  14
BRANCH   5  17
ATOM     17  O   UNL     1       1.877   8.271  20.350  0.00  0.00    +0.000 OA
BRANCH  17  18
ATOM     18  C   UNL     1       0.672   8.717  20.972  0.00  0.00    +0.000 C 
BRANCH  18  19
ATOM     19  C   UNL     1       0.197  10.061  20.440  0.00  0.00    +0.000 C 
BRANCH  19  20
ATOM     20  O   UNL     1      -0.820   9.775  19.473  0.00  0.00    +0.000 OA
BRANCH  20  21
ATOM     21  C   UNL     1      -0.798  10.597  18.305  0.00  0.00    +0.000 C 
ATOM     22  C   UNL     1      -1.685   9.917  17.247  0.00  0.00    +0.000 C 
ATOM     23  C   UNL     1      -3.171   9.922  17.629  0.00  0.00    +0.000 C 
ATOM     24  C   UNL     1      -3.666  11.318  17.998  0.00  0.00    +0.000 C 
ATOM     25  C   UNL     1      -2.781  11.967  19.056  0.00  0.00    +0.000 C 
ATOM     26  C   UNL     1      -1.326  12.007  18.590  0.00  0.00    +0.000 C 
ENDBRANCH  20  21
ENDBRANCH  19  20
ENDBRANCH  18  19
ENDBRANCH  17  18
ENDBRANCH   5  17
TORSDOF 7
ENDMDL
MODEL 3
REMARK VINA RESULT:      -7.4      1.829      2.111
REMARK  Name = 
REMARK  7 active torsions:
REMARK  status: ('A' for Active; 'I' for Inactive)
REMARK    1  A    between atoms: C_4  and  O_5
REMARK    2  A    between atoms: C_8  and  C_9
REMARK    3  A    between atoms: C_13  and  O_14
REMARK    4  A    between atoms: O_14  and  C_15
REMARK    5  A    between atoms: C_15  and  C_16
REMARK    6  A    between atoms: C_16  and  O_17
REMARK    7  A    between atoms: O_17  and  C_18
REMARK                            x       y       z     vdW  Elec       q    Type
REMARK                         _______ _______ _______ _____ _____    ______ ____
ROOT
ATOM      1  C   UNL     1       5.387   4.485  17.609  0.00  0.00    +0.000 A 
ATOM      2  C   UNL     1       4.989   4.390  16.270  0.00  0.00    +0.000 A 
ATOM      3  C   UNL     1       5.623   5.158  15.300  0.00  0.00    +0.000 A 
ATOM      4  C   UNL     1       6.651   6.030  15.662  0.00  0.00    +0.000 A 
ATOM      5  C   UNL     1       7.083   6.139  16.992  0.00  0.00    +0.000 A 
ATOM      6  C   UNL     1       6.458   5.338  17.964  0.00  0.00    +0.000 A 
ATOM      7 CL   UNL     1       6.981   5.430  19.621  0.00  0.00    +0.000 Cl
ENDROOT
BRANCH   1  14
ATOM      8  O   UNL     1       2.900   2.726  20.769  0.00  0.00    +0.000 OA
ATOM      9  C   UNL     1       2.825   3.890  20.414  0.00  0.00    +0.000 C 
ATOM     10  N   UNL     1       2.127   4.883  21.075  0.00  0.00    +0.000 NA
ATOM     11  C   UNL     1       2.148   5.984  20.410  0.00  0.00    +0.000 C 
ATOM     12  S   UNL     1       2.950   6.022  18.884  0.00  0.00    +0.000 S 
ATOM     13  C   UNL     1       3.536   4.435  19.216  0.00  0.00    +0.000 C 
ATOM     14  C   UNL     1       4.562   3.809  18.621  0.00  0.00    +0.000 C 
BRANCH  11  15
ATOM     15  O   UNL     1       1.594   7.091  20.916  0.00  0.00    +0.000 OA
ATOM     16  H   UNL     1       0.684   6.878  21.168  0.00  0.00    +0.000 HD
ENDBRANCH  11  15
ENDBRANCH   1  14
BRANCH   5  17
ATOM     17  O   UNL     1       8.074   7.009  17.400  0.00  0.00    +0.000 OA
BRANCH  17  18
ATOM     18  C   UNL     1       7.646   8.359  17.580  0.00  0.00    +0.000 C 
BRANCH  18  19
ATOM     19  C   UNL     1       8.473   9.104  18.619  0.00  0.00    +0.000 C 
BRANCH  19  20
ATOM     20  O   UNL     1       9.246  10.072  17.899  0.00  0.00    +0.000 OA
BRANCH  20  21
ATOM     21  C   UNL     1       9.051  11.429  18.303  0.00  0.00    +0.000 C 
ATOM     22  C   UNL     1       9.356  11.508  19.809  0.00  0.00    +0.000 C 
ATOM     23  C   UNL     1      10.838  11.278  20.127  0.00  0.00    +0.000 C 
ATOM     24  C   UNL     1      11.752  12.176  19.297  0.00  0.00    +0.000 C 
ATOM     25  C   UNL     1      11.442  12.071  17.807  0.00  0.00    +0.000 C 
ATOM     26  C   UNL     1       9.971  12.388  17.540  0.00  0.00    +0.000 C 
ENDBRANCH  20  21
ENDBRANCH  19  20
ENDBRANCH  18  19
ENDBRANCH  17  18
ENDBRANCH   5  17
TORSDOF 7
ENDMDL
MODEL 4
REMARK VINA RESULT:      -7.3      1.295      1.776
REMARK  Name = 
REMARK  7 active torsions:
REMARK  status: ('A' for Active; 'I' for Inactive)
REMARK    1  A    between atoms: C_4  and  O_5
REMARK    2  A    between atoms: C_8  and  C_9
REMARK    3  A    between atoms: C_13  and  O_14
REMARK    4  A    between atoms: O_14  and  C_15
REMARK    5  A    between atoms: C_15  and  C_16
REMARK    6  A    between atoms: C_16  and  O_17
REMARK    7  A    between atoms: O_17  and  C_18
REMARK                            x       y       z     vdW  Elec       q    Type
REMARK                         _______ _______ _______ _____ _____    ______ ____
ROOT
ATOM      1  C   UNL     1       5.626   5.221  18.004  0.00  0.00    +0.000 A 
ATOM      2  C   UNL     1       6.286   4.744  19.143  0.00  0.00    +0.000 A 
ATOM      3  C   UNL     1       7.443   5.373  19.590  0.00  0.00    +0.000 A 
ATOM      4  C   UNL     1       7.951   6.474  18.899  0.00  0.00    +0.000 A 
ATOM      5  C   UNL     1       7.307   6.985  17.763  0.00  0.00    +0.000 A 
ATOM      6  C   UNL     1       6.121   6.364  17.332  0.00  0.00    +0.000 A 
ATOM      7 CL   UNL     1       5.282   6.982  15.939  0.00  0.00    +0.000 Cl
ENDROOT
BRANCH   1  14
ATOM      8  O   UNL     1       2.257   2.758  16.645  0.00  0.00    +0.000 OA
ATOM      9  C   UNL     1       2.247   3.417  17.671  0.00  0.00    +0.000 C 
ATOM     10  N   UNL     1       1.293   3.329  18.667  0.00  0.00    +0.000 NA
ATOM     11  C   UNL     1       1.491   4.217  19.577  0.00  0.00    +0.000 C 
ATOM     12  S   UNL     1       2.799   5.325  19.391  0.00  0.00    +0.000 S 
ATOM     13  C   UNL     1       3.318   4.397  18.033  0.00  0.00    +0.000 C 
ATOM     14  C   UNL     1       4.528   4.412  17.456  0.00  0.00    +0.000 C 
BRANCH  11  15
ATOM     15  O   UNL     1       0.721   4.249  20.671  0.00  0.00    +0.000 OA
ATOM     16  H   UNL     1       0.669   3.349  21.022  0.00  0.00    +0.000 HD
ENDBRANCH  11  15
ENDBRANCH   1  14
BRANCH   5  17
ATOM     17  O   UNL     1       7.789   8.051  17.031  0.00  0.00    +0.000 OA
BRANCH  17  18
ATOM     18  C   UNL     1       7.668   9.320  17.673  0.00  0.00    +0.000 C 
BRANCH  18  19
ATOM     19  C   UNL     1       8.971   9.786  18.306  0.00  0.00    +0.000 C 
BRANCH  19  20
ATOM     20  O   UNL     1       8.985  11.214  18.196  0.00  0.00    +0.000 OA
BRANCH  20  21
ATOM     21  C   UNL     1      10.269  11.794  17.958  0.00  0.00    +0.000 C 
ATOM     22  C   UNL     1      10.076  13.319  17.877  0.00  0.00    +0.000 C 
ATOM     23  C   UNL     1       9.677  13.938  19.222  0.00  0.00    +0.000 C 
ATOM     24  C   UNL     1      10.622  13.526  20.348  0.00  0.00    +0.000 C 
ATOM     25  C   UNL     1      10.788  12.012  20.418  0.00  0.00    +0.000 C 
ATOM     26  C   UNL     1      11.262  11.459  19.075  0.00  0.00    +0.000 C 
ENDBRANCH  20  21
ENDBRANCH  19  20
ENDBRANCH  18  19
ENDBRANCH  17  18
ENDBRANCH   5  17
TORSDOF 7
ENDMDL
MODEL 5
REMARK VINA RESULT:      -7.3      4.508      7.556
REMARK  Name = 
REMARK  7 active torsions:
REMARK  status: ('A' for Active; 'I' for Inactive)
REMARK    1  A    between atoms: C_4  and  O_5
REMARK    2  A    between atoms: C_8  and  C_9
REMARK    3  A    between atoms: C_13  and  O_14
REMARK    4  A    between atoms: O_14  and  C_15
REMARK    5  A    between atoms: C_15  and  C_16
REMARK    6  A    between atoms: C_16  and  O_17
REMARK    7  A    between atoms: O_17  and  C_18
REMARK                            x       y       z     vdW  Elec       q    Type
REMARK                         _______ _______ _______ _____ _____    ______ ____
ROOT
ATOM      1  C   UNL     1       3.488   3.823  18.916  0.00  0.00    +0.000 A 
ATOM      2  C   UNL     1       3.557   2.790  19.860  0.00  0.00    +0.000 A 
ATOM      3  C   UNL     1       2.827   2.878  21.040  0.00  0.00    +0.000 A 
ATOM      4  C   UNL     1       2.033   3.999  21.288  0.00  0.00    +0.000 A 
ATOM      5  C   UNL     1       1.932   5.044  20.359  0.00  0.00    +0.000 A 
ATOM      6  C   UNL     1       2.648   4.937  19.153  0.00  0.00    +0.000 A 
ATOM      7 CL   UNL     1       2.531   6.203  17.966  0.00  0.00    +0.000 Cl
ENDROOT
BRANCH   1  14
ATOM      8  O   UNL     1       6.357   3.975  15.598  0.00  0.00    +0.000 OA
ATOM      9  C   UNL     1       6.478   4.611  16.631  0.00  0.00    +0.000 C 
ATOM     10  N   UNL     1       7.389   5.630  16.839  0.00  0.00    +0.000 NA
ATOM     11  C   UNL     1       7.349   6.044  18.056  0.00  0.00    +0.000 C 
ATOM     12  S   UNL     1       6.271   5.280  19.163  0.00  0.00    +0.000 S 
ATOM     13  C   UNL     1       5.604   4.415  17.829  0.00  0.00    +0.000 C 
ATOM     14  C   UNL     1       4.423   3.781  17.782  0.00  0.00    +0.000 C 
BRANCH  11  15
ATOM     15  O   UNL     1       8.101   7.081  18.443  0.00  0.00    +0.000 OA
ATOM     16  H   UNL     1       7.533   7.687  18.941  0.00  0.00    +0.000 HD
ENDBRANCH  11  15
ENDBRANCH   1  14
BRANCH   5  17
ATOM     17  O   UNL     1       1.184   6.184  20.575  0.00  0.00    +0.000 OA
BRANCH  17  18
ATOM     18  C   UNL     1       1.948   7.353  20.867  0.00  0.00    +0.000 C 
BRANCH  18  19
ATOM     19  C   UNL     1       1.108   8.470  21.470  0.00  0.00    +0.000 C 
BRANCH  19  20
ATOM     20  O   UNL     1       0.303   8.988  20.405  0.00  0.00    +0.000 OA
BRANCH  20  21
ATOM     21  C   UNL     1       0.912  10.022  19.629  0.00  0.00    +0.000 C 
ATOM     22  C   UNL     1       0.421   9.861  18.180  0.00  0.00    +0.000 C 
ATOM     23  C   UNL     1      -1.074  10.167  18.025  0.00  0.00    +0.000 C 
ATOM     24  C   UNL     1      -1.451  11.519  18.623  0.00  0.00    +0.000 C 
ATOM     25  C   UNL     1      -0.965  11.653  20.062  0.00  0.00    +0.000 C 
ATOM     26  C   UNL     1       0.542  11.416  20.146  0.00  0.00    +0.000 C 
ENDBRANCH  20  21
ENDBRANCH  19  20
ENDBRANCH  18  19
ENDBRANCH  17  18
ENDBRANCH   5  17
TORSDOF 7
ENDMDL
MODEL 6
REMARK VINA RESULT:      -7.2      4.661      6.937
REMARK  Name = 
REMARK  7 active torsions:
REMARK  status: ('A' for Active; 'I' for Inactive)
REMARK    1  A    between atoms: C_4  and  O_5
REMARK    2  A    between atoms: C_8  and  C_9
REMARK    3  A    between atoms: C_13  and  O_14
REMARK    4  A    between atoms: O_14  and  C_15
REMARK    5  A    between atoms: C_15  and  C_16
REMARK    6  A    between atoms: C_16  and  O_17
REMARK    7  A    between atoms: O_17  and  C_18
REMARK                            x       y       z     vdW  Elec       q    Type
REMARK                         _______ _______ _______ _____ _____    ______ ____
ROOT
ATOM      1  C   UNL     1       1.762   7.743  20.052  0.00  0.00    +0.000 A 
ATOM      2  C   UNL     1       2.064   8.655  19.034  0.00  0.00    +0.000 A 
ATOM      3  C   UNL     1       2.632   8.207  17.847  0.00  0.00    +0.000 A 
ATOM      4  C   UNL     1       2.908   6.850  17.673  0.00  0.00    +0.000 A 
ATOM      5  C   UNL     1       2.604   5.909  18.667  0.00  0.00    +0.000 A 
ATOM      6  C   UNL     1       2.003   6.363  19.855  0.00  0.00    +0.000 A 
ATOM      7 CL   UNL     1       1.592   5.223  21.103  0.00  0.00    +0.000 Cl
ENDROOT
BRANCH   1  14
ATOM      8  O   UNL     1       0.516   9.616  23.822  0.00  0.00    +0.000 OA
ATOM      9  C   UNL     1       0.193  10.026  22.720  0.00  0.00    +0.000 C 
ATOM     10  N   UNL     1      -0.414  11.242  22.466  0.00  0.00    +0.000 NA
ATOM     11  C   UNL     1      -0.724  11.354  21.223  0.00  0.00    +0.000 C 
ATOM     12  S   UNL     1      -0.396  10.037  20.160  0.00  0.00    +0.000 S 
ATOM     13  C   UNL     1       0.462   9.281  21.450  0.00  0.00    +0.000 C 
ATOM     14  C   UNL     1       1.351   8.282  21.357  0.00  0.00    +0.000 C 
BRANCH  11  15
ATOM     15  O   UNL     1      -1.252  12.491  20.756  0.00  0.00    +0.000 OA
ATOM     16  H   UNL     1      -1.015  13.200  21.371  0.00  0.00    +0.000 HD
ENDBRANCH  11  15
ENDBRANCH   1  14
BRANCH   5  17
ATOM     17  O   UNL     1       2.886   4.563  18.551  0.00  0.00    +0.000 OA
BRANCH  17  18
ATOM     18  C   UNL     1       3.233   4.136  17.234  0.00  0.00    +0.000 C 
BRANCH  18  19
ATOM     19  C   UNL     1       4.573   3.417  17.182  0.00  0.00    +0.000 C 
BRANCH  19  20
ATOM     20  O   UNL     1       5.528   4.300  17.782  0.00  0.00    +0.000 OA
BRANCH  20  21
ATOM     21  C   UNL     1       6.721   4.512  17.025  0.00  0.00    +0.000 C 
ATOM     22  C   UNL     1       6.557   5.841  16.268  0.00  0.00    +0.000 C 
ATOM     23  C   UNL     1       6.538   7.056  17.203  0.00  0.00    +0.000 C 
ATOM     24  C   UNL     1       7.730   7.069  18.156  0.00  0.00    +0.000 C 
ATOM     25  C   UNL     1       7.867   5.748  18.904  0.00  0.00    +0.000 C 
ATOM     26  C   UNL     1       7.961   4.580  17.923  0.00  0.00    +0.000 C 
ENDBRANCH  20  21
ENDBRANCH  19  20
ENDBRANCH  18  19
ENDBRANCH  17  18
ENDBRANCH   5  17
TORSDOF 7
ENDMDL
MODEL 7
REMARK VINA RESULT:      -7.2      5.243      8.470
REMARK  Name = 
REMARK  7 active torsions:
REMARK  status: ('A' for Active; 'I' for Inactive)
REMARK    1  A    between atoms: C_4  and  O_5
REMARK    2  A    between atoms: C_8  and  C_9
REMARK    3  A    between atoms: C_13  and  O_14
REMARK    4  A    between atoms: O_14  and  C_15
REMARK    5  A    between atoms: C_15  and  C_16
REMARK    6  A    between atoms: C_16  and  O_17
REMARK    7  A    between atoms: O_17  and  C_18
REMARK                            x       y       z     vdW  Elec       q    Type
REMARK                         _______ _______ _______ _____ _____    ______ ____
ROOT
ATOM      1  C   UNL     1       6.461   5.425  16.677  0.00  0.00    +0.000 A 
ATOM      2  C   UNL     1       7.053   4.610  17.648  0.00  0.00    +0.000 A 
ATOM      3  C   UNL     1       6.468   4.488  18.903  0.00  0.00    +0.000 A 
ATOM      4  C   UNL     1       5.294   5.183  19.197  0.00  0.00    +0.000 A 
ATOM      5  C   UNL     1       4.668   5.997  18.242  0.00  0.00    +0.000 A 
ATOM      6  C   UNL     1       5.247   6.094  16.964  0.00  0.00    +0.000 A 
ATOM      7 CL   UNL     1       4.488   7.077  15.746  0.00  0.00    +0.000 Cl
ENDROOT
BRANCH   1  14
ATOM      8  O   UNL     1       8.667   5.905  12.913  0.00  0.00    +0.000 OA
ATOM      9  C   UNL     1       7.761   5.105  13.072  0.00  0.00    +0.000 C 
ATOM     10  N   UNL     1       7.431   4.088  12.197  0.00  0.00    +0.000 NA
ATOM     11  C   UNL     1       6.370   3.471  12.583  0.00  0.00    +0.000 C 
ATOM     12  S   UNL     1       5.563   4.012  14.007  0.00  0.00    +0.000 S 
ATOM     13  C   UNL     1       6.891   5.075  14.289  0.00  0.00    +0.000 C 
ATOM     14  C   UNL     1       7.215   5.680  15.440  0.00  0.00    +0.000 C 
BRANCH  11  15
ATOM     15  O   UNL     1       5.927   2.401  11.913  0.00  0.00    +0.000 OA
ATOM     16  H   UNL     1       4.964   2.368  12.013  0.00  0.00    +0.000 HD
ENDBRANCH  11  15
ENDBRANCH   1  14
BRANCH   5  17
ATOM     17  O   UNL     1       3.524   6.727  18.497  0.00  0.00    +0.000 OA
BRANCH  17  18
ATOM     18  C   UNL     1       3.053   6.648  19.843  0.00  0.00    +0.000 C 
BRANCH  18  19
ATOM     19  C   UNL     1       1.756   5.861  19.967  0.00  0.00    +0.000 C 
BRANCH  19  20
ATOM     20  O   UNL     1       2.129   4.482  20.059  0.00  0.00    +0.000 OA
BRANCH  20  21
ATOM     21  C   UNL     1       1.245   3.567  19.409  0.00  0.00    +0.000 C 
ATOM     22  C   UNL     1       1.293   3.874  17.901  0.00  0.00    +0.000 C 
ATOM     23  C   UNL     1       2.648   3.531  17.270  0.00  0.00    +0.000 C 
ATOM     24  C   UNL     1       3.089   2.105  17.591  0.00  0.00    +0.000 C 
ATOM     25  C   UNL     1       3.046   1.827  19.090  0.00  0.00    +0.000 C 
ATOM     26  C   UNL     1       1.653   2.110  19.651  0.00  0.00    +0.000 C 
ENDBRANCH  20  21
ENDBRANCH  19  20
ENDBRANCH  18  19
ENDBRANCH  17  18
ENDBRANCH   5  17
TORSDOF 7
ENDMDL
MODEL 8
REMARK VINA RESULT:      -7.1      1.609      2.443
REMARK  Name = 
REMARK  7 active torsions:
REMARK  status: ('A' for Active; 'I' for Inactive)
REMARK    1  A    between atoms: C_4  and  O_5
REMARK    2  A    between atoms: C_8  and  C_9
REMARK    3  A    between atoms: C_13  and  O_14
REMARK    4  A    between atoms: O_14  and  C_15
REMARK    5  A    between atoms: C_15  and  C_16
REMARK    6  A    between atoms: C_16  and  O_17
REMARK    7  A    between atoms: O_17  and  C_18
REMARK                            x       y       z     vdW  Elec       q    Type
REMARK                         _______ _______ _______ _____ _____    ______ ____
ROOT
ATOM      1  C   UNL     1       4.551   5.502  18.595  0.00  0.00    +0.000 A 
ATOM      2  C   UNL     1       3.497   6.290  18.117  0.00  0.00    +0.000 A 
ATOM      3  C   UNL     1       3.761   7.374  17.288  0.00  0.00    +0.000 A 
ATOM      4  C   UNL     1       5.077   7.682  16.938  0.00  0.00    +0.000 A 
ATOM      5  C   UNL     1       6.154   6.905  17.388  0.00  0.00    +0.000 A 
ATOM      6  C   UNL     1       5.879   5.791  18.203  0.00  0.00    +0.000 A 
ATOM      7 CL   UNL     1       7.187   4.790  18.764  0.00  0.00    +0.000 Cl
ENDROOT
BRANCH   1  14
ATOM      8  O   UNL     1       3.358   2.496  21.563  0.00  0.00    +0.000 OA
ATOM      9  C   UNL     1       2.821   2.629  20.477  0.00  0.00    +0.000 C 
ATOM     10  N   UNL     1       1.637   2.028  20.093  0.00  0.00    +0.000 NA
ATOM     11  C   UNL     1       1.372   2.276  18.858  0.00  0.00    +0.000 C 
ATOM     12  S   UNL     1       2.487   3.213  17.937  0.00  0.00    +0.000 S 
ATOM     13  C   UNL     1       3.348   3.523  19.399  0.00  0.00    +0.000 C 
ATOM     14  C   UNL     1       4.245   4.495  19.621  0.00  0.00    +0.000 C 
BRANCH  11  15
ATOM     15  O   UNL     1       0.227   1.849  18.313  0.00  0.00    +0.000 OA
ATOM     16  H   UNL     1      -0.486   2.032  18.941  0.00  0.00    +0.000 HD
ENDBRANCH  11  15
ENDBRANCH   1  14
BRANCH   5  17
ATOM     17  O   UNL     1       7.472   7.188  17.094  0.00  0.00    +0.000 OA
BRANCH  17  18
ATOM     18  C   UNL     1       8.145   7.983  18.071  0.00  0.00    +0.000 C 
BRANCH  18  19
ATOM     19  C   UNL     1       8.167   9.462  17.712  0.00  0.00    +0.000 C 
BRANCH  19  20
ATOM     20  O   UNL     1       9.106  10.078  18.602  0.00  0.00    +0.000 OA
BRANCH  20  21
ATOM     21  C   UNL     1       9.228  11.495  18.471  0.00  0.00    +0.000 C 
ATOM     22  C   UNL     1       9.254  12.087  19.891  0.00  0.00    +0.000 C 
ATOM     23  C   UNL     1      10.525  11.715  20.665  0.00  0.00    +0.000 C 
ATOM     24  C   UNL     1      11.793  12.030  19.876  0.00  0.00    +0.000 C 
ATOM     25  C   UNL     1      11.751  11.423  18.477  0.00  0.00    +0.000 C 
ATOM     26  C   UNL     1      10.506  11.891  17.725  0.00  0.00    +0.000 C 
ENDBRANCH  20  21
ENDBRANCH  19  20
ENDBRANCH  18  19
ENDBRANCH  17  18
ENDBRANCH   5  17
TORSDOF 7
ENDMDL
MODEL 9
REMARK VINA RESULT:      -7.1      4.358      7.191
REMARK  Name = 
REMARK  7 active torsions:
REMARK  status: ('A' for Active; 'I' for Inactive)
REMARK    1  A    between atoms: C_4  and  O_5
REMARK    2  A    between atoms: C_8  and  C_9
REMARK    3  A    between atoms: C_13  and  O_14
REMARK    4  A    between atoms: O_14  and  C_15
REMARK    5  A    between atoms: C_15  and  C_16
REMARK    6  A    between atoms: C_16  and  O_17
REMARK    7  A    between atoms: O_17  and  C_18
REMARK                            x       y       z     vdW  Elec       q    Type
REMARK                         _______ _______ _______ _____ _____    ______ ____
ROOT
ATOM      1  C   UNL     1       3.599   3.795  18.770  0.00  0.00    +0.000 A 
ATOM      2  C   UNL     1       3.776   2.760  19.697  0.00  0.00    +0.000 A 
ATOM      3  C   UNL     1       3.092   2.787  20.907  0.00  0.00    +0.000 A 
ATOM      4  C   UNL     1       2.235   3.849  21.202  0.00  0.00    +0.000 A 
ATOM      5  C   UNL     1       2.025   4.894  20.290  0.00  0.00    +0.000 A 
ATOM      6  C   UNL     1       2.696   4.847  19.055  0.00  0.00    +0.000 A 
ATOM      7 CL   UNL     1       2.445   6.114  17.889  0.00  0.00    +0.000 Cl
ENDROOT
BRANCH   1  14
ATOM      8  O   UNL     1       6.314   4.172  15.342  0.00  0.00    +0.000 OA
ATOM      9  C   UNL     1       6.443   4.795  16.382  0.00  0.00    +0.000 C 
ATOM     10  N   UNL     1       7.304   5.858  16.575  0.00  0.00    +0.000 NA
ATOM     11  C   UNL     1       7.292   6.247  17.801  0.00  0.00    +0.000 C 
ATOM     12  S   UNL     1       6.305   5.401  18.935  0.00  0.00    +0.000 S 
ATOM     13  C   UNL     1       5.631   4.526  17.610  0.00  0.00    +0.000 C 
ATOM     14  C   UNL     1       4.486   3.828  17.598  0.00  0.00    +0.000 C 
BRANCH  11  15
ATOM     15  O   UNL     1       8.000   7.317  18.180  0.00  0.00    +0.000 OA
ATOM     16  H   UNL     1       7.841   8.019  17.533  0.00  0.00    +0.000 HD
ENDBRANCH  11  15
ENDBRANCH   1  14
BRANCH   5  17
ATOM     17  O   UNL     1       1.212   5.978  20.550  0.00  0.00    +0.000 OA
BRANCH  17  18
ATOM     18  C   UNL     1       1.896   7.227  20.653  0.00  0.00    +0.000 C 
BRANCH  18  19
ATOM     19  C   UNL     1       1.052   8.307  21.314  0.00  0.00    +0.000 C 
BRANCH  19  20
ATOM     20  O   UNL     1       1.277   9.508  20.566  0.00  0.00    +0.000 OA
BRANCH  20  21
ATOM     21  C   UNL     1       0.747   9.507  19.239  0.00  0.00    +0.000 C 
ATOM     22  C   UNL     1      -0.651  10.148  19.302  0.00  0.00    +0.000 C 
ATOM     23  C   UNL     1      -0.602  11.643  19.638  0.00  0.00    +0.000 C 
ATOM     24  C   UNL     1       0.352  12.408  18.724  0.00  0.00    +0.000 C 
ATOM     25  C   UNL     1       1.734  11.763  18.688  0.00  0.00    +0.000 C 
ATOM     26  C   UNL     1       1.633  10.296  18.271  0.00  0.00    +0.000 C 
ENDBRANCH  20  21
ENDBRANCH  19  20
ENDBRANCH  18  19
ENDBRANCH  17  18
ENDBRANCH   5  17
TORSDOF 7
ENDMDL
