MODEL 1
REMARK VINA RESULT:      -6.7      0.000      0.000
REMARK  Name = 
REMARK  9 active torsions:
REMARK  status: ('A' for Active; 'I' for Inactive)
REMARK    1  A    between atoms: C_1  and  C_2
REMARK    2  A    between atoms: C_2  and  C_3
REMARK    3  A    between atoms: C_3  and  N_4
REMARK    4  A    between atoms: N_4  and  C_5
REMARK    5  A    between atoms: N_4  and  C_9
REMARK    6  A    between atoms: C_5  and  C_6
REMARK    7  A    between atoms: C_11  and  C_12
REMARK    8  A    between atoms: C_12  and  O_13
REMARK    9  A    between atoms: O_13  and  C_14
REMARK                            x       y       z     vdW  Elec       q    Type
REMARK                         _______ _______ _______ _____ _____    ______ ____
ROOT
ATOM      1  C   UNL     1       4.788   4.634  17.463  0.00  0.00    +0.000 A 
ATOM      2  C   UNL     1       5.029   4.445  16.147  0.00  0.00    +0.000 A 
ATOM      3  C   UNL     1       6.440   4.524  15.650  0.00  0.00    +0.000 A 
ATOM      4  N   UNL     1       7.478   4.764  16.389  0.00  0.00    +0.000 NA
ATOM      5  C   UNL     1       7.240   4.973  17.712  0.00  0.00    +0.000 A 
ATOM      6  N   UNL     1       8.115   5.243  18.656  0.00  0.00    +0.000 NA
ATOM      7  C   UNL     1       7.358   5.350  19.772  0.00  0.00    +0.000 A 
ATOM      8  N   UNL     1       6.051   5.159  19.612  0.00  0.00    +0.000 NA
ATOM      9  N   UNL     1       5.945   4.913  18.269  0.00  0.00    +0.000 N 
ENDROOT
BRANCH   1  10
ATOM     10  N   UNL     1       3.471   4.567  18.038  0.00  0.00    +0.000 N 
BRANCH  10  11
ATOM     11  C   UNL     1       2.491   5.667  17.895  0.00  0.00    +0.000 C 
BRANCH  11  13
ATOM     12  C   UNL     1       2.169   8.175  17.890  0.00  0.00    +0.000 C 
ATOM     13  C   UNL     1       3.131   7.030  18.180  0.00  0.00    +0.000 C 
ENDBRANCH  11  13
ENDBRANCH  10  11
BRANCH  10  14
ATOM     14  C   UNL     1       3.082   3.405  18.911  0.00  0.00    +0.000 C 
BRANCH  14  15
ATOM     15  C   UNL     1       2.111   2.332  18.412  0.00  0.00    +0.000 C 
ATOM     16  F   UNL     1       0.830   2.779  18.421  0.00  0.00    +0.000 F 
ATOM     17  F   UNL     1       2.397   1.947  17.146  0.00  0.00    +0.000 F 
ENDBRANCH  14  15
ENDBRANCH  10  14
ENDBRANCH   1  10
BRANCH   3  18
ATOM     18  C   UNL     1       6.657   4.276  14.161  0.00  0.00    +0.000 C 
BRANCH  18  19
ATOM     19  O   UNL     1       5.466   3.766  13.577  0.00  0.00    +0.000 OA
ATOM     20  C   UNL     1       5.704   3.275  12.264  0.00  0.00    +0.000 C 
ENDBRANCH  18  19
ENDBRANCH   3  18
TORSDOF 7
ENDMDL
MODEL 2
REMARK VINA RESULT:      -6.7      1.349      1.487
REMARK  Name = 
REMARK  9 active torsions:
REMARK  status: ('A' for Active; 'I' for Inactive)
REMARK    1  A    between atoms: C_1  and  C_2
REMARK    2  A    between atoms: C_2  and  C_3
REMARK    3  A    between atoms: C_3  and  N_4
REMARK    4  A    between atoms: N_4  and  C_5
REMARK    5  A    between atoms: N_4  and  C_9
REMARK    6  A    between atoms: C_5  and  C_6
REMARK    7  A    between atoms: C_11  and  C_12
REMARK    8  A    between atoms: C_12  and  O_13
REMARK    9  A    between atoms: O_13  and  C_14
REMARK                            x       y       z     vdW  Elec       q    Type
REMARK                         _______ _______ _______ _____ _____    ______ ____
ROOT
ATOM      1  C   UNL     1       4.876   4.202  17.357  0.00  0.00    +0.000 A 
ATOM      2  C   UNL     1       5.133   4.106  16.034  0.00  0.00    +0.000 A 
ATOM      3  C   UNL     1       6.460   4.572  15.518  0.00  0.00    +0.000 A 
ATOM      4  N   UNL     1       7.409   5.073  16.248  0.00  0.00    +0.000 NA
ATOM      5  C   UNL     1       7.149   5.188  17.578  0.00  0.00    +0.000 A 
ATOM      6  N   UNL     1       7.936   5.671  18.514  0.00  0.00    +0.000 NA
ATOM      7  C   UNL     1       7.200   5.551  19.643  0.00  0.00    +0.000 A 
ATOM      8  N   UNL     1       5.991   5.016  19.498  0.00  0.00    +0.000 NA
ATOM      9  N   UNL     1       5.929   4.772  18.151  0.00  0.00    +0.000 N 
ENDROOT
BRANCH   1  10
ATOM     10  N   UNL     1       3.637   3.772  17.949  0.00  0.00    +0.000 N 
BRANCH  10  11
ATOM     11  C   UNL     1       2.382   4.543  17.799  0.00  0.00    +0.000 C 
BRANCH  11  13
ATOM     12  C   UNL     1       2.448   6.171  19.731  0.00  0.00    +0.000 C 
ATOM     13  C   UNL     1       2.566   6.004  18.222  0.00  0.00    +0.000 C 
ENDBRANCH  11  13
ENDBRANCH  10  11
BRANCH  10  14
ATOM     14  C   UNL     1       3.604   2.565  18.846  0.00  0.00    +0.000 C 
BRANCH  14  15
ATOM     15  C   UNL     1       3.342   2.702  20.347  0.00  0.00    +0.000 C 
ATOM     16  F   UNL     1       2.111   2.241  20.681  0.00  0.00    +0.000 F 
ATOM     17  F   UNL     1       4.246   2.009  21.079  0.00  0.00    +0.000 F 
ENDBRANCH  14  15
ENDBRANCH  10  14
ENDBRANCH   1  10
BRANCH   3  18
ATOM     18  C   UNL     1       6.708   4.415  14.022  0.00  0.00    +0.000 C 
BRANCH  18  19
ATOM     19  O   UNL     1       5.562   3.850  13.399  0.00  0.00    +0.000 OA
ATOM     20  C   UNL     1       5.903   3.212  12.174  0.00  0.00    +0.000 C 
ENDBRANCH  18  19
ENDBRANCH   3  18
TORSDOF 7
ENDMDL
MODEL 3
REMARK VINA RESULT:      -6.6      1.750      2.647
REMARK  Name = 
REMARK  9 active torsions:
REMARK  status: ('A' for Active; 'I' for Inactive)
REMARK    1  A    between atoms: C_1  and  C_2
REMARK    2  A    between atoms: C_2  and  C_3
REMARK    3  A    between atoms: C_3  and  N_4
REMARK    4  A    between atoms: N_4  and  C_5
REMARK    5  A    between atoms: N_4  and  C_9
REMARK    6  A    between atoms: C_5  and  C_6
REMARK    7  A    between atoms: C_11  and  C_12
REMARK    8  A    between atoms: C_12  and  O_13
REMARK    9  A    between atoms: O_13  and  C_14
REMARK                            x       y       z     vdW  Elec       q    Type
REMARK                         _______ _______ _______ _____ _____    ______ ____
ROOT
ATOM      1  C   UNL     1       4.753   4.520  17.440  0.00  0.00    +0.000 A 
ATOM      2  C   UNL     1       5.021   4.337  16.128  0.00  0.00    +0.000 A 
ATOM      3  C   UNL     1       6.436   4.466  15.653  0.00  0.00    +0.000 A 
ATOM      4  N   UNL     1       7.453   4.746  16.409  0.00  0.00    +0.000 NA
ATOM      5  C   UNL     1       7.186   4.948  17.727  0.00  0.00    +0.000 A 
ATOM      6  N   UNL     1       8.035   5.253  18.684  0.00  0.00    +0.000 NA
ATOM      7  C   UNL     1       7.257   5.335  19.788  0.00  0.00    +0.000 A 
ATOM      8  N   UNL     1       5.961   5.096  19.607  0.00  0.00    +0.000 NA
ATOM      9  N   UNL     1       5.885   4.843  18.263  0.00  0.00    +0.000 N 
ENDROOT
BRANCH   1  10
ATOM     10  N   UNL     1       3.429   4.407  17.994  0.00  0.00    +0.000 N 
BRANCH  10  11
ATOM     11  C   UNL     1       2.947   3.163  18.635  0.00  0.00    +0.000 C 
BRANCH  11  13
ATOM     12  C   UNL     1       1.044   3.277  20.295  0.00  0.00    +0.000 C 
ATOM     13  C   UNL     1       1.427   3.181  18.824  0.00  0.00    +0.000 C 
ENDBRANCH  11  13
ENDBRANCH  10  11
BRANCH  10  14
ATOM     14  C   UNL     1       2.443   5.531  17.838  0.00  0.00    +0.000 C 
BRANCH  14  15
ATOM     15  C   UNL     1       2.622   6.851  18.592  0.00  0.00    +0.000 C 
ATOM     16  F   UNL     1       3.131   6.649  19.833  0.00  0.00    +0.000 F 
ATOM     17  F   UNL     1       3.463   7.689  17.941  0.00  0.00    +0.000 F 
ENDBRANCH  14  15
ENDBRANCH  10  14
ENDBRANCH   1  10
BRANCH   3  18
ATOM     18  C   UNL     1       6.686   4.222  14.170  0.00  0.00    +0.000 C 
BRANCH  18  19
ATOM     19  O   UNL     1       5.475   3.836  13.533  0.00  0.00    +0.000 OA
ATOM     20  C   UNL     1       5.725   3.257  12.258  0.00  0.00    +0.000 C 
ENDBRANCH  18  19
ENDBRANCH   3  18
TORSDOF 7
ENDMDL
MODEL 4
REMARK VINA RESULT:      -6.6      1.183      1.572
REMARK  Name = 
REMARK  9 active torsions:
REMARK  status: ('A' for Active; 'I' for Inactive)
REMARK    1  A    between atoms: C_1  and  C_2
REMARK    2  A    between atoms: C_2  and  C_3
REMARK    3  A    between atoms: C_3  and  N_4
REMARK    4  A    between atoms: N_4  and  C_5
REMARK    5  A    between atoms: N_4  and  C_9
REMARK    6  A    between atoms: C_5  and  C_6
REMARK    7  A    between atoms: C_11  and  C_12
REMARK    8  A    between atoms: C_12  and  O_13
REMARK    9  A    between atoms: O_13  and  C_14
REMARK                            x       y       z     vdW  Elec       q    Type
REMARK                         _______ _______ _______ _____ _____    ______ ____
ROOT
ATOM      1  C   UNL     1       4.710   4.354  17.189  0.00  0.00    +0.000 A 
ATOM      2  C   UNL     1       5.017   4.195  15.883  0.00  0.00    +0.000 A 
ATOM      3  C   UNL     1       6.437   4.377  15.445  0.00  0.00    +0.000 A 
ATOM      4  N   UNL     1       7.425   4.683  16.229  0.00  0.00    +0.000 NA
ATOM      5  C   UNL     1       7.119   4.861  17.542  0.00  0.00    +0.000 A 
ATOM      6  N   UNL     1       7.934   5.184  18.523  0.00  0.00    +0.000 NA
ATOM      7  C   UNL     1       7.126   5.226  19.608  0.00  0.00    +0.000 A 
ATOM      8  N   UNL     1       5.844   4.946  19.393  0.00  0.00    +0.000 NA
ATOM      9  N   UNL     1       5.810   4.706  18.044  0.00  0.00    +0.000 N 
ENDROOT
BRANCH   1  10
ATOM     10  N   UNL     1       3.378   4.189  17.709  0.00  0.00    +0.000 N 
BRANCH  10  11
ATOM     11  C   UNL     1       2.662   5.283  18.404  0.00  0.00    +0.000 C 
BRANCH  11  13
ATOM     12  C   UNL     1       1.323   4.801  20.493  0.00  0.00    +0.000 C 
ATOM     13  C   UNL     1       2.703   5.104  19.925  0.00  0.00    +0.000 C 
ENDBRANCH  11  13
ENDBRANCH  10  11
BRANCH  10  14
ATOM     14  C   UNL     1       2.705   2.845  17.659  0.00  0.00    +0.000 C 
BRANCH  14  15
ATOM     15  C   UNL     1       3.014   1.767  18.701  0.00  0.00    +0.000 C 
ATOM     16  F   UNL     1       4.135   2.064  19.405  0.00  0.00    +0.000 F 
ATOM     17  F   UNL     1       2.003   1.625  19.590  0.00  0.00    +0.000 F 
ENDBRANCH  14  15
ENDBRANCH  10  14
ENDBRANCH   1  10
BRANCH   3  18
ATOM     18  C   UNL     1       6.732   4.159  13.966  0.00  0.00    +0.000 C 
BRANCH  18  19
ATOM     19  O   UNL     1       5.525   3.889  13.267  0.00  0.00    +0.000 OA
ATOM     20  C   UNL     1       5.766   3.115  12.099  0.00  0.00    +0.000 C 
ENDBRANCH  18  19
ENDBRANCH   3  18
TORSDOF 7
ENDMDL
MODEL 5
REMARK VINA RESULT:      -6.5      0.819      1.001
REMARK  Name = 
REMARK  9 active torsions:
REMARK  status: ('A' for Active; 'I' for Inactive)
REMARK    1  A    between atoms: C_1  and  C_2
REMARK    2  A    between atoms: C_2  and  C_3
REMARK    3  A    between atoms: C_3  and  N_4
REMARK    4  A    between atoms: N_4  and  C_5
REMARK    5  A    between atoms: N_4  and  C_9
REMARK    6  A    between atoms: C_5  and  C_6
REMARK    7  A    between atoms: C_11  and  C_12
REMARK    8  A    between atoms: C_12  and  O_13
REMARK    9  A    between atoms: O_13  and  C_14
REMARK                            x       y       z     vdW  Elec       q    Type
REMARK                         _______ _______ _______ _____ _____    ______ ____
ROOT
ATOM      1  C   UNL     1       4.745   4.623  17.546  0.00  0.00    +0.000 A 
ATOM      2  C   UNL     1       4.943   4.359  16.236  0.00  0.00    +0.000 A 
ATOM      3  C   UNL     1       6.343   4.346  15.703  0.00  0.00    +0.000 A 
ATOM      4  N   UNL     1       7.410   4.572  16.406  0.00  0.00    +0.000 NA
ATOM      5  C   UNL     1       7.215   4.855  17.722  0.00  0.00    +0.000 A 
ATOM      6  N   UNL     1       8.126   5.129  18.631  0.00  0.00    +0.000 NA
ATOM      7  C   UNL     1       7.403   5.326  19.758  0.00  0.00    +0.000 A 
ATOM      8  N   UNL     1       6.085   5.190  19.637  0.00  0.00    +0.000 NA
ATOM      9  N   UNL     1       5.933   4.885  18.311  0.00  0.00    +0.000 N 
ENDROOT
BRANCH   1  10
ATOM     10  N   UNL     1       3.441   4.648  18.154  0.00  0.00    +0.000 N 
BRANCH  10  11
ATOM     11  C   UNL     1       2.463   5.724  17.878  0.00  0.00    +0.000 C 
BRANCH  11  13
ATOM     12  C   UNL     1       2.107   8.226  17.846  0.00  0.00    +0.000 C 
ATOM     13  C   UNL     1       2.972   7.085  18.364  0.00  0.00    +0.000 C 
ENDBRANCH  11  13
ENDBRANCH  10  11
BRANCH  10  14
ATOM     14  C   UNL     1       3.067   3.624  19.190  0.00  0.00    +0.000 C 
BRANCH  14  15
ATOM     15  C   UNL     1       3.368   2.138  18.978  0.00  0.00    +0.000 C 
ATOM     16  F   UNL     1       3.251   1.790  17.672  0.00  0.00    +0.000 F 
ATOM     17  F   UNL     1       4.624   1.819  19.370  0.00  0.00    +0.000 F 
ENDBRANCH  14  15
ENDBRANCH  10  14
ENDBRANCH   1  10
BRANCH   3  18
ATOM     18  C   UNL     1       6.511   4.016  14.225  0.00  0.00    +0.000 C 
BRANCH  18  19
ATOM     19  O   UNL     1       5.246   4.042  13.577  0.00  0.00    +0.000 OA
ATOM     20  C   UNL     1       5.286   3.345  12.338  0.00  0.00    +0.000 C 
ENDBRANCH  18  19
ENDBRANCH   3  18
TORSDOF 7
ENDMDL
MODEL 6
REMARK VINA RESULT:      -6.5      1.526      2.407
REMARK  Name = 
REMARK  9 active torsions:
REMARK  status: ('A' for Active; 'I' for Inactive)
REMARK    1  A    between atoms: C_1  and  C_2
REMARK    2  A    between atoms: C_2  and  C_3
REMARK    3  A    between atoms: C_3  and  N_4
REMARK    4  A    between atoms: N_4  and  C_5
REMARK    5  A    between atoms: N_4  and  C_9
REMARK    6  A    between atoms: C_5  and  C_6
REMARK    7  A    between atoms: C_11  and  C_12
REMARK    8  A    between atoms: C_12  and  O_13
REMARK    9  A    between atoms: O_13  and  C_14
REMARK                            x       y       z     vdW  Elec       q    Type
REMARK                         _______ _______ _______ _____ _____    ______ ____
ROOT
ATOM      1  C   UNL     1       5.123   4.018  17.539  0.00  0.00    +0.000 A 
ATOM      2  C   UNL     1       5.311   3.947  16.203  0.00  0.00    +0.000 A 
ATOM      3  C   UNL     1       6.528   4.584  15.607  0.00  0.00    +0.000 A 
ATOM      4  N   UNL     1       7.442   5.215  16.277  0.00  0.00    +0.000 NA
ATOM      5  C   UNL     1       7.250   5.305  17.621  0.00  0.00    +0.000 A 
ATOM      6  N   UNL     1       8.020   5.898  18.507  0.00  0.00    +0.000 NA
ATOM      7  C   UNL     1       7.377   5.688  19.679  0.00  0.00    +0.000 A 
ATOM      8  N   UNL     1       6.246   4.992  19.608  0.00  0.00    +0.000 NA
ATOM      9  N   UNL     1       6.136   4.731  18.268  0.00  0.00    +0.000 N 
ENDROOT
BRANCH   1  10
ATOM     10  N   UNL     1       3.993   3.428  18.207  0.00  0.00    +0.000 N 
BRANCH  10  11
ATOM     11  C   UNL     1       4.134   2.654  19.460  0.00  0.00    +0.000 C 
BRANCH  11  13
ATOM     12  C   UNL     1       2.465   2.819  21.352  0.00  0.00    +0.000 C 
ATOM     13  C   UNL     1       2.772   2.198  19.995  0.00  0.00    +0.000 C 
ENDBRANCH  11  13
ENDBRANCH  10  11
BRANCH  10  14
ATOM     14  C   UNL     1       2.627   3.489  17.581  0.00  0.00    +0.000 C 
BRANCH  14  15
ATOM     15  C   UNL     1       1.678   4.656  17.864  0.00  0.00    +0.000 C 
ATOM     16  F   UNL     1       2.330   5.846  17.827  0.00  0.00    +0.000 F 
ATOM     17  F   UNL     1       0.674   4.717  16.958  0.00  0.00    +0.000 F 
ENDBRANCH  14  15
ENDBRANCH  10  14
ENDBRANCH   1  10
BRANCH   3  18
ATOM     18  C   UNL     1       6.703   4.451  14.099  0.00  0.00    +0.000 C 
BRANCH  18  19
ATOM     19  O   UNL     1       5.541   3.866  13.527  0.00  0.00    +0.000 OA
ATOM     20  C   UNL     1       5.825   3.284  12.261  0.00  0.00    +0.000 C 
ENDBRANCH  18  19
ENDBRANCH   3  18
TORSDOF 7
ENDMDL
MODEL 7
REMARK VINA RESULT:      -6.5      1.532      1.953
REMARK  Name = 
REMARK  9 active torsions:
REMARK  status: ('A' for Active; 'I' for Inactive)
REMARK    1  A    between atoms: C_1  and  C_2
REMARK    2  A    between atoms: C_2  and  C_3
REMARK    3  A    between atoms: C_3  and  N_4
REMARK    4  A    between atoms: N_4  and  C_5
REMARK    5  A    between atoms: N_4  and  C_9
REMARK    6  A    between atoms: C_5  and  C_6
REMARK    7  A    between atoms: C_11  and  C_12
REMARK    8  A    between atoms: C_12  and  O_13
REMARK    9  A    between atoms: O_13  and  C_14
REMARK                            x       y       z     vdW  Elec       q    Type
REMARK                         _______ _______ _______ _____ _____    ______ ____
ROOT
ATOM      1  C   UNL     1       4.763   4.478  17.355  0.00  0.00    +0.000 A 
ATOM      2  C   UNL     1       5.079   4.383  16.044  0.00  0.00    +0.000 A 
ATOM      3  C   UNL     1       6.500   4.602  15.624  0.00  0.00    +0.000 A 
ATOM      4  N   UNL     1       7.480   4.881  16.427  0.00  0.00    +0.000 NA
ATOM      5  C   UNL     1       7.165   4.995  17.745  0.00  0.00    +0.000 A 
ATOM      6  N   UNL     1       7.970   5.280  18.745  0.00  0.00    +0.000 NA
ATOM      7  C   UNL     1       7.156   5.262  19.826  0.00  0.00    +0.000 A 
ATOM      8  N   UNL     1       5.878   4.978  19.590  0.00  0.00    +0.000 NA
ATOM      9  N   UNL     1       5.855   4.801  18.232  0.00  0.00    +0.000 N 
ENDROOT
BRANCH   1  10
ATOM     10  N   UNL     1       3.431   4.274  17.858  0.00  0.00    +0.000 N 
BRANCH  10  11
ATOM     11  C   UNL     1       2.680   5.341  18.558  0.00  0.00    +0.000 C 
BRANCH  11  13
ATOM     12  C   UNL     1       2.259   4.715  20.970  0.00  0.00    +0.000 C 
ATOM     13  C   UNL     1       1.680   4.760  19.562  0.00  0.00    +0.000 C 
ENDBRANCH  11  13
ENDBRANCH  10  11
BRANCH  10  14
ATOM     14  C   UNL     1       2.792   2.914  17.786  0.00  0.00    +0.000 C 
BRANCH  14  15
ATOM     15  C   UNL     1       3.309   1.751  18.636  0.00  0.00    +0.000 C 
ATOM     16  F   UNL     1       4.036   0.879  17.894  0.00  0.00    +0.000 F 
ATOM     17  F   UNL     1       4.102   2.182  19.645  0.00  0.00    +0.000 F 
ENDBRANCH  14  15
ENDBRANCH  10  14
ENDBRANCH   1  10
BRANCH   3  18
ATOM     18  C   UNL     1       6.806   4.456  14.138  0.00  0.00    +0.000 C 
BRANCH  18  19
ATOM     19  O   UNL     1       7.789   5.407  13.752  0.00  0.00    +0.000 OA
ATOM     20  C   UNL     1       7.918   5.471  12.337  0.00  0.00    +0.000 C 
ENDBRANCH  18  19
ENDBRANCH   3  18
TORSDOF 7
ENDMDL
MODEL 8
REMARK VINA RESULT:      -6.5      2.453      3.801
REMARK  Name = 
REMARK  9 active torsions:
REMARK  status: ('A' for Active; 'I' for Inactive)
REMARK    1  A    between atoms: C_1  and  C_2
REMARK    2  A    between atoms: C_2  and  C_3
REMARK    3  A    between atoms: C_3  and  N_4
REMARK    4  A    between atoms: N_4  and  C_5
REMARK    5  A    between atoms: N_4  and  C_9
REMARK    6  A    between atoms: C_5  and  C_6
REMARK    7  A    between atoms: C_11  and  C_12
REMARK    8  A    between atoms: C_12  and  O_13
REMARK    9  A    between atoms: O_13  and  C_14
REMARK                            x       y       z     vdW  Elec       q    Type
REMARK                         _______ _______ _______ _____ _____    ______ ____
ROOT
ATOM      1  C   UNL     1       5.420   5.044  17.990  0.00  0.00    +0.000 A 
ATOM      2  C   UNL     1       6.272   5.908  18.585  0.00  0.00    +0.000 A 
ATOM      3  C   UNL     1       7.332   6.566  17.756  0.00  0.00    +0.000 A 
ATOM      4  N   UNL     1       7.509   6.376  16.485  0.00  0.00    +0.000 NA
ATOM      5  C   UNL     1       6.665   5.494  15.885  0.00  0.00    +0.000 A 
ATOM      6  N   UNL     1       6.649   5.126  14.622  0.00  0.00    +0.000 NA
ATOM      7  C   UNL     1       5.623   4.246  14.560  0.00  0.00    +0.000 A 
ATOM      8  N   UNL     1       4.971   4.028  15.698  0.00  0.00    +0.000 NA
ATOM      9  N   UNL     1       5.636   4.831  16.586  0.00  0.00    +0.000 N 
ENDROOT
BRANCH   1  10
ATOM     10  N   UNL     1       4.363   4.370  18.698  0.00  0.00    +0.000 N 
BRANCH  10  11
ATOM     11  C   UNL     1       3.201   5.097  19.257  0.00  0.00    +0.000 C 
BRANCH  11  13
ATOM     12  C   UNL     1       2.550   7.298  18.198  0.00  0.00    +0.000 C 
ATOM     13  C   UNL     1       2.386   5.784  18.156  0.00  0.00    +0.000 C 
ENDBRANCH  11  13
ENDBRANCH  10  11
BRANCH  10  14
ATOM     14  C   UNL     1       4.465   2.899  18.992  0.00  0.00    +0.000 C 
BRANCH  14  15
ATOM     15  C   UNL     1       3.360   1.929  18.565  0.00  0.00    +0.000 C 
ATOM     16  F   UNL     1       2.361   1.880  19.481  0.00  0.00    +0.000 F 
ATOM     17  F   UNL     1       2.807   2.289  17.383  0.00  0.00    +0.000 F 
ENDBRANCH  14  15
ENDBRANCH  10  14
ENDBRANCH   1  10
BRANCH   3  18
ATOM     18  C   UNL     1       8.248   7.553  18.471  0.00  0.00    +0.000 C 
BRANCH  18  19
ATOM     19  O   UNL     1       8.102   8.847  17.903  0.00  0.00    +0.000 OA
ATOM     20  C   UNL     1       8.863   9.813  18.618  0.00  0.00    +0.000 C 
ENDBRANCH  18  19
ENDBRANCH   3  18
TORSDOF 7
ENDMDL
MODEL 9
REMARK VINA RESULT:      -6.4      3.174      5.708
REMARK  Name = 
REMARK  9 active torsions:
REMARK  status: ('A' for Active; 'I' for Inactive)
REMARK    1  A    between atoms: C_1  and  C_2
REMARK    2  A    between atoms: C_2  and  C_3
REMARK    3  A    between atoms: C_3  and  N_4
REMARK    4  A    between atoms: N_4  and  C_5
REMARK    5  A    between atoms: N_4  and  C_9
REMARK    6  A    between atoms: C_5  and  C_6
REMARK    7  A    between atoms: C_11  and  C_12
REMARK    8  A    between atoms: C_12  and  O_13
REMARK    9  A    between atoms: O_13  and  C_14
REMARK                            x       y       z     vdW  Elec       q    Type
REMARK                         _______ _______ _______ _____ _____    ______ ____
ROOT
ATOM      1  C   UNL     1       4.365   4.638  17.300  0.00  0.00    +0.000 A 
ATOM      2  C   UNL     1       3.783   3.549  17.847  0.00  0.00    +0.000 A 
ATOM      3  C   UNL     1       2.556   3.728  18.688  0.00  0.00    +0.000 A 
ATOM      4  N   UNL     1       1.988   4.866  18.944  0.00  0.00    +0.000 NA
ATOM      5  C   UNL     1       2.579   5.968  18.410  0.00  0.00    +0.000 A 
ATOM      6  N   UNL     1       2.206   7.223  18.533  0.00  0.00    +0.000 NA
ATOM      7  C   UNL     1       3.126   7.902  17.810  0.00  0.00    +0.000 A 
ATOM      8  N   UNL     1       4.066   7.167  17.223  0.00  0.00    +0.000 NA
ATOM      9  N   UNL     1       3.734   5.894  17.602  0.00  0.00    +0.000 N 
ENDROOT
BRANCH   1  10
ATOM     10  N   UNL     1       5.538   4.569  16.470  0.00  0.00    +0.000 N 
BRANCH  10  11
ATOM     11  C   UNL     1       6.905   4.540  17.037  0.00  0.00    +0.000 C 
BRANCH  11  13
ATOM     12  C   UNL     1       7.728   5.926  18.984  0.00  0.00    +0.000 C 
ATOM     13  C   UNL     1       7.347   5.929  17.509  0.00  0.00    +0.000 C 
ENDBRANCH  11  13
ENDBRANCH  10  11
BRANCH  10  14
ATOM     14  C   UNL     1       5.413   4.636  14.973  0.00  0.00    +0.000 C 
BRANCH  14  15
ATOM     15  C   UNL     1       6.514   4.090  14.061  0.00  0.00    +0.000 C 
ATOM     16  F   UNL     1       6.001   3.570  12.918  0.00  0.00    +0.000 F 
ATOM     17  F   UNL     1       7.396   5.054  13.707  0.00  0.00    +0.000 F 
ENDBRANCH  14  15
ENDBRANCH  10  14
ENDBRANCH   1  10
BRANCH   3  18
ATOM     18  C   UNL     1       1.924   2.463  19.258  0.00  0.00    +0.000 C 
BRANCH  18  19
ATOM     19  O   UNL     1       1.034   2.801  20.314  0.00  0.00    +0.000 OA
ATOM     20  C   UNL     1       1.645   2.611  21.584  0.00  0.00    +0.000 C 
ENDBRANCH  18  19
ENDBRANCH   3  18
TORSDOF 7
ENDMDL
