MODEL 1
REMARK VINA RESULT:      -7.8      0.000      0.000
REMARK  Name = 
REMARK  11 active torsions:
REMARK  status: ('A' for Active; 'I' for Inactive)
REMARK    1  A    between atoms: C_2  and  C_3
REMARK    2  A    between atoms: C_2  and  O_11
REMARK    3  A    between atoms: C_4  and  C_5
REMARK    4  A    between atoms: O_11  and  C_12
REMARK    5  A    between atoms: C_12  and  C_13
REMARK    6  A    between atoms: C_13  and  C_14
REMARK    7  A    between atoms: C_14  and  C_15
REMARK    8  A    between atoms: N_17  and  C_18
REMARK    9  A    between atoms: C_18  and  C_19
REMARK   10  A    between atoms: C_22  and  O_23
REMARK   11  A    between atoms: O_23  and  C_24
REMARK                            x       y       z     vdW  Elec       q    Type
REMARK                         _______ _______ _______ _____ _____    ______ ____
ROOT
ATOM      1  C   UNL     1       1.522   3.023  18.938  0.00  0.00    +0.000 A 
ATOM      2  C   UNL     1       2.767   2.482  18.702  0.00  0.00    +0.000 A 
ATOM      3  N   UNL     1       3.035   2.823  17.408  0.00  0.00    +0.000 N 
ATOM      4  N   UNL     1       2.037   3.557  16.882  0.00  0.00    +0.000 NA
ATOM      5  N   UNL     1       1.097   3.672  17.806  0.00  0.00    +0.000 NA
ENDROOT
BRANCH   1   6
ATOM      6  C   UNL     1       0.700   2.974  20.175  0.00  0.00    +0.000 C 
BRANCH   6   7
ATOM      7  C   UNL     1       1.517   3.135  21.459  0.00  0.00    +0.000 C 
BRANCH   7   8
ATOM      8  C   UNL     1       2.231   4.479  21.522  0.00  0.00    +0.000 C 
BRANCH   8   9
ATOM      9  O   UNL     1       1.504   5.436  20.738  0.00  0.00    +0.000 OA
BRANCH   9  11
ATOM     10  O   UNL     1       3.220   6.247  19.440  0.00  0.00    +0.000 OA
ATOM     11  C   UNL     1       2.225   6.405  20.129  0.00  0.00    +0.000 C 
BRANCH  11  12
ATOM     12  C   UNL     1       1.668   7.746  20.400  0.00  0.00    +0.000 C 
ATOM     13  C   UNL     1       0.909   8.045  21.467  0.00  0.00    +0.000 C 
BRANCH  13  14
ATOM     14  C   UNL     1       0.305   9.363  21.709  0.00  0.00    +0.000 A 
ATOM     15  C   UNL     1       0.501  10.370  20.752  0.00  0.00    +0.000 A 
ATOM     16  C   UNL     1      -0.034  11.645  20.941  0.00  0.00    +0.000 A 
ATOM     17  C   UNL     1      -0.781  11.926  22.081  0.00  0.00    +0.000 A 
ATOM     18  C   UNL     1      -1.007  10.927  23.025  0.00  0.00    +0.000 A 
ATOM     19  C   UNL     1      -0.474   9.649  22.837  0.00  0.00    +0.000 A 
ENDBRANCH  13  14
ENDBRANCH  11  12
ENDBRANCH   9  11
ENDBRANCH   8   9
ENDBRANCH   7   8
ENDBRANCH   6   7
ENDBRANCH   1   6
BRANCH   3  20
ATOM     20  C   UNL     1       4.239   2.565  16.645  0.00  0.00    +0.000 C 
BRANCH  20  21
ATOM     21  C   UNL     1       5.158   3.765  16.606  0.00  0.00    +0.000 A 
ATOM     22  C   UNL     1       5.835   4.193  17.756  0.00  0.00    +0.000 A 
ATOM     23  C   UNL     1       6.722   5.270  17.696  0.00  0.00    +0.000 A 
ATOM     24  C   UNL     1       6.966   5.925  16.487  0.00  0.00    +0.000 A 
ATOM     25  C   UNL     1       6.261   5.538  15.351  0.00  0.00    +0.000 A 
ATOM     26  C   UNL     1       5.377   4.453  15.405  0.00  0.00    +0.000 A 
BRANCH  24  27
ATOM     27  O   UNL     1       7.852   6.955  16.563  0.00  0.00    +0.000 OA
BRANCH  27  28
ATOM     28  C   UNL     1       7.740   7.901  17.616  0.00  0.00    +0.000 C 
ATOM     29  F   UNL     1       6.473   8.251  17.925  0.00  0.00    +0.000 F 
ATOM     30  F   UNL     1       8.332   7.403  18.724  0.00  0.00    +0.000 F 
ATOM     31  F   UNL     1       8.401   9.026  17.258  0.00  0.00    +0.000 F 
ENDBRANCH  27  28
ENDBRANCH  24  27
ENDBRANCH  20  21
ENDBRANCH   3  20
TORSDOF 11
ENDMDL
MODEL 2
REMARK VINA RESULT:      -7.8      5.699      8.429
REMARK  Name = 
REMARK  11 active torsions:
REMARK  status: ('A' for Active; 'I' for Inactive)
REMARK    1  A    between atoms: C_2  and  C_3
REMARK    2  A    between atoms: C_2  and  O_11
REMARK    3  A    between atoms: C_4  and  C_5
REMARK    4  A    between atoms: O_11  and  C_12
REMARK    5  A    between atoms: C_12  and  C_13
REMARK    6  A    between atoms: C_13  and  C_14
REMARK    7  A    between atoms: C_14  and  C_15
REMARK    8  A    between atoms: N_17  and  C_18
REMARK    9  A    between atoms: C_18  and  C_19
REMARK   10  A    between atoms: C_22  and  O_23
REMARK   11  A    between atoms: O_23  and  C_24
REMARK                            x       y       z     vdW  Elec       q    Type
REMARK                         _______ _______ _______ _____ _____    ______ ____
ROOT
ATOM      1  C   UNL     1       8.317   8.683  18.398  0.00  0.00    +0.000 A 
ATOM      2  C   UNL     1       8.366   7.375  18.829  0.00  0.00    +0.000 A 
ATOM      3  N   UNL     1       7.557   6.709  17.954  0.00  0.00    +0.000 N 
ATOM      4  N   UNL     1       7.061   7.542  17.020  0.00  0.00    +0.000 NA
ATOM      5  N   UNL     1       7.507   8.757  17.292  0.00  0.00    +0.000 NA
ENDROOT
BRANCH   1   6
ATOM      6  C   UNL     1       8.993   9.880  18.963  0.00  0.00    +0.000 C 
BRANCH   6   7
ATOM      7  C   UNL     1       9.633  10.777  17.901  0.00  0.00    +0.000 C 
BRANCH   7   8
ATOM      8  C   UNL     1       8.933  12.125  17.788  0.00  0.00    +0.000 C 
BRANCH   8   9
ATOM      9  O   UNL     1       9.912  13.172  17.848  0.00  0.00    +0.000 OA
BRANCH   9  11
ATOM     10  O   UNL     1       9.716  15.446  18.125  0.00  0.00    +0.000 OA
ATOM     11  C   UNL     1       9.565  14.299  18.511  0.00  0.00    +0.000 C 
BRANCH  11  12
ATOM     12  C   UNL     1       8.961  13.989  19.824  0.00  0.00    +0.000 C 
ATOM     13  C   UNL     1       9.662  13.604  20.903  0.00  0.00    +0.000 C 
BRANCH  13  14
ATOM     14  C   UNL     1       9.058  13.240  22.193  0.00  0.00    +0.000 A 
ATOM     15  C   UNL     1       8.604  11.925  22.367  0.00  0.00    +0.000 A 
ATOM     16  C   UNL     1       8.006  11.531  23.565  0.00  0.00    +0.000 A 
ATOM     17  C   UNL     1       7.865  12.443  24.607  0.00  0.00    +0.000 A 
ATOM     18  C   UNL     1       8.339  13.744  24.458  0.00  0.00    +0.000 A 
ATOM     19  C   UNL     1       8.939  14.139  23.260  0.00  0.00    +0.000 A 
ENDBRANCH  13  14
ENDBRANCH  11  12
ENDBRANCH   9  11
ENDBRANCH   8   9
ENDBRANCH   7   8
ENDBRANCH   6   7
ENDBRANCH   1   6
BRANCH   3  20
ATOM     20  C   UNL     1       7.282   5.288  17.892  0.00  0.00    +0.000 C 
BRANCH  20  21
ATOM     21  C   UNL     1       5.807   4.986  18.026  0.00  0.00    +0.000 A 
ATOM     22  C   UNL     1       5.098   4.372  16.984  0.00  0.00    +0.000 A 
ATOM     23  C   UNL     1       3.749   4.050  17.139  0.00  0.00    +0.000 A 
ATOM     24  C   UNL     1       3.087   4.314  18.340  0.00  0.00    +0.000 A 
ATOM     25  C   UNL     1       3.770   4.968  19.361  0.00  0.00    +0.000 A 
ATOM     26  C   UNL     1       5.126   5.285  19.213  0.00  0.00    +0.000 A 
BRANCH  24  27
ATOM     27  O   UNL     1       1.776   3.950  18.363  0.00  0.00    +0.000 OA
BRANCH  27  28
ATOM     28  C   UNL     1       1.328   3.003  19.323  0.00  0.00    +0.000 C 
ATOM     29  F   UNL     1       0.282   2.249  18.922  0.00  0.00    +0.000 F 
ATOM     30  F   UNL     1       2.352   2.183  19.647  0.00  0.00    +0.000 F 
ATOM     31  F   UNL     1       0.953   3.665  20.441  0.00  0.00    +0.000 F 
ENDBRANCH  27  28
ENDBRANCH  24  27
ENDBRANCH  20  21
ENDBRANCH   3  20
TORSDOF 11
ENDMDL
MODEL 3
REMARK VINA RESULT:      -7.7      5.149      7.767
REMARK  Name = 
REMARK  11 active torsions:
REMARK  status: ('A' for Active; 'I' for Inactive)
REMARK    1  A    between atoms: C_2  and  C_3
REMARK    2  A    between atoms: C_2  and  O_11
REMARK    3  A    between atoms: C_4  and  C_5
REMARK    4  A    between atoms: O_11  and  C_12
REMARK    5  A    between atoms: C_12  and  C_13
REMARK    6  A    between atoms: C_13  and  C_14
REMARK    7  A    between atoms: C_14  and  C_15
REMARK    8  A    between atoms: N_17  and  C_18
REMARK    9  A    between atoms: C_18  and  C_19
REMARK   10  A    between atoms: C_22  and  O_23
REMARK   11  A    between atoms: O_23  and  C_24
REMARK                            x       y       z     vdW  Elec       q    Type
REMARK                         _______ _______ _______ _____ _____    ______ ____
ROOT
ATOM      1  C   UNL     1       6.713   7.087  17.165  0.00  0.00    +0.000 A 
ATOM      2  C   UNL     1       5.576   6.309  17.122  0.00  0.00    +0.000 A 
ATOM      3  N   UNL     1       5.894   5.311  16.247  0.00  0.00    +0.000 N 
ATOM      4  N   UNL     1       7.156   5.439  15.799  0.00  0.00    +0.000 NA
ATOM      5  N   UNL     1       7.663   6.534  16.342  0.00  0.00    +0.000 NA
ENDROOT
BRANCH   1   6
ATOM      6  C   UNL     1       6.969   8.328  17.942  0.00  0.00    +0.000 C 
BRANCH   6   7
ATOM      7  C   UNL     1       8.288   9.015  17.580  0.00  0.00    +0.000 C 
BRANCH   7   8
ATOM      8  C   UNL     1       8.840   9.843  18.732  0.00  0.00    +0.000 C 
BRANCH   8   9
ATOM      9  O   UNL     1       9.858  10.724  18.234  0.00  0.00    +0.000 OA
BRANCH   9  11
ATOM     10  O   UNL     1      11.662  11.933  18.991  0.00  0.00    +0.000 OA
ATOM     11  C   UNL     1      10.563  11.427  19.150  0.00  0.00    +0.000 C 
BRANCH  11  12
ATOM     12  C   UNL     1       9.838  11.520  20.435  0.00  0.00    +0.000 C 
ATOM     13  C   UNL     1       9.547  12.676  21.054  0.00  0.00    +0.000 C 
BRANCH  13  14
ATOM     14  C   UNL     1       8.878  12.769  22.359  0.00  0.00    +0.000 A 
ATOM     15  C   UNL     1       8.275  11.615  22.881  0.00  0.00    +0.000 A 
ATOM     16  C   UNL     1       7.611  11.652  24.108  0.00  0.00    +0.000 A 
ATOM     17  C   UNL     1       7.550  12.839  24.832  0.00  0.00    +0.000 A 
ATOM     18  C   UNL     1       8.170  13.985  24.339  0.00  0.00    +0.000 A 
ATOM     19  C   UNL     1       8.837  13.949  23.112  0.00  0.00    +0.000 A 
ENDBRANCH  13  14
ENDBRANCH  11  12
ENDBRANCH   9  11
ENDBRANCH   8   9
ENDBRANCH   7   8
ENDBRANCH   6   7
ENDBRANCH   1   6
BRANCH   3  20
ATOM     20  C   UNL     1       5.089   4.169  15.862  0.00  0.00    +0.000 C 
BRANCH  20  21
ATOM     21  C   UNL     1       4.258   3.644  17.010  0.00  0.00    +0.000 A 
ATOM     22  C   UNL     1       4.862   3.184  18.188  0.00  0.00    +0.000 A 
ATOM     23  C   UNL     1       4.082   2.751  19.262  0.00  0.00    +0.000 A 
ATOM     24  C   UNL     1       2.688   2.788  19.190  0.00  0.00    +0.000 A 
ATOM     25  C   UNL     1       2.080   3.197  18.006  0.00  0.00    +0.000 A 
ATOM     26  C   UNL     1       2.859   3.640  16.930  0.00  0.00    +0.000 A 
BRANCH  24  27
ATOM     27  O   UNL     1       2.045   2.342  20.303  0.00  0.00    +0.000 OA
BRANCH  27  28
ATOM     28  C   UNL     1       1.474   3.278  21.206  0.00  0.00    +0.000 C 
ATOM     29  F   UNL     1       0.563   4.107  20.655  0.00  0.00    +0.000 F 
ATOM     30  F   UNL     1       0.888   2.609  22.224  0.00  0.00    +0.000 F 
ATOM     31  F   UNL     1       2.465   4.040  21.721  0.00  0.00    +0.000 F 
ENDBRANCH  27  28
ENDBRANCH  24  27
ENDBRANCH  20  21
ENDBRANCH   3  20
TORSDOF 11
ENDMDL
MODEL 4
REMARK VINA RESULT:      -7.7      5.677      7.950
REMARK  Name = 
REMARK  11 active torsions:
REMARK  status: ('A' for Active; 'I' for Inactive)
REMARK    1  A    between atoms: C_2  and  C_3
REMARK    2  A    between atoms: C_2  and  O_11
REMARK    3  A    between atoms: C_4  and  C_5
REMARK    4  A    between atoms: O_11  and  C_12
REMARK    5  A    between atoms: C_12  and  C_13
REMARK    6  A    between atoms: C_13  and  C_14
REMARK    7  A    between atoms: C_14  and  C_15
REMARK    8  A    between atoms: N_17  and  C_18
REMARK    9  A    between atoms: C_18  and  C_19
REMARK   10  A    between atoms: C_22  and  O_23
REMARK   11  A    between atoms: O_23  and  C_24
REMARK                            x       y       z     vdW  Elec       q    Type
REMARK                         _______ _______ _______ _____ _____    ______ ____
ROOT
ATOM      1  C   UNL     1       8.272   8.430  18.376  0.00  0.00    +0.000 A 
ATOM      2  C   UNL     1       8.167   7.150  18.875  0.00  0.00    +0.000 A 
ATOM      3  N   UNL     1       7.491   6.472  17.902  0.00  0.00    +0.000 N 
ATOM      4  N   UNL     1       7.220   7.269  16.852  0.00  0.00    +0.000 NA
ATOM      5  N   UNL     1       7.679   8.476  17.138  0.00  0.00    +0.000 NA
ENDROOT
BRANCH   1   6
ATOM      6  C   UNL     1       8.904   9.626  18.992  0.00  0.00    +0.000 C 
BRANCH   6   7
ATOM      7  C   UNL     1       9.559  10.564  17.974  0.00  0.00    +0.000 C 
BRANCH   7   8
ATOM      8  C   UNL     1       9.959  11.896  18.594  0.00  0.00    +0.000 C 
BRANCH   8   9
ATOM      9  O   UNL     1       9.678  11.864  20.001  0.00  0.00    +0.000 OA
BRANCH   9  11
ATOM     10  O   UNL     1       8.964  14.050  19.980  0.00  0.00    +0.000 OA
ATOM     11  C   UNL     1       9.166  12.989  20.550  0.00  0.00    +0.000 C 
BRANCH  11  12
ATOM     12  C   UNL     1       8.865  12.803  21.985  0.00  0.00    +0.000 C 
ATOM     13  C   UNL     1       7.752  12.215  22.451  0.00  0.00    +0.000 C 
BRANCH  13  14
ATOM     14  C   UNL     1       7.424  12.081  23.877  0.00  0.00    +0.000 A 
ATOM     15  C   UNL     1       6.206  11.482  24.227  0.00  0.00    +0.000 A 
ATOM     16  C   UNL     1       5.837  11.346  25.566  0.00  0.00    +0.000 A 
ATOM     17  C   UNL     1       6.686  11.798  26.572  0.00  0.00    +0.000 A 
ATOM     18  C   UNL     1       7.912  12.369  26.240  0.00  0.00    +0.000 A 
ATOM     19  C   UNL     1       8.284  12.503  24.900  0.00  0.00    +0.000 A 
ENDBRANCH  13  14
ENDBRANCH  11  12
ENDBRANCH   9  11
ENDBRANCH   8   9
ENDBRANCH   7   8
ENDBRANCH   6   7
ENDBRANCH   1   6
BRANCH   3  20
ATOM     20  C   UNL     1       7.149   5.064  17.865  0.00  0.00    +0.000 C 
BRANCH  20  21
ATOM     21  C   UNL     1       5.664   4.833  18.031  0.00  0.00    +0.000 A 
ATOM     22  C   UNL     1       4.910   4.226  17.018  0.00  0.00    +0.000 A 
ATOM     23  C   UNL     1       3.550   3.970  17.204  0.00  0.00    +0.000 A 
ATOM     24  C   UNL     1       2.923   4.293  18.409  0.00  0.00    +0.000 A 
ATOM     25  C   UNL     1       3.653   4.941  19.402  0.00  0.00    +0.000 A 
ATOM     26  C   UNL     1       5.019   5.192  19.222  0.00  0.00    +0.000 A 
BRANCH  24  27
ATOM     27  O   UNL     1       1.597   3.990  18.464  0.00  0.00    +0.000 OA
BRANCH  27  28
ATOM     28  C   UNL     1       1.166   2.866  19.218  0.00  0.00    +0.000 C 
ATOM     29  F   UNL     1       0.200   2.131  18.628  0.00  0.00    +0.000 F 
ATOM     30  F   UNL     1       2.226   2.066  19.466  0.00  0.00    +0.000 F 
ATOM     31  F   UNL     1       0.684   3.302  20.405  0.00  0.00    +0.000 F 
ENDBRANCH  27  28
ENDBRANCH  24  27
ENDBRANCH  20  21
ENDBRANCH   3  20
TORSDOF 11
ENDMDL
MODEL 5
REMARK VINA RESULT:      -7.6      4.527      8.297
REMARK  Name = 
REMARK  11 active torsions:
REMARK  status: ('A' for Active; 'I' for Inactive)
REMARK    1  A    between atoms: C_2  and  C_3
REMARK    2  A    between atoms: C_2  and  O_11
REMARK    3  A    between atoms: C_4  and  C_5
REMARK    4  A    between atoms: O_11  and  C_12
REMARK    5  A    between atoms: C_12  and  C_13
REMARK    6  A    between atoms: C_13  and  C_14
REMARK    7  A    between atoms: C_14  and  C_15
REMARK    8  A    between atoms: N_17  and  C_18
REMARK    9  A    between atoms: C_18  and  C_19
REMARK   10  A    between atoms: C_22  and  O_23
REMARK   11  A    between atoms: O_23  and  C_24
REMARK                            x       y       z     vdW  Elec       q    Type
REMARK                         _______ _______ _______ _____ _____    ______ ____
ROOT
ATOM      1  C   UNL     1       1.811   6.124  20.482  0.00  0.00    +0.000 A 
ATOM      2  C   UNL     1       1.338   7.241  21.136  0.00  0.00    +0.000 A 
ATOM      3  N   UNL     1       1.687   8.275  20.316  0.00  0.00    +0.000 N 
ATOM      4  N   UNL     1       2.307   7.829  19.208  0.00  0.00    +0.000 NA
ATOM      5  N   UNL     1       2.404   6.514  19.307  0.00  0.00    +0.000 NA
ENDROOT
BRANCH   1   6
ATOM      6  C   UNL     1       1.736   4.698  20.893  0.00  0.00    +0.000 C 
BRANCH   6   7
ATOM      7  C   UNL     1       0.745   3.874  20.065  0.00  0.00    +0.000 C 
BRANCH   7   8
ATOM      8  C   UNL     1       1.334   2.541  19.623  0.00  0.00    +0.000 C 
BRANCH   8   9
ATOM      9  O   UNL     1       2.716   2.486  20.007  0.00  0.00    +0.000 OA
BRANCH   9  11
ATOM     10  O   UNL     1       3.654   1.479  18.164  0.00  0.00    +0.000 OA
ATOM     11  C   UNL     1       3.624   2.356  19.013  0.00  0.00    +0.000 C 
BRANCH  11  12
ATOM     12  C   UNL     1       4.636   3.431  19.061  0.00  0.00    +0.000 C 
ATOM     13  C   UNL     1       4.854   4.306  18.065  0.00  0.00    +0.000 C 
BRANCH  13  14
ATOM     14  C   UNL     1       5.899   5.339  18.088  0.00  0.00    +0.000 A 
ATOM     15  C   UNL     1       5.769   6.436  17.223  0.00  0.00    +0.000 A 
ATOM     16  C   UNL     1       6.742   7.436  17.191  0.00  0.00    +0.000 A 
ATOM     17  C   UNL     1       7.850   7.358  18.029  0.00  0.00    +0.000 A 
ATOM     18  C   UNL     1       7.977   6.289  18.913  0.00  0.00    +0.000 A 
ATOM     19  C   UNL     1       7.003   5.288  18.948  0.00  0.00    +0.000 A 
ENDBRANCH  13  14
ENDBRANCH  11  12
ENDBRANCH   9  11
ENDBRANCH   8   9
ENDBRANCH   7   8
ENDBRANCH   6   7
ENDBRANCH   1   6
BRANCH   3  20
ATOM     20  C   UNL     1       1.390   9.684  20.476  0.00  0.00    +0.000 C 
BRANCH  20  21
ATOM     21  C   UNL     1       0.212  10.119  19.632  0.00  0.00    +0.000 A 
ATOM     22  C   UNL     1      -0.757  10.994  20.140  0.00  0.00    +0.000 A 
ATOM     23  C   UNL     1      -1.810  11.429  19.334  0.00  0.00    +0.000 A 
ATOM     24  C   UNL     1      -1.905  11.019  18.002  0.00  0.00    +0.000 A 
ATOM     25  C   UNL     1      -0.974  10.111  17.505  0.00  0.00    +0.000 A 
ATOM     26  C   UNL     1       0.088   9.678  18.307  0.00  0.00    +0.000 A 
BRANCH  24  27
ATOM     27  O   UNL     1      -2.975  11.516  17.325  0.00  0.00    +0.000 OA
BRANCH  27  28
ATOM     28  C   UNL     1      -4.059  10.659  16.999  0.00  0.00    +0.000 C 
ATOM     29  F   UNL     1      -5.271  11.251  17.024  0.00  0.00    +0.000 F 
ATOM     30  F   UNL     1      -3.858  10.139  15.768  0.00  0.00    +0.000 F 
ATOM     31  F   UNL     1      -4.083   9.637  17.886  0.00  0.00    +0.000 F 
ENDBRANCH  27  28
ENDBRANCH  24  27
ENDBRANCH  20  21
ENDBRANCH   3  20
TORSDOF 11
ENDMDL
MODEL 6
REMARK VINA RESULT:      -7.6      5.280      8.088
REMARK  Name = 
REMARK  11 active torsions:
REMARK  status: ('A' for Active; 'I' for Inactive)
REMARK    1  A    between atoms: C_2  and  C_3
REMARK    2  A    between atoms: C_2  and  O_11
REMARK    3  A    between atoms: C_4  and  C_5
REMARK    4  A    between atoms: O_11  and  C_12
REMARK    5  A    between atoms: C_12  and  C_13
REMARK    6  A    between atoms: C_13  and  C_14
REMARK    7  A    between atoms: C_14  and  C_15
REMARK    8  A    between atoms: N_17  and  C_18
REMARK    9  A    between atoms: C_18  and  C_19
REMARK   10  A    between atoms: C_22  and  O_23
REMARK   11  A    between atoms: O_23  and  C_24
REMARK                            x       y       z     vdW  Elec       q    Type
REMARK                         _______ _______ _______ _____ _____    ______ ____
ROOT
ATOM      1  C   UNL     1       7.083   6.819  17.338  0.00  0.00    +0.000 A 
ATOM      2  C   UNL     1       6.787   5.479  17.455  0.00  0.00    +0.000 A 
ATOM      3  N   UNL     1       5.764   5.289  16.572  0.00  0.00    +0.000 N 
ATOM      4  N   UNL     1       5.463   6.429  15.923  0.00  0.00    +0.000 NA
ATOM      5  N   UNL     1       6.254   7.378  16.397  0.00  0.00    +0.000 NA
ENDROOT
BRANCH   1   6
ATOM      6  C   UNL     1       8.109   7.617  18.059  0.00  0.00    +0.000 C 
BRANCH   6   7
ATOM      7  C   UNL     1       8.017   9.121  17.785  0.00  0.00    +0.000 C 
BRANCH   7   8
ATOM      8  C   UNL     1       8.916   9.930  18.710  0.00  0.00    +0.000 C 
BRANCH   8   9
ATOM      9  O   UNL     1       9.795  10.743  17.920  0.00  0.00    +0.000 OA
BRANCH   9  11
ATOM     10  O   UNL     1      11.880  11.566  18.438  0.00  0.00    +0.000 OA
ATOM     11  C   UNL     1      10.669  11.530  18.589  0.00  0.00    +0.000 C 
BRANCH  11  12
ATOM     12  C   UNL     1       9.980  12.382  19.581  0.00  0.00    +0.000 C 
ATOM     13  C   UNL     1      10.276  12.402  20.891  0.00  0.00    +0.000 C 
BRANCH  13  14
ATOM     14  C   UNL     1       9.555  13.205  21.888  0.00  0.00    +0.000 A 
ATOM     15  C   UNL     1       9.915  14.551  22.047  0.00  0.00    +0.000 A 
ATOM     16  C   UNL     1       9.275  15.353  22.993  0.00  0.00    +0.000 A 
ATOM     17  C   UNL     1       8.258  14.823  23.783  0.00  0.00    +0.000 A 
ATOM     18  C   UNL     1       7.870  13.495  23.615  0.00  0.00    +0.000 A 
ATOM     19  C   UNL     1       8.509  12.692  22.667  0.00  0.00    +0.000 A 
ENDBRANCH  13  14
ENDBRANCH  11  12
ENDBRANCH   9  11
ENDBRANCH   8   9
ENDBRANCH   7   8
ENDBRANCH   6   7
ENDBRANCH   1   6
BRANCH   3  20
ATOM     20  C   UNL     1       5.092   4.051  16.233  0.00  0.00    +0.000 C 
BRANCH  20  21
ATOM     21  C   UNL     1       4.139   3.603  17.318  0.00  0.00    +0.000 A 
ATOM     22  C   UNL     1       3.485   4.535  18.135  0.00  0.00    +0.000 A 
ATOM     23  C   UNL     1       2.568   4.112  19.098  0.00  0.00    +0.000 A 
ATOM     24  C   UNL     1       2.269   2.757  19.251  0.00  0.00    +0.000 A 
ATOM     25  C   UNL     1       2.951   1.821  18.478  0.00  0.00    +0.000 A 
ATOM     26  C   UNL     1       3.865   2.241  17.505  0.00  0.00    +0.000 A 
BRANCH  24  27
ATOM     27  O   UNL     1       1.358   2.477  20.222  0.00  0.00    +0.000 OA
BRANCH  27  28
ATOM     28  C   UNL     1       1.652   2.797  21.574  0.00  0.00    +0.000 C 
ATOM     29  F   UNL     1       2.849   2.350  22.009  0.00  0.00    +0.000 F 
ATOM     30  F   UNL     1       1.609   4.138  21.731  0.00  0.00    +0.000 F 
ATOM     31  F   UNL     1       0.698   2.252  22.364  0.00  0.00    +0.000 F 
ENDBRANCH  27  28
ENDBRANCH  24  27
ENDBRANCH  20  21
ENDBRANCH   3  20
TORSDOF 11
ENDMDL
MODEL 7
REMARK VINA RESULT:      -7.6      5.429      9.623
REMARK  Name = 
REMARK  11 active torsions:
REMARK  status: ('A' for Active; 'I' for Inactive)
REMARK    1  A    between atoms: C_2  and  C_3
REMARK    2  A    between atoms: C_2  and  O_11
REMARK    3  A    between atoms: C_4  and  C_5
REMARK    4  A    between atoms: O_11  and  C_12
REMARK    5  A    between atoms: C_12  and  C_13
REMARK    6  A    between atoms: C_13  and  C_14
REMARK    7  A    between atoms: C_14  and  C_15
REMARK    8  A    between atoms: N_17  and  C_18
REMARK    9  A    between atoms: C_18  and  C_19
REMARK   10  A    between atoms: C_22  and  O_23
REMARK   11  A    between atoms: O_23  and  C_24
REMARK                            x       y       z     vdW  Elec       q    Type
REMARK                         _______ _______ _______ _____ _____    ______ ____
ROOT
ATOM      1  C   UNL     1       1.887   7.901  19.703  0.00  0.00    +0.000 A 
ATOM      2  C   UNL     1       1.618   8.766  18.665  0.00  0.00    +0.000 A 
ATOM      3  N   UNL     1       0.883   9.759  19.246  0.00  0.00    +0.000 N 
ATOM      4  N   UNL     1       0.732   9.544  20.566  0.00  0.00    +0.000 NA
ATOM      5  N   UNL     1       1.329   8.399  20.854  0.00  0.00    +0.000 NA
ENDROOT
BRANCH   1   6
ATOM      6  C   UNL     1       2.648   6.624  19.684  0.00  0.00    +0.000 C 
BRANCH   6   7
ATOM      7  C   UNL     1       2.190   5.624  20.748  0.00  0.00    +0.000 C 
BRANCH   7   8
ATOM      8  C   UNL     1       1.199   4.609  20.195  0.00  0.00    +0.000 C 
BRANCH   8   9
ATOM      9  O   UNL     1       1.784   3.300  20.251  0.00  0.00    +0.000 OA
BRANCH   9  11
ATOM     10  O   UNL     1       1.313   1.902  18.486  0.00  0.00    +0.000 OA
ATOM     11  C   UNL     1       2.038   2.691  19.070  0.00  0.00    +0.000 C 
BRANCH  11  12
ATOM     12  C   UNL     1       3.356   3.087  18.530  0.00  0.00    +0.000 C 
ATOM     13  C   UNL     1       3.525   3.828  17.424  0.00  0.00    +0.000 C 
BRANCH  13  14
ATOM     14  C   UNL     1       4.834   4.174  16.853  0.00  0.00    +0.000 A 
ATOM     15  C   UNL     1       4.936   4.321  15.462  0.00  0.00    +0.000 A 
ATOM     16  C   UNL     1       6.160   4.631  14.866  0.00  0.00    +0.000 A 
ATOM     17  C   UNL     1       7.294   4.808  15.654  0.00  0.00    +0.000 A 
ATOM     18  C   UNL     1       7.200   4.694  17.039  0.00  0.00    +0.000 A 
ATOM     19  C   UNL     1       5.975   4.386  17.637  0.00  0.00    +0.000 A 
ENDBRANCH  13  14
ENDBRANCH  11  12
ENDBRANCH   9  11
ENDBRANCH   8   9
ENDBRANCH   7   8
ENDBRANCH   6   7
ENDBRANCH   1   6
BRANCH   3  20
ATOM     20  C   UNL     1       0.374  10.970  18.635  0.00  0.00    +0.000 C 
BRANCH  20  21
ATOM     21  C   UNL     1      -1.137  10.982  18.564  0.00  0.00    +0.000 A 
ATOM     22  C   UNL     1      -1.887  11.919  19.287  0.00  0.00    +0.000 A 
ATOM     23  C   UNL     1      -3.278  11.953  19.173  0.00  0.00    +0.000 A 
ATOM     24  C   UNL     1      -3.944  11.071  18.320  0.00  0.00    +0.000 A 
ATOM     25  C   UNL     1      -3.211  10.105  17.636  0.00  0.00    +0.000 A 
ATOM     26  C   UNL     1      -1.815  10.072  17.742  0.00  0.00    +0.000 A 
BRANCH  24  27
ATOM     27  O   UNL     1      -5.298  11.209  18.297  0.00  0.00    +0.000 OA
BRANCH  27  28
ATOM     28  C   UNL     1      -5.878  12.309  17.611  0.00  0.00    +0.000 C 
ATOM     29  F   UNL     1      -5.899  13.462  18.313  0.00  0.00    +0.000 F 
ATOM     30  F   UNL     1      -5.205  12.517  16.458  0.00  0.00    +0.000 F 
ATOM     31  F   UNL     1      -7.156  11.996  17.298  0.00  0.00    +0.000 F 
ENDBRANCH  27  28
ENDBRANCH  24  27
ENDBRANCH  20  21
ENDBRANCH   3  20
TORSDOF 11
ENDMDL
MODEL 8
REMARK VINA RESULT:      -7.5      4.169      8.209
REMARK  Name = 
REMARK  11 active torsions:
REMARK  status: ('A' for Active; 'I' for Inactive)
REMARK    1  A    between atoms: C_2  and  C_3
REMARK    2  A    between atoms: C_2  and  O_11
REMARK    3  A    between atoms: C_4  and  C_5
REMARK    4  A    between atoms: O_11  and  C_12
REMARK    5  A    between atoms: C_12  and  C_13
REMARK    6  A    between atoms: C_13  and  C_14
REMARK    7  A    between atoms: C_14  and  C_15
REMARK    8  A    between atoms: N_17  and  C_18
REMARK    9  A    between atoms: C_18  and  C_19
REMARK   10  A    between atoms: C_22  and  O_23
REMARK   11  A    between atoms: O_23  and  C_24
REMARK                            x       y       z     vdW  Elec       q    Type
REMARK                         _______ _______ _______ _____ _____    ______ ____
ROOT
ATOM      1  C   UNL     1       4.027   5.153  18.518  0.00  0.00    +0.000 A 
ATOM      2  C   UNL     1       4.038   6.505  18.252  0.00  0.00    +0.000 A 
ATOM      3  N   UNL     1       2.727   6.805  18.016  0.00  0.00    +0.000 N 
ATOM      4  N   UNL     1       1.946   5.719  18.158  0.00  0.00    +0.000 NA
ATOM      5  N   UNL     1       2.733   4.697  18.449  0.00  0.00    +0.000 NA
ENDROOT
BRANCH   1   6
ATOM      6  C   UNL     1       5.164   4.254  18.841  0.00  0.00    +0.000 C 
BRANCH   6   7
ATOM      7  C   UNL     1       6.434   4.564  18.045  0.00  0.00    +0.000 C 
BRANCH   7   8
ATOM      8  C   UNL     1       7.351   5.534  18.779  0.00  0.00    +0.000 C 
BRANCH   8   9
ATOM      9  O   UNL     1       8.062   6.329  17.820  0.00  0.00    +0.000 OA
BRANCH   9  11
ATOM     10  O   UNL     1       6.709   7.963  16.934  0.00  0.00    +0.000 OA
ATOM     11  C   UNL     1       7.636   7.600  17.640  0.00  0.00    +0.000 C 
BRANCH  11  12
ATOM     12  C   UNL     1       8.451   8.559  18.414  0.00  0.00    +0.000 C 
ATOM     13  C   UNL     1       8.697   9.822  18.029  0.00  0.00    +0.000 C 
BRANCH  13  14
ATOM     14  C   UNL     1       9.555  10.758  18.769  0.00  0.00    +0.000 A 
ATOM     15  C   UNL     1      10.469  11.538  18.044  0.00  0.00    +0.000 A 
ATOM     16  C   UNL     1      11.320  12.429  18.699  0.00  0.00    +0.000 A 
ATOM     17  C   UNL     1      11.260  12.561  20.083  0.00  0.00    +0.000 A 
ATOM     18  C   UNL     1      10.338  11.815  20.812  0.00  0.00    +0.000 A 
ATOM     19  C   UNL     1       9.483  10.923  20.158  0.00  0.00    +0.000 A 
ENDBRANCH  13  14
ENDBRANCH  11  12
ENDBRANCH   9  11
ENDBRANCH   8   9
ENDBRANCH   7   8
ENDBRANCH   6   7
ENDBRANCH   1   6
BRANCH   3  20
ATOM     20  C   UNL     1       2.141   8.102  17.741  0.00  0.00    +0.000 C 
BRANCH  20  21
ATOM     21  C   UNL     1       1.628   8.774  18.995  0.00  0.00    +0.000 A 
ATOM     22  C   UNL     1       1.575   8.084  20.214  0.00  0.00    +0.000 A 
ATOM     23  C   UNL     1       1.150   8.731  21.376  0.00  0.00    +0.000 A 
ATOM     24  C   UNL     1       0.790  10.080  21.349  0.00  0.00    +0.000 A 
ATOM     25  C   UNL     1       0.793  10.758  20.133  0.00  0.00    +0.000 A 
ATOM     26  C   UNL     1       1.227  10.116  18.968  0.00  0.00    +0.000 A 
BRANCH  24  27
ATOM     27  O   UNL     1       0.397  10.591  22.547  0.00  0.00    +0.000 OA
BRANCH  27  28
ATOM     28  C   UNL     1      -0.862  11.241  22.653  0.00  0.00    +0.000 C 
ATOM     29  F   UNL     1      -0.799  12.521  23.077  0.00  0.00    +0.000 F 
ATOM     30  F   UNL     1      -1.476  11.215  21.449  0.00  0.00    +0.000 F 
ATOM     31  F   UNL     1      -1.630  10.555  23.529  0.00  0.00    +0.000 F 
ENDBRANCH  27  28
ENDBRANCH  24  27
ENDBRANCH  20  21
ENDBRANCH   3  20
TORSDOF 11
ENDMDL
MODEL 9
REMARK VINA RESULT:      -7.5      4.612      8.385
REMARK  Name = 
REMARK  11 active torsions:
REMARK  status: ('A' for Active; 'I' for Inactive)
REMARK    1  A    between atoms: C_2  and  C_3
REMARK    2  A    between atoms: C_2  and  O_11
REMARK    3  A    between atoms: C_4  and  C_5
REMARK    4  A    between atoms: O_11  and  C_12
REMARK    5  A    between atoms: C_12  and  C_13
REMARK    6  A    between atoms: C_13  and  C_14
REMARK    7  A    between atoms: C_14  and  C_15
REMARK    8  A    between atoms: N_17  and  C_18
REMARK    9  A    between atoms: C_18  and  C_19
REMARK   10  A    between atoms: C_22  and  O_23
REMARK   11  A    between atoms: O_23  and  C_24
REMARK                            x       y       z     vdW  Elec       q    Type
REMARK                         _______ _______ _______ _____ _____    ______ ____
ROOT
ATOM      1  C   UNL     1       2.254   6.151  20.220  0.00  0.00    +0.000 A 
ATOM      2  C   UNL     1       2.526   6.701  18.986  0.00  0.00    +0.000 A 
ATOM      3  N   UNL     1       2.040   7.974  19.078  0.00  0.00    +0.000 N 
ATOM      4  N   UNL     1       1.529   8.212  20.299  0.00  0.00    +0.000 NA
ATOM      5  N   UNL     1       1.639   7.097  21.003  0.00  0.00    +0.000 NA
ENDROOT
BRANCH   1   6
ATOM      6  C   UNL     1       2.542   4.781  20.718  0.00  0.00    +0.000 C 
BRANCH   6   7
ATOM      7  C   UNL     1       1.286   3.935  20.942  0.00  0.00    +0.000 C 
BRANCH   7   8
ATOM      8  C   UNL     1       1.577   2.443  20.867  0.00  0.00    +0.000 C 
BRANCH   8   9
ATOM      9  O   UNL     1       2.261   2.157  19.638  0.00  0.00    +0.000 OA
BRANCH   9  11
ATOM     10  O   UNL     1       0.419   2.107  18.263  0.00  0.00    +0.000 OA
ATOM     11  C   UNL     1       1.584   2.390  18.491  0.00  0.00    +0.000 C 
BRANCH  11  12
ATOM     12  C   UNL     1       2.441   3.047  17.482  0.00  0.00    +0.000 C 
ATOM     13  C   UNL     1       3.736   3.347  17.673  0.00  0.00    +0.000 C 
BRANCH  13  14
ATOM     14  C   UNL     1       4.573   4.052  16.693  0.00  0.00    +0.000 A 
ATOM     15  C   UNL     1       5.355   3.290  15.814  0.00  0.00    +0.000 A 
ATOM     16  C   UNL     1       6.183   3.910  14.876  0.00  0.00    +0.000 A 
ATOM     17  C   UNL     1       6.230   5.298  14.798  0.00  0.00    +0.000 A 
ATOM     18  C   UNL     1       5.437   6.068  15.646  0.00  0.00    +0.000 A 
ATOM     19  C   UNL     1       4.606   5.449  16.583  0.00  0.00    +0.000 A 
ENDBRANCH  13  14
ENDBRANCH  11  12
ENDBRANCH   9  11
ENDBRANCH   8   9
ENDBRANCH   7   8
ENDBRANCH   6   7
ENDBRANCH   1   6
BRANCH   3  20
ATOM     20  C   UNL     1       2.106   9.030  18.089  0.00  0.00    +0.000 C 
BRANCH  20  21
ATOM     21  C   UNL     1       1.012  10.058  18.278  0.00  0.00    +0.000 A 
ATOM     22  C   UNL     1      -0.315   9.770  17.934  0.00  0.00    +0.000 A 
ATOM     23  C   UNL     1      -1.325  10.708  18.163  0.00  0.00    +0.000 A 
ATOM     24  C   UNL     1      -1.034  11.937  18.757  0.00  0.00    +0.000 A 
ATOM     25  C   UNL     1       0.290  12.250  19.056  0.00  0.00    +0.000 A 
ATOM     26  C   UNL     1       1.304  11.310  18.836  0.00  0.00    +0.000 A 
BRANCH  24  27
ATOM     27  O   UNL     1      -2.105  12.759  18.927  0.00  0.00    +0.000 OA
BRANCH  27  28
ATOM     28  C   UNL     1      -2.613  12.987  20.233  0.00  0.00    +0.000 C 
ATOM     29  F   UNL     1      -2.302  12.031  21.133  0.00  0.00    +0.000 F 
ATOM     30  F   UNL     1      -2.151  14.173  20.687  0.00  0.00    +0.000 F 
ATOM     31  F   UNL     1      -3.962  13.063  20.164  0.00  0.00    +0.000 F 
ENDBRANCH  27  28
ENDBRANCH  24  27
ENDBRANCH  20  21
ENDBRANCH   3  20
TORSDOF 11
ENDMDL
