MODEL 1
REMARK VINA RESULT:      -7.1      0.000      0.000
REMARK  Name = 
REMARK  9 active torsions:
REMARK  status: ('A' for Active; 'I' for Inactive)
REMARK    1  A    between atoms: C_1  and  O_2
REMARK    2  A    between atoms: O_2  and  C_3
REMARK    3  A    between atoms: C_8  and  C_9
REMARK    4  A    between atoms: C_9  and  C_10
REMARK    5  A    between atoms: N_12  and  O_13
REMARK    6  A    between atoms: O_13  and  C_14
REMARK    7  A    between atoms: C_14  and  C_16
REMARK    8  A    between atoms: C_20  and  N_21
REMARK    9  A    between atoms: C_24  and  C_25
REMARK                            x       y       z     vdW  Elec       q    Type
REMARK                         _______ _______ _______ _____ _____    ______ ____
ROOT
ATOM      1  C   UNL     1       4.874   5.567  17.937  0.00  0.00    +0.000 C 
ATOM      2  N   UNL     1       3.905   5.369  17.095  0.00  0.00    +0.000 NA
ATOM      3  N   UNL     1       6.029   6.245  17.600  0.00  0.00    +0.000 N 
ATOM      4  H   UNL     1       3.133   4.870  17.541  0.00  0.00    +0.000 HD
ATOM      5  H   UNL     1       6.848   6.073  18.192  0.00  0.00    +0.000 HD
ENDROOT
BRANCH   1   6
ATOM      6  C   UNL     1       4.742   5.101  19.390  0.00  0.00    +0.000 C 
BRANCH   6  12
ATOM      7  C   UNL     1       3.137   3.092  19.700  0.00  0.00    +0.000 A 
ATOM      8  C   UNL     1       1.856   2.628  20.047  0.00  0.00    +0.000 A 
ATOM      9  C   UNL     1       0.874   3.499  20.516  0.00  0.00    +0.000 A 
ATOM     10  C   UNL     1       1.158   4.848  20.643  0.00  0.00    +0.000 A 
ATOM     11  C   UNL     1       2.411   5.330  20.259  0.00  0.00    +0.000 A 
ATOM     12  C   UNL     1       3.411   4.475  19.757  0.00  0.00    +0.000 A 
BRANCH   7  14
ATOM     13  C   UNL     1       3.964   1.592  18.061  0.00  0.00    +0.000 C 
ATOM     14  O   UNL     1       4.156   2.249  19.324  0.00  0.00    +0.000 OA
ENDBRANCH   7  14
ENDBRANCH   6  12
ENDBRANCH   1   6
BRANCH   3  15
ATOM     15  O   UNL     1       6.316   6.140  16.229  0.00  0.00    +0.000 OA
BRANCH  15  16
ATOM     16  C   UNL     1       7.238   5.172  15.957  0.00  0.00    +0.000 C 
ATOM     17  O   UNL     1       7.936   4.610  16.786  0.00  0.00    +0.000 OA
BRANCH  16  18
ATOM     18  C   UNL     1       7.187   4.861  14.491  0.00  0.00    +0.000 A 
ATOM     19  C   UNL     1       8.065   5.557  13.633  0.00  0.00    +0.000 A 
ATOM     20  C   UNL     1       8.032   5.358  12.250  0.00  0.00    +0.000 A 
ATOM     21  C   UNL     1       7.112   4.478  11.708  0.00  0.00    +0.000 A 
ATOM     22  C   UNL     1       6.242   3.775  12.562  0.00  0.00    +0.000 A 
ATOM     23  C   UNL     1       6.283   3.911  13.966  0.00  0.00    +0.000 A 
ATOM     24  C   UNL     1       5.436   3.066  14.884  0.00  0.00    +0.000 C 
BRANCH  22  25
ATOM     25  N   UNL     1       5.260   2.922  11.900  0.00  0.00    +0.000 N 
ATOM     26  O   UNL     1       5.624   1.793  11.570  0.00  0.00    +0.000 OA
ATOM     27  O   UNL     1       4.143   3.425  11.681  0.00  0.00    +0.000 OA
ENDBRANCH  22  25
ENDBRANCH  16  18
ENDBRANCH  15  16
ENDBRANCH   3  15
TORSDOF 7
ENDMDL
MODEL 2
REMARK VINA RESULT:      -7.0      6.643      8.803
REMARK  Name = 
REMARK  9 active torsions:
REMARK  status: ('A' for Active; 'I' for Inactive)
REMARK    1  A    between atoms: C_1  and  O_2
REMARK    2  A    between atoms: O_2  and  C_3
REMARK    3  A    between atoms: C_8  and  C_9
REMARK    4  A    between atoms: C_9  and  C_10
REMARK    5  A    between atoms: N_12  and  O_13
REMARK    6  A    between atoms: O_13  and  C_14
REMARK    7  A    between atoms: C_14  and  C_16
REMARK    8  A    between atoms: C_20  and  N_21
REMARK    9  A    between atoms: C_24  and  C_25
REMARK                            x       y       z     vdW  Elec       q    Type
REMARK                         _______ _______ _______ _____ _____    ______ ____
ROOT
ATOM      1  C   UNL     1       8.018   7.978  18.189  0.00  0.00    +0.000 C 
ATOM      2  N   UNL     1       7.270   8.464  17.245  0.00  0.00    +0.000 NA
ATOM      3  N   UNL     1       8.758   8.775  19.041  0.00  0.00    +0.000 N 
ATOM      4  H   UNL     1       6.788   7.716  16.742  0.00  0.00    +0.000 HD
ATOM      5  H   UNL     1       9.546   8.324  19.516  0.00  0.00    +0.000 HD
ENDROOT
BRANCH   1   6
ATOM      6  C   UNL     1       8.059   6.468  18.442  0.00  0.00    +0.000 C 
BRANCH   6  12
ATOM      7  C   UNL     1       6.378   5.352  16.818  0.00  0.00    +0.000 A 
ATOM      8  C   UNL     1       5.161   4.672  16.638  0.00  0.00    +0.000 A 
ATOM      9  C   UNL     1       4.381   4.287  17.727  0.00  0.00    +0.000 A 
ATOM     10  C   UNL     1       4.805   4.578  19.012  0.00  0.00    +0.000 A 
ATOM     11  C   UNL     1       5.990   5.293  19.204  0.00  0.00    +0.000 A 
ATOM     12  C   UNL     1       6.781   5.717  18.119  0.00  0.00    +0.000 A 
BRANCH   7  14
ATOM     13  C   UNL     1       7.089   4.814  14.621  0.00  0.00    +0.000 C 
ATOM     14  O   UNL     1       7.216   5.663  15.773  0.00  0.00    +0.000 OA
ENDBRANCH   7  14
ENDBRANCH   6  12
ENDBRANCH   1   6
BRANCH   3  15
ATOM     15  O   UNL     1       9.109   9.995  18.441  0.00  0.00    +0.000 OA
BRANCH  15  16
ATOM     16  C   UNL     1       9.555  10.917  19.342  0.00  0.00    +0.000 C 
ATOM     17  O   UNL     1       9.528  10.786  20.556  0.00  0.00    +0.000 OA
BRANCH  16  18
ATOM     18  C   UNL     1      10.158  12.066  18.593  0.00  0.00    +0.000 A 
ATOM     19  C   UNL     1      11.258  11.806  17.747  0.00  0.00    +0.000 A 
ATOM     20  C   UNL     1      11.903  12.839  17.063  0.00  0.00    +0.000 A 
ATOM     21  C   UNL     1      11.471  14.143  17.229  0.00  0.00    +0.000 A 
ATOM     22  C   UNL     1      10.369  14.405  18.063  0.00  0.00    +0.000 A 
ATOM     23  C   UNL     1       9.660  13.382  18.728  0.00  0.00    +0.000 A 
ATOM     24  C   UNL     1       8.406  13.652  19.520  0.00  0.00    +0.000 C 
BRANCH  22  25
ATOM     25  N   UNL     1      10.026  15.813  18.233  0.00  0.00    +0.000 N 
ATOM     26  O   UNL     1      10.546  16.411  19.176  0.00  0.00    +0.000 OA
ATOM     27  O   UNL     1       9.197  16.286  17.436  0.00  0.00    +0.000 OA
ENDBRANCH  22  25
ENDBRANCH  16  18
ENDBRANCH  15  16
ENDBRANCH   3  15
TORSDOF 7
ENDMDL
MODEL 3
REMARK VINA RESULT:      -7.0      1.091      1.151
REMARK  Name = 
REMARK  9 active torsions:
REMARK  status: ('A' for Active; 'I' for Inactive)
REMARK    1  A    between atoms: C_1  and  O_2
REMARK    2  A    between atoms: O_2  and  C_3
REMARK    3  A    between atoms: C_8  and  C_9
REMARK    4  A    between atoms: C_9  and  C_10
REMARK    5  A    between atoms: N_12  and  O_13
REMARK    6  A    between atoms: O_13  and  C_14
REMARK    7  A    between atoms: C_14  and  C_16
REMARK    8  A    between atoms: C_20  and  N_21
REMARK    9  A    between atoms: C_24  and  C_25
REMARK                            x       y       z     vdW  Elec       q    Type
REMARK                         _______ _______ _______ _____ _____    ______ ____
ROOT
ATOM      1  C   UNL     1       4.695   5.876  17.340  0.00  0.00    +0.000 C 
ATOM      2  N   UNL     1       5.332   5.181  18.234  0.00  0.00    +0.000 NA
ATOM      3  N   UNL     1       5.264   6.249  16.139  0.00  0.00    +0.000 N 
ATOM      4  H   UNL     1       4.732   4.988  19.039  0.00  0.00    +0.000 HD
ATOM      5  H   UNL     1       4.834   7.045  15.658  0.00  0.00    +0.000 HD
ENDROOT
BRANCH   1   6
ATOM      6  C   UNL     1       3.230   6.264  17.563  0.00  0.00    +0.000 C 
BRANCH   6  12
ATOM      7  C   UNL     1       2.136   4.102  18.480  0.00  0.00    +0.000 A 
ATOM      8  C   UNL     1       1.438   3.464  19.520  0.00  0.00    +0.000 A 
ATOM      9  C   UNL     1       1.157   4.125  20.714  0.00  0.00    +0.000 A 
ATOM     10  C   UNL     1       1.569   5.436  20.885  0.00  0.00    +0.000 A 
ATOM     11  C   UNL     1       2.224   6.097  19.844  0.00  0.00    +0.000 A 
ATOM     12  C   UNL     1       2.495   5.459  18.618  0.00  0.00    +0.000 A 
BRANCH   7  14
ATOM     13  C   UNL     1       2.982   2.107  17.517  0.00  0.00    +0.000 C 
ATOM     14  O   UNL     1       2.511   3.451  17.328  0.00  0.00    +0.000 OA
ENDBRANCH   7  14
ENDBRANCH   6  12
ENDBRANCH   1   6
BRANCH   3  15
ATOM     15  O   UNL     1       6.661   6.362  16.236  0.00  0.00    +0.000 OA
BRANCH  15  16
ATOM     16  C   UNL     1       7.303   5.184  15.991  0.00  0.00    +0.000 C 
ATOM     17  O   UNL     1       7.792   4.457  16.843  0.00  0.00    +0.000 OA
BRANCH  16  18
ATOM     18  C   UNL     1       7.232   4.895  14.522  0.00  0.00    +0.000 A 
ATOM     19  C   UNL     1       8.075   5.627  13.659  0.00  0.00    +0.000 A 
ATOM     20  C   UNL     1       8.020   5.449  12.274  0.00  0.00    +0.000 A 
ATOM     21  C   UNL     1       7.112   4.554  11.735  0.00  0.00    +0.000 A 
ATOM     22  C   UNL     1       6.278   3.815  12.594  0.00  0.00    +0.000 A 
ATOM     23  C   UNL     1       6.342   3.929  13.999  0.00  0.00    +0.000 A 
ATOM     24  C   UNL     1       5.536   3.048  14.919  0.00  0.00    +0.000 C 
BRANCH  22  25
ATOM     25  N   UNL     1       5.306   2.947  11.937  0.00  0.00    +0.000 N 
ATOM     26  O   UNL     1       5.689   1.828  11.594  0.00  0.00    +0.000 OA
ATOM     27  O   UNL     1       4.177   3.428  11.735  0.00  0.00    +0.000 OA
ENDBRANCH  22  25
ENDBRANCH  16  18
ENDBRANCH  15  16
ENDBRANCH   3  15
TORSDOF 7
ENDMDL
MODEL 4
REMARK VINA RESULT:      -7.0      1.709      2.434
REMARK  Name = 
REMARK  9 active torsions:
REMARK  status: ('A' for Active; 'I' for Inactive)
REMARK    1  A    between atoms: C_1  and  O_2
REMARK    2  A    between atoms: O_2  and  C_3
REMARK    3  A    between atoms: C_8  and  C_9
REMARK    4  A    between atoms: C_9  and  C_10
REMARK    5  A    between atoms: N_12  and  O_13
REMARK    6  A    between atoms: O_13  and  C_14
REMARK    7  A    between atoms: C_14  and  C_16
REMARK    8  A    between atoms: C_20  and  N_21
REMARK    9  A    between atoms: C_24  and  C_25
REMARK                            x       y       z     vdW  Elec       q    Type
REMARK                         _______ _______ _______ _____ _____    ______ ____
ROOT
ATOM      1  C   UNL     1       6.626   5.037  18.754  0.00  0.00    +0.000 C 
ATOM      2  N   UNL     1       7.500   5.950  19.057  0.00  0.00    +0.000 NA
ATOM      3  N   UNL     1       6.784   4.178  17.684  0.00  0.00    +0.000 N 
ATOM      4  H   UNL     1       7.213   6.464  19.892  0.00  0.00    +0.000 HD
ATOM      5  H   UNL     1       5.932   3.735  17.327  0.00  0.00    +0.000 HD
ENDROOT
BRANCH   1   6
ATOM      6  C   UNL     1       5.388   4.832  19.632  0.00  0.00    +0.000 C 
BRANCH   6  12
ATOM      7  C   UNL     1       3.094   5.308  18.526  0.00  0.00    +0.000 A 
ATOM      8  C   UNL     1       1.961   4.808  17.862  0.00  0.00    +0.000 A 
ATOM      9  C   UNL     1       1.870   3.466  17.498  0.00  0.00    +0.000 A 
ATOM     10  C   UNL     1       2.911   2.603  17.795  0.00  0.00    +0.000 A 
ATOM     11  C   UNL     1       4.024   3.075  18.494  0.00  0.00    +0.000 A 
ATOM     12  C   UNL     1       4.127   4.421  18.897  0.00  0.00    +0.000 A 
BRANCH   7  14
ATOM     13  C   UNL     1       3.339   7.505  17.671  0.00  0.00    +0.000 C 
ATOM     14  O   UNL     1       3.257   6.642  18.816  0.00  0.00    +0.000 OA
ENDBRANCH   7  14
ENDBRANCH   6  12
ENDBRANCH   1   6
BRANCH   3  15
ATOM     15  O   UNL     1       7.569   4.748  16.668  0.00  0.00    +0.000 OA
BRANCH  15  16
ATOM     16  C   UNL     1       6.854   5.575  15.851  0.00  0.00    +0.000 C 
ATOM     17  O   UNL     1       6.280   6.593  16.205  0.00  0.00    +0.000 OA
BRANCH  16  18
ATOM     18  C   UNL     1       6.966   5.070  14.444  0.00  0.00    +0.000 A 
ATOM     19  C   UNL     1       7.982   5.605  13.624  0.00  0.00    +0.000 A 
ATOM     20  C   UNL     1       8.108   5.222  12.286  0.00  0.00    +0.000 A 
ATOM     21  C   UNL     1       7.211   4.315  11.748  0.00  0.00    +0.000 A 
ATOM     22  C   UNL     1       6.203   3.772  12.565  0.00  0.00    +0.000 A 
ATOM     23  C   UNL     1       6.078   4.095  13.933  0.00  0.00    +0.000 A 
ATOM     24  C   UNL     1       5.077   3.419  14.835  0.00  0.00    +0.000 C 
BRANCH  22  25
ATOM     25  N   UNL     1       5.262   2.878  11.898  0.00  0.00    +0.000 N 
ATOM     26  O   UNL     1       5.646   1.735  11.652  0.00  0.00    +0.000 OA
ATOM     27  O   UNL     1       4.158   3.362  11.589  0.00  0.00    +0.000 OA
ENDBRANCH  22  25
ENDBRANCH  16  18
ENDBRANCH  15  16
ENDBRANCH   3  15
TORSDOF 7
ENDMDL
MODEL 5
REMARK VINA RESULT:      -7.0      4.995      7.801
REMARK  Name = 
REMARK  9 active torsions:
REMARK  status: ('A' for Active; 'I' for Inactive)
REMARK    1  A    between atoms: C_1  and  O_2
REMARK    2  A    between atoms: O_2  and  C_3
REMARK    3  A    between atoms: C_8  and  C_9
REMARK    4  A    between atoms: C_9  and  C_10
REMARK    5  A    between atoms: N_12  and  O_13
REMARK    6  A    between atoms: O_13  and  C_14
REMARK    7  A    between atoms: C_14  and  C_16
REMARK    8  A    between atoms: C_20  and  N_21
REMARK    9  A    between atoms: C_24  and  C_25
REMARK                            x       y       z     vdW  Elec       q    Type
REMARK                         _______ _______ _______ _____ _____    ______ ____
ROOT
ATOM      1  C   UNL     1       8.246   8.889  18.143  0.00  0.00    +0.000 C 
ATOM      2  N   UNL     1       8.827   8.297  19.143  0.00  0.00    +0.000 NA
ATOM      3  N   UNL     1       7.405   8.228  17.270  0.00  0.00    +0.000 N 
ATOM      4  H   UNL     1       9.388   8.961  19.681  0.00  0.00    +0.000 HD
ATOM      5  H   UNL     1       7.262   8.666  16.355  0.00  0.00    +0.000 HD
ENDROOT
BRANCH   1   6
ATOM      6  C   UNL     1       8.425  10.395  17.927  0.00  0.00    +0.000 C 
BRANCH   6  12
ATOM      7  C   UNL     1       9.780  11.315  19.934  0.00  0.00    +0.000 A 
ATOM      8  C   UNL     1      10.969  11.895  20.407  0.00  0.00    +0.000 A 
ATOM      9  C   UNL     1      12.058  12.104  19.563  0.00  0.00    +0.000 A 
ATOM     10  C   UNL     1      11.973  11.735  18.231  0.00  0.00    +0.000 A 
ATOM     11  C   UNL     1      10.782  11.199  17.736  0.00  0.00    +0.000 A 
ATOM     12  C   UNL     1       9.659  11.004  18.563  0.00  0.00    +0.000 A 
BRANCH   7  14
ATOM     13  C   UNL     1       8.662  11.773  21.973  0.00  0.00    +0.000 C 
ATOM     14  O   UNL     1       8.723  11.010  20.759  0.00  0.00    +0.000 OA
ENDBRANCH   7  14
ENDBRANCH   6  12
ENDBRANCH   1   6
BRANCH   3  15
ATOM     15  O   UNL     1       7.719   6.862  17.177  0.00  0.00    +0.000 OA
BRANCH  15  16
ATOM     16  C   UNL     1       6.972   6.212  16.238  0.00  0.00    +0.000 C 
ATOM     17  O   UNL     1       7.391   5.793  15.170  0.00  0.00    +0.000 OA
BRANCH  16  18
ATOM     18  C   UNL     1       5.585   6.027  16.774  0.00  0.00    +0.000 A 
ATOM     19  C   UNL     1       4.877   7.172  17.198  0.00  0.00    +0.000 A 
ATOM     20  C   UNL     1       3.602   7.067  17.760  0.00  0.00    +0.000 A 
ATOM     21  C   UNL     1       3.028   5.818  17.921  0.00  0.00    +0.000 A 
ATOM     22  C   UNL     1       3.726   4.675  17.490  0.00  0.00    +0.000 A 
ATOM     23  C   UNL     1       4.991   4.748  16.870  0.00  0.00    +0.000 A 
ATOM     24  C   UNL     1       5.681   3.535  16.298  0.00  0.00    +0.000 C 
BRANCH  22  25
ATOM     25  N   UNL     1       3.075   3.398  17.762  0.00  0.00    +0.000 N 
ATOM     26  O   UNL     1       3.422   2.791  18.776  0.00  0.00    +0.000 OA
ATOM     27  O   UNL     1       2.251   3.001  16.919  0.00  0.00    +0.000 OA
ENDBRANCH  22  25
ENDBRANCH  16  18
ENDBRANCH  15  16
ENDBRANCH   3  15
TORSDOF 7
ENDMDL
MODEL 6
REMARK VINA RESULT:      -7.0      4.884      7.738
REMARK  Name = 
REMARK  9 active torsions:
REMARK  status: ('A' for Active; 'I' for Inactive)
REMARK    1  A    between atoms: C_1  and  O_2
REMARK    2  A    between atoms: O_2  and  C_3
REMARK    3  A    between atoms: C_8  and  C_9
REMARK    4  A    between atoms: C_9  and  C_10
REMARK    5  A    between atoms: N_12  and  O_13
REMARK    6  A    between atoms: O_13  and  C_14
REMARK    7  A    between atoms: C_14  and  C_16
REMARK    8  A    between atoms: C_20  and  N_21
REMARK    9  A    between atoms: C_24  and  C_25
REMARK                            x       y       z     vdW  Elec       q    Type
REMARK                         _______ _______ _______ _____ _____    ______ ____
ROOT
ATOM      1  C   UNL     1       1.206   9.934  18.356  0.00  0.00    +0.000 C 
ATOM      2  N   UNL     1       0.069   9.701  17.773  0.00  0.00    +0.000 NA
ATOM      3  N   UNL     1       2.368   9.266  18.022  0.00  0.00    +0.000 N 
ATOM      4  H   UNL     1      -0.662  10.311  18.144  0.00  0.00    +0.000 HD
ATOM      5  H   UNL     1       3.112   9.266  18.726  0.00  0.00    +0.000 HD
ENDROOT
BRANCH   1   6
ATOM      6  C   UNL     1       1.318  11.031  19.419  0.00  0.00    +0.000 C 
BRANCH   6  12
ATOM      7  C   UNL     1      -0.512  11.518  21.187  0.00  0.00    +0.000 A 
ATOM      8  C   UNL     1      -1.104  11.184  22.417  0.00  0.00    +0.000 A 
ATOM      9  C   UNL     1      -0.679  10.075  23.146  0.00  0.00    +0.000 A 
ATOM     10  C   UNL     1       0.346   9.284  22.657  0.00  0.00    +0.000 A 
ATOM     11  C   UNL     1       0.974   9.629  21.459  0.00  0.00    +0.000 A 
ATOM     12  C   UNL     1       0.582  10.760  20.717  0.00  0.00    +0.000 A 
BRANCH   7  14
ATOM     13  C   UNL     1      -2.189  12.275  19.692  0.00  0.00    +0.000 C 
ATOM     14  O   UNL     1      -0.968  12.547  20.398  0.00  0.00    +0.000 OA
ENDBRANCH   7  14
ENDBRANCH   6  12
ENDBRANCH   1   6
BRANCH   3  15
ATOM     15  O   UNL     1       2.105   7.986  17.508  0.00  0.00    +0.000 OA
BRANCH  15  16
ATOM     16  C   UNL     1       3.042   7.066  17.879  0.00  0.00    +0.000 C 
ATOM     17  O   UNL     1       4.223   7.100  17.571  0.00  0.00    +0.000 OA
BRANCH  16  18
ATOM     18  C   UNL     1       2.397   6.066  18.789  0.00  0.00    +0.000 A 
ATOM     19  C   UNL     1       2.059   6.478  20.097  0.00  0.00    +0.000 A 
ATOM     20  C   UNL     1       1.507   5.582  21.016  0.00  0.00    +0.000 A 
ATOM     21  C   UNL     1       1.303   4.263  20.648  0.00  0.00    +0.000 A 
ATOM     22  C   UNL     1       1.629   3.852  19.342  0.00  0.00    +0.000 A 
ATOM     23  C   UNL     1       2.138   4.741  18.371  0.00  0.00    +0.000 A 
ATOM     24  C   UNL     1       2.370   4.327  16.940  0.00  0.00    +0.000 C 
BRANCH  22  25
ATOM     25  N   UNL     1       1.446   2.432  19.063  0.00  0.00    +0.000 N 
ATOM     26  O   UNL     1       0.312   2.056  18.764  0.00  0.00    +0.000 OA
ATOM     27  O   UNL     1       2.446   1.704  19.196  0.00  0.00    +0.000 OA
ENDBRANCH  22  25
ENDBRANCH  16  18
ENDBRANCH  15  16
ENDBRANCH   3  15
TORSDOF 7
ENDMDL
MODEL 7
REMARK VINA RESULT:      -6.9      4.850      7.633
REMARK  Name = 
REMARK  9 active torsions:
REMARK  status: ('A' for Active; 'I' for Inactive)
REMARK    1  A    between atoms: C_1  and  O_2
REMARK    2  A    between atoms: O_2  and  C_3
REMARK    3  A    between atoms: C_8  and  C_9
REMARK    4  A    between atoms: C_9  and  C_10
REMARK    5  A    between atoms: N_12  and  O_13
REMARK    6  A    between atoms: O_13  and  C_14
REMARK    7  A    between atoms: C_14  and  C_16
REMARK    8  A    between atoms: C_20  and  N_21
REMARK    9  A    between atoms: C_24  and  C_25
REMARK                            x       y       z     vdW  Elec       q    Type
REMARK                         _______ _______ _______ _____ _____    ______ ____
ROOT
ATOM      1  C   UNL     1       1.050   9.898  18.299  0.00  0.00    +0.000 C 
ATOM      2  N   UNL     1       0.012   9.595  17.578  0.00  0.00    +0.000 NA
ATOM      3  N   UNL     1       2.250   9.221  18.200  0.00  0.00    +0.000 N 
ATOM      4  H   UNL     1      -0.767  10.225  17.781  0.00  0.00    +0.000 HD
ATOM      5  H   UNL     1       2.882   9.296  19.003  0.00  0.00    +0.000 HD
ENDROOT
BRANCH   1   6
ATOM      6  C   UNL     1       1.001  11.087  19.262  0.00  0.00    +0.000 C 
BRANCH   6  12
ATOM      7  C   UNL     1      -0.310  11.754  21.395  0.00  0.00    +0.000 A 
ATOM      8  C   UNL     1      -0.820  11.380  22.650  0.00  0.00    +0.000 A 
ATOM      9  C   UNL     1      -0.714  10.069  23.112  0.00  0.00    +0.000 A 
ATOM     10  C   UNL     1      -0.095   9.113  22.326  0.00  0.00    +0.000 A 
ATOM     11  C   UNL     1       0.457   9.480  21.096  0.00  0.00    +0.000 A 
ATOM     12  C   UNL     1       0.388  10.803  20.620  0.00  0.00    +0.000 A 
BRANCH   7  14
ATOM     13  C   UNL     1      -1.716  13.215  20.168  0.00  0.00    +0.000 C 
ATOM     14  O   UNL     1      -0.480  13.013  20.869  0.00  0.00    +0.000 OA
ENDBRANCH   7  14
ENDBRANCH   6  12
ENDBRANCH   1   6
BRANCH   3  15
ATOM     15  O   UNL     1       2.069   7.896  17.771  0.00  0.00    +0.000 OA
BRANCH  15  16
ATOM     16  C   UNL     1       3.200   7.143  17.895  0.00  0.00    +0.000 C 
ATOM     17  O   UNL     1       4.284   7.413  17.403  0.00  0.00    +0.000 OA
BRANCH  16  18
ATOM     18  C   UNL     1       2.907   5.984  18.799  0.00  0.00    +0.000 A 
ATOM     19  C   UNL     1       2.126   6.221  19.952  0.00  0.00    +0.000 A 
ATOM     20  C   UNL     1       1.862   5.199  20.867  0.00  0.00    +0.000 A 
ATOM     21  C   UNL     1       2.388   3.937  20.653  0.00  0.00    +0.000 A 
ATOM     22  C   UNL     1       3.157   3.695  19.501  0.00  0.00    +0.000 A 
ATOM     23  C   UNL     1       3.400   4.688  18.528  0.00  0.00    +0.000 A 
ATOM     24  C   UNL     1       4.120   4.394  17.236  0.00  0.00    +0.000 C 
BRANCH  22  25
ATOM     25  N   UNL     1       3.728   2.357  19.392  0.00  0.00    +0.000 N 
ATOM     26  O   UNL     1       4.795   2.148  19.971  0.00  0.00    +0.000 OA
ATOM     27  O   UNL     1       3.110   1.543  18.681  0.00  0.00    +0.000 OA
ENDBRANCH  22  25
ENDBRANCH  16  18
ENDBRANCH  15  16
ENDBRANCH   3  15
TORSDOF 7
ENDMDL
MODEL 8
REMARK VINA RESULT:      -6.9      4.101      8.117
REMARK  Name = 
REMARK  9 active torsions:
REMARK  status: ('A' for Active; 'I' for Inactive)
REMARK    1  A    between atoms: C_1  and  O_2
REMARK    2  A    between atoms: O_2  and  C_3
REMARK    3  A    between atoms: C_8  and  C_9
REMARK    4  A    between atoms: C_9  and  C_10
REMARK    5  A    between atoms: N_12  and  O_13
REMARK    6  A    between atoms: O_13  and  C_14
REMARK    7  A    between atoms: C_14  and  C_16
REMARK    8  A    between atoms: C_20  and  N_21
REMARK    9  A    between atoms: C_24  and  C_25
REMARK                            x       y       z     vdW  Elec       q    Type
REMARK                         _______ _______ _______ _____ _____    ______ ____
ROOT
ATOM      1  C   UNL     1       2.791   4.036  17.705  0.00  0.00    +0.000 C 
ATOM      2  N   UNL     1       1.604   3.766  17.249  0.00  0.00    +0.000 NA
ATOM      3  N   UNL     1       3.038   5.080  18.574  0.00  0.00    +0.000 N 
ATOM      4  H   UNL     1       1.627   2.945  16.641  0.00  0.00    +0.000 HD
ATOM      5  H   UNL     1       4.004   5.418  18.617  0.00  0.00    +0.000 HD
ENDROOT
BRANCH   1   6
ATOM      6  C   UNL     1       3.980   3.144  17.337  0.00  0.00    +0.000 C 
BRANCH   6  12
ATOM      7  C   UNL     1       6.197   4.483  17.304  0.00  0.00    +0.000 A 
ATOM      8  C   UNL     1       7.200   5.116  16.549  0.00  0.00    +0.000 A 
ATOM      9  C   UNL     1       7.199   5.062  15.157  0.00  0.00    +0.000 A 
ATOM     10  C   UNL     1       6.195   4.375  14.498  0.00  0.00    +0.000 A 
ATOM     11  C   UNL     1       5.167   3.779  15.232  0.00  0.00    +0.000 A 
ATOM     12  C   UNL     1       5.130   3.844  16.638  0.00  0.00    +0.000 A 
BRANCH   7  14
ATOM     13  C   UNL     1       6.877   5.546  19.311  0.00  0.00    +0.000 C 
ATOM     14  O   UNL     1       6.219   4.437  18.678  0.00  0.00    +0.000 OA
ENDBRANCH   7  14
ENDBRANCH   6  12
ENDBRANCH   1   6
BRANCH   3  15
ATOM     15  O   UNL     1       2.104   6.118  18.422  0.00  0.00    +0.000 OA
BRANCH  15  16
ATOM     16  C   UNL     1       2.693   7.335  18.242  0.00  0.00    +0.000 C 
ATOM     17  O   UNL     1       3.702   7.540  17.585  0.00  0.00    +0.000 OA
BRANCH  16  18
ATOM     18  C   UNL     1       1.851   8.379  18.912  0.00  0.00    +0.000 A 
ATOM     19  C   UNL     1       1.468   9.509  18.158  0.00  0.00    +0.000 A 
ATOM     20  C   UNL     1       0.730  10.546  18.735  0.00  0.00    +0.000 A 
ATOM     21  C   UNL     1       0.385  10.476  20.074  0.00  0.00    +0.000 A 
ATOM     22  C   UNL     1       0.757   9.347  20.826  0.00  0.00    +0.000 A 
ATOM     23  C   UNL     1       1.455   8.256  20.263  0.00  0.00    +0.000 A 
ATOM     24  C   UNL     1       1.743   6.996  21.038  0.00  0.00    +0.000 C 
BRANCH  22  25
ATOM     25  N   UNL     1       0.411   9.389  22.242  0.00  0.00    +0.000 N 
ATOM     26  O   UNL     1       1.287   9.752  23.027  0.00  0.00    +0.000 OA
ATOM     27  O   UNL     1      -0.734   9.010  22.549  0.00  0.00    +0.000 OA
ENDBRANCH  22  25
ENDBRANCH  16  18
ENDBRANCH  15  16
ENDBRANCH   3  15
TORSDOF 7
ENDMDL
MODEL 9
REMARK VINA RESULT:      -6.9      3.024      5.496
REMARK  Name = 
REMARK  9 active torsions:
REMARK  status: ('A' for Active; 'I' for Inactive)
REMARK    1  A    between atoms: C_1  and  O_2
REMARK    2  A    between atoms: O_2  and  C_3
REMARK    3  A    between atoms: C_8  and  C_9
REMARK    4  A    between atoms: C_9  and  C_10
REMARK    5  A    between atoms: N_12  and  O_13
REMARK    6  A    between atoms: O_13  and  C_14
REMARK    7  A    between atoms: C_14  and  C_16
REMARK    8  A    between atoms: C_20  and  N_21
REMARK    9  A    between atoms: C_24  and  C_25
REMARK                            x       y       z     vdW  Elec       q    Type
REMARK                         _______ _______ _______ _____ _____    ______ ____
ROOT
ATOM      1  C   UNL     1       1.768   4.758  19.161  0.00  0.00    +0.000 C 
ATOM      2  N   UNL     1       1.139   3.732  19.651  0.00  0.00    +0.000 NA
ATOM      3  N   UNL     1       2.049   4.889  17.815  0.00  0.00    +0.000 N 
ATOM      4  H   UNL     1       1.008   3.833  20.659  0.00  0.00    +0.000 HD
ATOM      5  H   UNL     1       2.808   5.531  17.569  0.00  0.00    +0.000 HD
ENDROOT
BRANCH   1   6
ATOM      6  C   UNL     1       2.175   5.920  20.071  0.00  0.00    +0.000 C 
BRANCH   6  12
ATOM      7  C   UNL     1       1.317   8.362  20.192  0.00  0.00    +0.000 A 
ATOM      8  C   UNL     1       1.147   9.601  19.552  0.00  0.00    +0.000 A 
ATOM      9  C   UNL     1       1.655   9.832  18.276  0.00  0.00    +0.000 A 
ATOM     10  C   UNL     1       2.340   8.824  17.618  0.00  0.00    +0.000 A 
ATOM     11  C   UNL     1       2.478   7.573  18.222  0.00  0.00    +0.000 A 
ATOM     12  C   UNL     1       1.949   7.307  19.500  0.00  0.00    +0.000 A 
BRANCH   7  14
ATOM     13  C   UNL     1      -0.235   8.888  21.905  0.00  0.00    +0.000 C 
ATOM     14  O   UNL     1       0.911   8.131  21.485  0.00  0.00    +0.000 OA
ENDBRANCH   7  14
ENDBRANCH   6  12
ENDBRANCH   1   6
BRANCH   3  15
ATOM     15  O   UNL     1       2.165   3.641  17.182  0.00  0.00    +0.000 OA
BRANCH  15  16
ATOM     16  C   UNL     1       3.336   3.006  17.478  0.00  0.00    +0.000 C 
ATOM     17  O   UNL     1       3.429   1.893  17.972  0.00  0.00    +0.000 OA
BRANCH  16  18
ATOM     18  C   UNL     1       4.475   3.864  17.018  0.00  0.00    +0.000 A 
ATOM     19  C   UNL     1       4.587   4.137  15.638  0.00  0.00    +0.000 A 
ATOM     20  C   UNL     1       5.656   4.884  15.134  0.00  0.00    +0.000 A 
ATOM     21  C   UNL     1       6.633   5.348  15.998  0.00  0.00    +0.000 A 
ATOM     22  C   UNL     1       6.519   5.086  17.375  0.00  0.00    +0.000 A 
ATOM     23  C   UNL     1       5.426   4.382  17.926  0.00  0.00    +0.000 A 
ATOM     24  C   UNL     1       5.243   4.211  19.413  0.00  0.00    +0.000 C 
BRANCH  22  25
ATOM     25  N   UNL     1       7.627   5.553  18.201  0.00  0.00    +0.000 N 
ATOM     26  O   UNL     1       8.328   4.699  18.742  0.00  0.00    +0.000 OA
ATOM     27  O   UNL     1       7.746   6.785  18.329  0.00  0.00    +0.000 OA
ENDBRANCH  22  25
ENDBRANCH  16  18
ENDBRANCH  15  16
ENDBRANCH   3  15
TORSDOF 7
ENDMDL
