MODEL 1
REMARK VINA RESULT:      -9.0      0.000      0.000
REMARK  Name = 
REMARK  3 active torsions:
REMARK  status: ('A' for Active; 'I' for Inactive)
REMARK    1  A    between atoms: C_9  and  C_11
REMARK    2  A    between atoms: C_12  and  C_13
REMARK    3  A    between atoms: C_23  and  C_24
REMARK                            x       y       z     vdW  Elec       q    Type
REMARK                         _______ _______ _______ _____ _____    ______ ____
ROOT
ATOM      1  O   UNL     1       0.230  10.322  22.842  0.00  0.00    +0.000 OA
ATOM      2  C   UNL     1       0.632   9.787  21.818  0.00  0.00    +0.000 C 
ATOM      3  N   UNL     1       1.057   8.490  21.723  0.00  0.00    +0.000 NA
ATOM      4  C   UNL     1       1.485   8.349  20.519  0.00  0.00    +0.000 C 
ATOM      5  N   UNL     1       1.986   7.220  19.937  0.00  0.00    +0.000 N 
ATOM      6  C   UNL     1       2.086   5.965  20.703  0.00  0.00    +0.000 C 
ATOM      7  C   UNL     1       1.641   4.781  19.827  0.00  0.00    +0.000 C 
ATOM      8  N   UNL     1       2.388   4.740  18.559  0.00  0.00    +0.000 N 
ATOM      9  C   UNL     1       3.034   3.565  18.207  0.00  0.00    +0.000 C 
ATOM     10  O   UNL     1       3.059   2.573  18.929  0.00  0.00    +0.000 OA
ATOM     11  C   UNL     1       2.351   6.007  17.808  0.00  0.00    +0.000 C 
ATOM     12  C   UNL     1       2.750   7.212  18.686  0.00  0.00    +0.000 C 
ATOM     13  O   UNL     1       1.413   9.435  19.708  0.00  0.00    +0.000 OA
ATOM     14  C   UNL     1       0.762  10.465  20.471  0.00  0.00    +0.000 C 
ENDROOT
BRANCH  14  15
ATOM     15  C   UNL     1      -0.556  10.902  19.862  0.00  0.00    +0.000 A 
ATOM     16  C   UNL     1      -1.297  11.977  20.379  0.00  0.00    +0.000 A 
ATOM     17  C   UNL     1      -2.520  12.343  19.813  0.00  0.00    +0.000 A 
ATOM     18  C   UNL     1      -3.021  11.641  18.719  0.00  0.00    +0.000 A 
ATOM     19  C   UNL     1      -2.299  10.578  18.188  0.00  0.00    +0.000 A 
ATOM     20  C   UNL     1      -1.076  10.209  18.754  0.00  0.00    +0.000 A 
ENDBRANCH  14  15
BRANCH   9  21
ATOM     21  C   UNL     1       3.737   3.544  16.900  0.00  0.00    +0.000 C 
ATOM     22  C   UNL     1       4.887   4.222  16.730  0.00  0.00    +0.000 C 
BRANCH  22  23
ATOM     23  C   UNL     1       5.617   4.273  15.452  0.00  0.00    +0.000 A 
ATOM     24  C   UNL     1       5.140   3.621  14.303  0.00  0.00    +0.000 A 
ATOM     25  C   UNL     1       5.837   3.697  13.096  0.00  0.00    +0.000 A 
ATOM     26  C   UNL     1       7.004   4.444  13.026  0.00  0.00    +0.000 A 
ATOM     27  F   UNL     1       7.672   4.514  11.867  0.00  0.00    +0.000 F 
ATOM     28  C   UNL     1       7.482   5.123  14.139  0.00  0.00    +0.000 A 
ATOM     29  C   UNL     1       6.785   5.044  15.349  0.00  0.00    +0.000 A 
ENDBRANCH  22  23
ENDBRANCH   9  21
TORSDOF 3
ENDMDL
MODEL 2
REMARK VINA RESULT:      -8.9      0.139      1.274
REMARK  Name = 
REMARK  3 active torsions:
REMARK  status: ('A' for Active; 'I' for Inactive)
REMARK    1  A    between atoms: C_9  and  C_11
REMARK    2  A    between atoms: C_12  and  C_13
REMARK    3  A    between atoms: C_23  and  C_24
REMARK                            x       y       z     vdW  Elec       q    Type
REMARK                         _______ _______ _______ _____ _____    ______ ____
ROOT
ATOM      1  O   UNL     1       0.160  10.382  22.701  0.00  0.00    +0.000 OA
ATOM      2  C   UNL     1       0.578   9.831  21.691  0.00  0.00    +0.000 C 
ATOM      3  N   UNL     1       1.048   8.548  21.633  0.00  0.00    +0.000 NA
ATOM      4  C   UNL     1       1.477   8.386  20.432  0.00  0.00    +0.000 C 
ATOM      5  N   UNL     1       2.016   7.258  19.882  0.00  0.00    +0.000 N 
ATOM      6  C   UNL     1       2.162   6.031  20.684  0.00  0.00    +0.000 C 
ATOM      7  C   UNL     1       1.756   4.807  19.845  0.00  0.00    +0.000 C 
ATOM      8  N   UNL     1       2.500   4.754  18.576  0.00  0.00    +0.000 N 
ATOM      9  C   UNL     1       3.186   3.593  18.256  0.00  0.00    +0.000 C 
ATOM     10  O   UNL     1       3.249   2.624  19.007  0.00  0.00    +0.000 OA
ATOM     11  C   UNL     1       2.417   5.997  17.788  0.00  0.00    +0.000 C 
ATOM     12  C   UNL     1       2.775   7.241  18.628  0.00  0.00    +0.000 C 
ATOM     13  O   UNL     1       1.364   9.445  19.590  0.00  0.00    +0.000 OA
ATOM     14  C   UNL     1       0.680  10.473  20.325  0.00  0.00    +0.000 C 
ENDROOT
BRANCH  14  15
ATOM     15  C   UNL     1      -0.655  10.845  19.709  0.00  0.00    +0.000 A 
ATOM     16  C   UNL     1      -1.194  10.144  18.618  0.00  0.00    +0.000 A 
ATOM     17  C   UNL     1      -2.415  10.524  18.055  0.00  0.00    +0.000 A 
ATOM     18  C   UNL     1      -3.116  11.610  18.575  0.00  0.00    +0.000 A 
ATOM     19  C   UNL     1      -2.602  12.312  19.659  0.00  0.00    +0.000 A 
ATOM     20  C   UNL     1      -1.380  11.935  20.222  0.00  0.00    +0.000 A 
ENDBRANCH  14  15
BRANCH   9  21
ATOM     21  C   UNL     1       3.886   3.558  16.947  0.00  0.00    +0.000 C 
ATOM     22  C   UNL     1       4.934   4.367  16.709  0.00  0.00    +0.000 C 
BRANCH  22  23
ATOM     23  C   UNL     1       5.651   4.408  15.423  0.00  0.00    +0.000 A 
ATOM     24  C   UNL     1       6.869   5.093  15.279  0.00  0.00    +0.000 A 
ATOM     25  C   UNL     1       7.543   5.104  14.057  0.00  0.00    +0.000 A 
ATOM     26  C   UNL     1       7.014   4.412  12.978  0.00  0.00    +0.000 A 
ATOM     27  F   UNL     1       7.661   4.426  11.805  0.00  0.00    +0.000 F 
ATOM     28  C   UNL     1       5.826   3.702  13.101  0.00  0.00    +0.000 A 
ATOM     29  C   UNL     1       5.149   3.694  14.325  0.00  0.00    +0.000 A 
ENDBRANCH  22  23
ENDBRANCH   9  21
TORSDOF 3
ENDMDL
MODEL 3
REMARK VINA RESULT:      -8.7      1.191      1.707
REMARK  Name = 
REMARK  3 active torsions:
REMARK  status: ('A' for Active; 'I' for Inactive)
REMARK    1  A    between atoms: C_9  and  C_11
REMARK    2  A    between atoms: C_12  and  C_13
REMARK    3  A    between atoms: C_23  and  C_24
REMARK                            x       y       z     vdW  Elec       q    Type
REMARK                         _______ _______ _______ _____ _____    ______ ____
ROOT
ATOM      1  O   UNL     1      -1.046  10.935  21.489  0.00  0.00    +0.000 OA
ATOM      2  C   UNL     1      -0.355  10.418  20.621  0.00  0.00    +0.000 C 
ATOM      3  N   UNL     1       0.430   9.312  20.797  0.00  0.00    +0.000 NA
ATOM      4  C   UNL     1       1.061   9.151  19.689  0.00  0.00    +0.000 C 
ATOM      5  N   UNL     1       1.946   8.161  19.368  0.00  0.00    +0.000 N 
ATOM      6  C   UNL     1       2.278   7.108  20.344  0.00  0.00    +0.000 C 
ATOM      7  C   UNL     1       2.329   5.741  19.642  0.00  0.00    +0.000 C 
ATOM      8  N   UNL     1       3.243   5.762  18.489  0.00  0.00    +0.000 N 
ATOM      9  C   UNL     1       4.243   4.805  18.416  0.00  0.00    +0.000 C 
ATOM     10  O   UNL     1       4.437   3.972  19.296  0.00  0.00    +0.000 OA
ATOM     11  C   UNL     1       2.965   6.848  17.532  0.00  0.00    +0.000 C 
ATOM     12  C   UNL     1       2.864   8.222  18.227  0.00  0.00    +0.000 C 
ATOM     13  O   UNL     1       0.809  10.046  18.701  0.00  0.00    +0.000 OA
ATOM     14  C   UNL     1      -0.216  10.920  19.200  0.00  0.00    +0.000 C 
ENDROOT
BRANCH  14  15
ATOM     15  C   UNL     1      -1.493  10.851  18.386  0.00  0.00    +0.000 A 
ATOM     16  C   UNL     1      -2.595  11.681  18.652  0.00  0.00    +0.000 A 
ATOM     17  C   UNL     1      -3.768  11.579  17.901  0.00  0.00    +0.000 A 
ATOM     18  C   UNL     1      -3.858  10.646  16.870  0.00  0.00    +0.000 A 
ATOM     19  C   UNL     1      -2.776   9.820  16.586  0.00  0.00    +0.000 A 
ATOM     20  C   UNL     1      -1.602   9.919  17.338  0.00  0.00    +0.000 A 
ENDBRANCH  14  15
BRANCH   9  21
ATOM     21  C   UNL     1       5.117   4.827  17.216  0.00  0.00    +0.000 C 
ATOM     22  C   UNL     1       4.661   4.388  16.029  0.00  0.00    +0.000 C 
BRANCH  22  23
ATOM     23  C   UNL     1       5.484   4.349  14.808  0.00  0.00    +0.000 A 
ATOM     24  C   UNL     1       6.737   4.977  14.743  0.00  0.00    +0.000 A 
ATOM     25  C   UNL     1       7.511   4.912  13.583  0.00  0.00    +0.000 A 
ATOM     26  C   UNL     1       7.044   4.199  12.488  0.00  0.00    +0.000 A 
ATOM     27  F   UNL     1       7.787   4.140  11.376  0.00  0.00    +0.000 F 
ATOM     28  C   UNL     1       5.821   3.543  12.536  0.00  0.00    +0.000 A 
ATOM     29  C   UNL     1       5.044   3.611  13.698  0.00  0.00    +0.000 A 
ENDBRANCH  22  23
ENDBRANCH   9  21
TORSDOF 3
ENDMDL
MODEL 4
REMARK VINA RESULT:      -8.6      0.936      1.129
REMARK  Name = 
REMARK  3 active torsions:
REMARK  status: ('A' for Active; 'I' for Inactive)
REMARK    1  A    between atoms: C_9  and  C_11
REMARK    2  A    between atoms: C_12  and  C_13
REMARK    3  A    between atoms: C_23  and  C_24
REMARK                            x       y       z     vdW  Elec       q    Type
REMARK                         _______ _______ _______ _____ _____    ______ ____
ROOT
ATOM      1  O   UNL     1      -0.370  11.404  21.567  0.00  0.00    +0.000 OA
ATOM      2  C   UNL     1       0.070  10.677  20.686  0.00  0.00    +0.000 C 
ATOM      3  N   UNL     1       0.768   9.520  20.898  0.00  0.00    +0.000 NA
ATOM      4  C   UNL     1       1.132   9.112  19.734  0.00  0.00    +0.000 C 
ATOM      5  N   UNL     1       1.832   7.981  19.426  0.00  0.00    +0.000 N 
ATOM      6  C   UNL     1       2.265   7.056  20.489  0.00  0.00    +0.000 C 
ATOM      7  C   UNL     1       2.037   5.602  20.040  0.00  0.00    +0.000 C 
ATOM      8  N   UNL     1       2.684   5.331  18.746  0.00  0.00    +0.000 N 
ATOM      9  C   UNL     1       3.552   4.255  18.650  0.00  0.00    +0.000 C 
ATOM     10  O   UNL     1       3.849   3.547  19.608  0.00  0.00    +0.000 OA
ATOM     11  C   UNL     1       2.312   6.285  17.686  0.00  0.00    +0.000 C 
ATOM     12  C   UNL     1       2.490   7.750  18.136  0.00  0.00    +0.000 C 
ATOM     13  O   UNL     1       0.761   9.872  18.672  0.00  0.00    +0.000 OA
ATOM     14  C   UNL     1      -0.049  10.935  19.200  0.00  0.00    +0.000 C 
ENDROOT
BRANCH  14  15
ATOM     15  C   UNL     1      -1.470  10.905  18.673  0.00  0.00    +0.000 A 
ATOM     16  C   UNL     1      -2.447  11.815  19.110  0.00  0.00    +0.000 A 
ATOM     17  C   UNL     1      -3.756  11.749  18.625  0.00  0.00    +0.000 A 
ATOM     18  C   UNL     1      -4.108  10.774  17.694  0.00  0.00    +0.000 A 
ATOM     19  C   UNL     1      -3.153   9.869  17.244  0.00  0.00    +0.000 A 
ATOM     20  C   UNL     1      -1.844   9.932  17.729  0.00  0.00    +0.000 A 
ENDBRANCH  14  15
BRANCH   9  21
ATOM     21  C   UNL     1       4.150   3.982  17.318  0.00  0.00    +0.000 C 
ATOM     22  C   UNL     1       5.113   4.781  16.824  0.00  0.00    +0.000 C 
BRANCH  22  23
ATOM     23  C   UNL     1       5.724   4.589  15.498  0.00  0.00    +0.000 A 
ATOM     24  C   UNL     1       5.060   3.897  14.473  0.00  0.00    +0.000 A 
ATOM     25  C   UNL     1       5.648   3.743  13.216  0.00  0.00    +0.000 A 
ATOM     26  C   UNL     1       6.894   4.300  12.971  0.00  0.00    +0.000 A 
ATOM     27  F   UNL     1       7.457   4.149  11.766  0.00  0.00    +0.000 F 
ATOM     28  C   UNL     1       7.560   5.016  13.958  0.00  0.00    +0.000 A 
ATOM     29  C   UNL     1       6.971   5.167  15.218  0.00  0.00    +0.000 A 
ENDBRANCH  22  23
ENDBRANCH   9  21
TORSDOF 3
ENDMDL
MODEL 5
REMARK VINA RESULT:      -8.4      1.000      1.726
REMARK  Name = 
REMARK  3 active torsions:
REMARK  status: ('A' for Active; 'I' for Inactive)
REMARK    1  A    between atoms: C_9  and  C_11
REMARK    2  A    between atoms: C_12  and  C_13
REMARK    3  A    between atoms: C_23  and  C_24
REMARK                            x       y       z     vdW  Elec       q    Type
REMARK                         _______ _______ _______ _____ _____    ______ ____
ROOT
ATOM      1  O   UNL     1      -0.628  11.480  21.763  0.00  0.00    +0.000 OA
ATOM      2  C   UNL     1      -0.163  10.766  20.885  0.00  0.00    +0.000 C 
ATOM      3  N   UNL     1       0.553   9.621  21.101  0.00  0.00    +0.000 NA
ATOM      4  C   UNL     1       0.940   9.226  19.940  0.00  0.00    +0.000 C 
ATOM      5  N   UNL     1       1.665   8.109  19.637  0.00  0.00    +0.000 N 
ATOM      6  C   UNL     1       2.099   7.186  20.700  0.00  0.00    +0.000 C 
ATOM      7  C   UNL     1       1.904   5.731  20.242  0.00  0.00    +0.000 C 
ATOM      8  N   UNL     1       2.573   5.478  18.956  0.00  0.00    +0.000 N 
ATOM      9  C   UNL     1       3.461   4.418  18.866  0.00  0.00    +0.000 C 
ATOM     10  O   UNL     1       3.759   3.711  19.825  0.00  0.00    +0.000 OA
ATOM     11  C   UNL     1       2.198   6.430  17.895  0.00  0.00    +0.000 C 
ATOM     12  C   UNL     1       2.343   7.896  18.354  0.00  0.00    +0.000 C 
ATOM     13  O   UNL     1       0.570   9.983  18.876  0.00  0.00    +0.000 OA
ATOM     14  C   UNL     1      -0.267  11.029  19.398  0.00  0.00    +0.000 C 
ENDROOT
BRANCH  14  15
ATOM     15  C   UNL     1      -1.680  10.976  18.852  0.00  0.00    +0.000 A 
ATOM     16  C   UNL     1      -2.083  10.010  17.916  0.00  0.00    +0.000 A 
ATOM     17  C   UNL     1      -3.385  10.000  17.411  0.00  0.00    +0.000 A 
ATOM     18  C   UNL     1      -4.307  10.955  17.836  0.00  0.00    +0.000 A 
ATOM     19  C   UNL     1      -3.930  11.915  18.768  0.00  0.00    +0.000 A 
ATOM     20  C   UNL     1      -2.626  11.928  19.272  0.00  0.00    +0.000 A 
ENDBRANCH  14  15
BRANCH   9  21
ATOM     21  C   UNL     1       4.082   4.163  17.542  0.00  0.00    +0.000 C 
ATOM     22  C   UNL     1       5.048   4.972  17.071  0.00  0.00    +0.000 C 
BRANCH  22  23
ATOM     23  C   UNL     1       5.682   4.798  15.753  0.00  0.00    +0.000 A 
ATOM     24  C   UNL     1       7.000   5.213  15.507  0.00  0.00    +0.000 A 
ATOM     25  C   UNL     1       7.589   5.021  14.256  0.00  0.00    +0.000 A 
ATOM     26  C   UNL     1       6.870   4.393  13.250  0.00  0.00    +0.000 A 
ATOM     27  F   UNL     1       7.436   4.212  12.051  0.00  0.00    +0.000 F 
ATOM     28  C   UNL     1       5.574   3.945  13.476  0.00  0.00    +0.000 A 
ATOM     29  C   UNL     1       4.983   4.141  14.728  0.00  0.00    +0.000 A 
ENDBRANCH  22  23
ENDBRANCH   9  21
TORSDOF 3
ENDMDL
MODEL 6
REMARK VINA RESULT:      -8.4      1.526      2.255
REMARK  Name = 
REMARK  3 active torsions:
REMARK  status: ('A' for Active; 'I' for Inactive)
REMARK    1  A    between atoms: C_9  and  C_11
REMARK    2  A    between atoms: C_12  and  C_13
REMARK    3  A    between atoms: C_23  and  C_24
REMARK                            x       y       z     vdW  Elec       q    Type
REMARK                         _______ _______ _______ _____ _____    ______ ____
ROOT
ATOM      1  O   UNL     1      -1.733  12.069  21.823  0.00  0.00    +0.000 OA
ATOM      2  C   UNL     1      -1.110  11.514  20.929  0.00  0.00    +0.000 C 
ATOM      3  N   UNL     1      -0.221  10.490  21.108  0.00  0.00    +0.000 NA
ATOM      4  C   UNL     1       0.285  10.258  19.949  0.00  0.00    +0.000 C 
ATOM      5  N   UNL     1       1.204   9.305  19.614  0.00  0.00    +0.000 N 
ATOM      6  C   UNL     1       1.736   8.387  20.636  0.00  0.00    +0.000 C 
ATOM      7  C   UNL     1       1.815   6.960  20.066  0.00  0.00    +0.000 C 
ATOM      8  N   UNL     1       2.580   6.925  18.809  0.00  0.00    +0.000 N 
ATOM      9  C   UNL     1       3.639   6.037  18.701  0.00  0.00    +0.000 C 
ATOM     10  O   UNL     1       4.005   5.316  19.625  0.00  0.00    +0.000 OA
ATOM     11  C   UNL     1       2.101   7.882  17.796  0.00  0.00    +0.000 C 
ATOM     12  C   UNL     1       1.971   9.310  18.365  0.00  0.00    +0.000 C 
ATOM     13  O   UNL     1      -0.156  11.026  18.920  0.00  0.00    +0.000 OA
ATOM     14  C   UNL     1      -1.183  11.873  19.460  0.00  0.00    +0.000 C 
ENDROOT
BRANCH  14  15
ATOM     15  C   UNL     1      -2.538  11.629  18.825  0.00  0.00    +0.000 A 
ATOM     16  C   UNL     1      -3.710  12.232  19.312  0.00  0.00    +0.000 A 
ATOM     17  C   UNL     1      -4.949  11.971  18.721  0.00  0.00    +0.000 A 
ATOM     18  C   UNL     1      -5.036  11.104  17.634  0.00  0.00    +0.000 A 
ATOM     19  C   UNL     1      -3.886  10.503  17.133  0.00  0.00    +0.000 A 
ATOM     20  C   UNL     1      -2.646  10.762  17.723  0.00  0.00    +0.000 A 
ENDBRANCH  14  15
BRANCH   9  21
ATOM     21  C   UNL     1       4.359   5.995  17.403  0.00  0.00    +0.000 C 
ATOM     22  C   UNL     1       4.750   4.821  16.876  0.00  0.00    +0.000 C 
BRANCH  22  23
ATOM     23  C   UNL     1       5.498   4.708  15.612  0.00  0.00    +0.000 A 
ATOM     24  C   UNL     1       6.786   5.248  15.466  0.00  0.00    +0.000 A 
ATOM     25  C   UNL     1       7.486   5.114  14.266  0.00  0.00    +0.000 A 
ATOM     26  C   UNL     1       6.910   4.419  13.212  0.00  0.00    +0.000 A 
ATOM     27  F   UNL     1       7.583   4.294  12.061  0.00  0.00    +0.000 F 
ATOM     28  C   UNL     1       5.650   3.850  13.340  0.00  0.00    +0.000 A 
ATOM     29  C   UNL     1       4.947   3.987  14.542  0.00  0.00    +0.000 A 
ENDBRANCH  22  23
ENDBRANCH   9  21
TORSDOF 3
ENDMDL
MODEL 7
REMARK VINA RESULT:      -8.3      4.936     10.612
REMARK  Name = 
REMARK  3 active torsions:
REMARK  status: ('A' for Active; 'I' for Inactive)
REMARK    1  A    between atoms: C_9  and  C_11
REMARK    2  A    between atoms: C_12  and  C_13
REMARK    3  A    between atoms: C_23  and  C_24
REMARK                            x       y       z     vdW  Elec       q    Type
REMARK                         _______ _______ _______ _____ _____    ______ ____
ROOT
ATOM      1  O   UNL     1       4.424   5.643  17.634  0.00  0.00    +0.000 OA
ATOM      2  C   UNL     1       3.604   6.243  18.317  0.00  0.00    +0.000 C 
ATOM      3  N   UNL     1       2.980   7.404  17.956  0.00  0.00    +0.000 NA
ATOM      4  C   UNL     1       2.280   7.757  18.975  0.00  0.00    +0.000 C 
ATOM      5  N   UNL     1       1.458   8.842  19.090  0.00  0.00    +0.000 N 
ATOM      6  C   UNL     1       1.291   9.776  17.963  0.00  0.00    +0.000 C 
ATOM      7  C   UNL     1      -0.191  10.165  17.823  0.00  0.00    +0.000 C 
ATOM      8  N   UNL     1      -0.731  10.690  19.087  0.00  0.00    +0.000 N 
ATOM      9  C   UNL     1      -1.358  11.926  19.080  0.00  0.00    +0.000 C 
ATOM     10  O   UNL     1      -1.436  12.631  18.078  0.00  0.00    +0.000 OA
ATOM     11  C   UNL     1      -0.517   9.797  20.240  0.00  0.00    +0.000 C 
ATOM     12  C   UNL     1       0.957   9.358  20.368  0.00  0.00    +0.000 C 
ATOM     13  O   UNL     1       2.331   6.951  20.067  0.00  0.00    +0.000 OA
ATOM     14  C   UNL     1       3.150   5.828  19.700  0.00  0.00    +0.000 C 
ENDROOT
BRANCH  14  15
ATOM     15  C   UNL     1       2.394   4.514  19.740  0.00  0.00    +0.000 A 
ATOM     16  C   UNL     1       1.875   3.915  18.580  0.00  0.00    +0.000 A 
ATOM     17  C   UNL     1       1.162   2.716  18.650  0.00  0.00    +0.000 A 
ATOM     18  C   UNL     1       0.957   2.096  19.881  0.00  0.00    +0.000 A 
ATOM     19  C   UNL     1       1.469   2.669  21.039  0.00  0.00    +0.000 A 
ATOM     20  C   UNL     1       2.181   3.870  20.972  0.00  0.00    +0.000 A 
ENDBRANCH  14  15
BRANCH   9  21
ATOM     21  C   UNL     1      -1.932  12.403  20.363  0.00  0.00    +0.000 C 
ATOM     22  C   UNL     1      -1.244  13.252  21.148  0.00  0.00    +0.000 C 
BRANCH  22  23
ATOM     23  C   UNL     1      -1.739  13.736  22.448  0.00  0.00    +0.000 A 
ATOM     24  C   UNL     1      -2.960  13.297  22.983  0.00  0.00    +0.000 A 
ATOM     25  C   UNL     1      -3.403  13.753  24.226  0.00  0.00    +0.000 A 
ATOM     26  C   UNL     1      -2.615  14.635  24.951  0.00  0.00    +0.000 A 
ATOM     27  F   UNL     1      -3.042  15.073  26.141  0.00  0.00    +0.000 F 
ATOM     28  C   UNL     1      -1.388  15.062  24.459  0.00  0.00    +0.000 A 
ATOM     29  C   UNL     1      -0.947  14.607  23.211  0.00  0.00    +0.000 A 
ENDBRANCH  22  23
ENDBRANCH   9  21
TORSDOF 3
ENDMDL
MODEL 8
REMARK VINA RESULT:      -8.3      4.923     10.582
REMARK  Name = 
REMARK  3 active torsions:
REMARK  status: ('A' for Active; 'I' for Inactive)
REMARK    1  A    between atoms: C_9  and  C_11
REMARK    2  A    between atoms: C_12  and  C_13
REMARK    3  A    between atoms: C_23  and  C_24
REMARK                            x       y       z     vdW  Elec       q    Type
REMARK                         _______ _______ _______ _____ _____    ______ ____
ROOT
ATOM      1  O   UNL     1       4.402   5.604  17.616  0.00  0.00    +0.000 OA
ATOM      2  C   UNL     1       3.587   6.215  18.294  0.00  0.00    +0.000 C 
ATOM      3  N   UNL     1       2.968   7.377  17.922  0.00  0.00    +0.000 NA
ATOM      4  C   UNL     1       2.272   7.743  18.938  0.00  0.00    +0.000 C 
ATOM      5  N   UNL     1       1.457   8.834  19.043  0.00  0.00    +0.000 N 
ATOM      6  C   UNL     1       1.293   9.758  17.907  0.00  0.00    +0.000 C 
ATOM      7  C   UNL     1      -0.187  10.154  17.764  0.00  0.00    +0.000 C 
ATOM      8  N   UNL     1      -0.722  10.695  19.024  0.00  0.00    +0.000 N 
ATOM      9  C   UNL     1      -1.342  11.934  19.004  0.00  0.00    +0.000 C 
ATOM     10  O   UNL     1      -1.417  12.629  17.995  0.00  0.00    +0.000 OA
ATOM     11  C   UNL     1      -0.512   9.812  20.185  0.00  0.00    +0.000 C 
ATOM     12  C   UNL     1       0.959   9.366  20.316  0.00  0.00    +0.000 C 
ATOM     13  O   UNL     1       2.320   6.948  20.038  0.00  0.00    +0.000 OA
ATOM     14  C   UNL     1       3.131   5.817  19.681  0.00  0.00    +0.000 C 
ENDROOT
BRANCH  14  15
ATOM     15  C   UNL     1       2.368   4.508  19.736  0.00  0.00    +0.000 A 
ATOM     16  C   UNL     1       2.197   3.793  20.933  0.00  0.00    +0.000 A 
ATOM     17  C   UNL     1       1.509   2.577  20.950  0.00  0.00    +0.000 A 
ATOM     18  C   UNL     1       0.980   2.057  19.770  0.00  0.00    +0.000 A 
ATOM     19  C   UNL     1       1.133   2.753  18.576  0.00  0.00    +0.000 A 
ATOM     20  C   UNL     1       1.822   3.969  18.557  0.00  0.00    +0.000 A 
ENDBRANCH  14  15
BRANCH   9  21
ATOM     21  C   UNL     1      -1.913  12.428  20.283  0.00  0.00    +0.000 C 
ATOM     22  C   UNL     1      -1.143  13.089  21.166  0.00  0.00    +0.000 C 
BRANCH  22  23
ATOM     23  C   UNL     1      -1.635  13.575  22.467  0.00  0.00    +0.000 A 
ATOM     24  C   UNL     1      -0.954  14.568  23.189  0.00  0.00    +0.000 A 
ATOM     25  C   UNL     1      -1.447  15.030  24.411  0.00  0.00    +0.000 A 
ATOM     26  C   UNL     1      -2.635  14.515  24.907  0.00  0.00    +0.000 A 
ATOM     27  F   UNL     1      -3.105  14.956  26.080  0.00  0.00    +0.000 F 
ATOM     28  C   UNL     1      -3.344  13.553  24.199  0.00  0.00    +0.000 A 
ATOM     29  C   UNL     1      -2.848  13.089  22.976  0.00  0.00    +0.000 A 
ENDBRANCH  22  23
ENDBRANCH   9  21
TORSDOF 3
ENDMDL
MODEL 9
REMARK VINA RESULT:      -8.3      1.541      2.260
REMARK  Name = 
REMARK  3 active torsions:
REMARK  status: ('A' for Active; 'I' for Inactive)
REMARK    1  A    between atoms: C_9  and  C_11
REMARK    2  A    between atoms: C_12  and  C_13
REMARK    3  A    between atoms: C_23  and  C_24
REMARK                            x       y       z     vdW  Elec       q    Type
REMARK                         _______ _______ _______ _____ _____    ______ ____
ROOT
ATOM      1  O   UNL     1      -1.714  12.118  21.830  0.00  0.00    +0.000 OA
ATOM      2  C   UNL     1      -1.110  11.541  20.935  0.00  0.00    +0.000 C 
ATOM      3  N   UNL     1      -0.209  10.529  21.120  0.00  0.00    +0.000 NA
ATOM      4  C   UNL     1       0.267  10.267  19.955  0.00  0.00    +0.000 C 
ATOM      5  N   UNL     1       1.184   9.311  19.623  0.00  0.00    +0.000 N 
ATOM      6  C   UNL     1       1.751   8.427  20.657  0.00  0.00    +0.000 C 
ATOM      7  C   UNL     1       1.826   6.985  20.127  0.00  0.00    +0.000 C 
ATOM      8  N   UNL     1       2.557   6.917  18.852  0.00  0.00    +0.000 N 
ATOM      9  C   UNL     1       3.620   6.035  18.741  0.00  0.00    +0.000 C 
ATOM     10  O   UNL     1       4.017   5.344  19.675  0.00  0.00    +0.000 OA
ATOM     11  C   UNL     1       2.044   7.841  17.824  0.00  0.00    +0.000 C 
ATOM     12  C   UNL     1       1.917   9.285  18.354  0.00  0.00    +0.000 C 
ATOM     13  O   UNL     1      -0.208  11.000  18.916  0.00  0.00    +0.000 OA
ATOM     14  C   UNL     1      -1.227  11.856  19.459  0.00  0.00    +0.000 C 
ENDROOT
BRANCH  14  15
ATOM     15  C   UNL     1      -2.596  11.584  18.868  0.00  0.00    +0.000 A 
ATOM     16  C   UNL     1      -2.791  10.660  17.829  0.00  0.00    +0.000 A 
ATOM     17  C   UNL     1      -4.060  10.446  17.287  0.00  0.00    +0.000 A 
ATOM     18  C   UNL     1      -5.157  11.152  17.778  0.00  0.00    +0.000 A 
ATOM     19  C   UNL     1      -4.986  12.066  18.811  0.00  0.00    +0.000 A 
ATOM     20  C   UNL     1      -3.716  12.282  19.353  0.00  0.00    +0.000 A 
ENDBRANCH  14  15
BRANCH   9  21
ATOM     21  C   UNL     1       4.305   5.959  17.426  0.00  0.00    +0.000 C 
ATOM     22  C   UNL     1       4.806   4.792  16.981  0.00  0.00    +0.000 C 
BRANCH  22  23
ATOM     23  C   UNL     1       5.527   4.653  15.704  0.00  0.00    +0.000 A 
ATOM     24  C   UNL     1       4.941   4.030  14.591  0.00  0.00    +0.000 A 
ATOM     25  C   UNL     1       5.634   3.925  13.383  0.00  0.00    +0.000 A 
ATOM     26  C   UNL     1       6.907   4.463  13.276  0.00  0.00    +0.000 A 
ATOM     27  F   UNL     1       7.570   4.359  12.118  0.00  0.00    +0.000 F 
ATOM     28  C   UNL     1       7.499   5.112  14.353  0.00  0.00    +0.000 A 
ATOM     29  C   UNL     1       6.806   5.213  15.564  0.00  0.00    +0.000 A 
ENDBRANCH  22  23
ENDBRANCH   9  21
TORSDOF 3
ENDMDL
