MODEL 1
REMARK VINA RESULT:      -7.9      0.000      0.000
REMARK  Name = 
REMARK  3 active torsions:
REMARK  status: ('A' for Active; 'I' for Inactive)
REMARK    1  A    between atoms: N_4  and  C_5
REMARK    2  A    between atoms: C_8  and  C_9
REMARK    3  A    between atoms: C_9  and  N_10
REMARK                            x       y       z     vdW  Elec       q    Type
REMARK                         _______ _______ _______ _____ _____    ______ ____
ROOT
ATOM      1  C   UNL     1       1.213   9.620  18.991  0.00  0.00    +0.000 A 
ATOM      2  C   UNL     1       1.795   8.932  17.916  0.00  0.00    +0.000 A 
ATOM      3  C   UNL     1       2.340   7.660  18.104  0.00  0.00    +0.000 A 
ATOM      4  C   UNL     1       2.330   7.066  19.376  0.00  0.00    +0.000 A 
ATOM      5  C   UNL     1       1.707   7.739  20.435  0.00  0.00    +0.000 A 
ATOM      6  C   UNL     1       1.146   9.003  20.247  0.00  0.00    +0.000 A 
ENDROOT
BRANCH   1  10
ATOM      7  C   UNL     1       0.489  13.137  18.650  0.00  0.00    +0.000 A 
ATOM      8  C   UNL     1      -0.725  12.473  18.435  0.00  0.00    +0.000 A 
ATOM      9  N   UNL     1      -0.604  11.148  18.507  0.00  0.00    +0.000 NA
ATOM     10  N   UNL     1       0.709  10.934  18.794  0.00  0.00    +0.000 N 
ATOM     11  C   UNL     1       1.401  12.129  18.851  0.00  0.00    +0.000 A 
ENDBRANCH   1  10
BRANCH   4  12
ATOM     12  C   UNL     1       3.099   5.790  19.655  0.00  0.00    +0.000 C 
BRANCH  12  13
ATOM     13  N   UNL     1       2.524   4.655  18.902  0.00  0.00    +0.000 NA
ATOM     14  C   UNL     1       1.384   4.102  19.673  0.00  0.00    +0.000 C 
ATOM     15  C   UNL     1       0.813   2.775  19.177  0.00  0.00    +0.000 C 
ATOM     16  O   UNL     1       1.858   1.826  18.980  0.00  0.00    +0.000 OA
ATOM     17  C   UNL     1       2.732   2.327  17.967  0.00  0.00    +0.000 C 
ATOM     18  C   UNL     1       3.485   3.610  18.422  0.00  0.00    +0.000 C 
ATOM     19  C   UNL     1       4.269   4.139  17.214  0.00  0.00    +0.000 C 
ATOM     20  C   UNL     1       5.580   4.648  17.769  0.00  0.00    +0.000 C 
ATOM     21  O   UNL     1       5.768   4.066  19.062  0.00  0.00    +0.000 OA
ATOM     22  C   UNL     1       4.638   3.230  19.370  0.00  0.00    +0.000 C 
ENDBRANCH  12  13
ENDBRANCH   4  12
TORSDOF 3
ENDMDL
MODEL 2
REMARK VINA RESULT:      -7.8      0.428      1.139
REMARK  Name = 
REMARK  3 active torsions:
REMARK  status: ('A' for Active; 'I' for Inactive)
REMARK    1  A    between atoms: N_4  and  C_5
REMARK    2  A    between atoms: C_8  and  C_9
REMARK    3  A    between atoms: C_9  and  N_10
REMARK                            x       y       z     vdW  Elec       q    Type
REMARK                         _______ _______ _______ _____ _____    ______ ____
ROOT
ATOM      1  C   UNL     1       0.994   9.452  18.994  0.00  0.00    +0.000 A 
ATOM      2  C   UNL     1       0.989   8.942  20.301  0.00  0.00    +0.000 A 
ATOM      3  C   UNL     1       1.709   7.785  20.610  0.00  0.00    +0.000 A 
ATOM      4  C   UNL     1       2.425   7.109  19.609  0.00  0.00    +0.000 A 
ATOM      5  C   UNL     1       2.462   7.649  18.317  0.00  0.00    +0.000 A 
ATOM      6  C   UNL     1       1.758   8.814  18.009  0.00  0.00    +0.000 A 
ENDROOT
BRANCH   1  10
ATOM      7  C   UNL     1      -0.518  12.680  18.447  0.00  0.00    +0.000 A 
ATOM      8  C   UNL     1      -1.483  11.737  18.071  0.00  0.00    +0.000 A 
ATOM      9  N   UNL     1      -1.049  10.483  18.198  0.00  0.00    +0.000 NA
ATOM     10  N   UNL     1       0.216  10.601  18.686  0.00  0.00    +0.000 N 
ATOM     11  C   UNL     1       0.573  11.929  18.812  0.00  0.00    +0.000 A 
ENDBRANCH   1  10
BRANCH   4  12
ATOM     12  C   UNL     1       3.034   5.744  19.863  0.00  0.00    +0.000 C 
BRANCH  12  13
ATOM     13  N   UNL     1       2.427   4.725  18.980  0.00  0.00    +0.000 NA
ATOM     14  C   UNL     1       1.286   4.099  19.691  0.00  0.00    +0.000 C 
ATOM     15  C   UNL     1       0.682   2.857  19.038  0.00  0.00    +0.000 C 
ATOM     16  O   UNL     1       1.706   1.922  18.705  0.00  0.00    +0.000 OA
ATOM     17  C   UNL     1       2.577   2.533  17.752  0.00  0.00    +0.000 C 
ATOM     18  C   UNL     1       3.360   3.734  18.355  0.00  0.00    +0.000 C 
ATOM     19  C   UNL     1       4.140   4.398  17.214  0.00  0.00    +0.000 C 
ATOM     20  C   UNL     1       5.468   4.808  17.809  0.00  0.00    +0.000 C 
ATOM     21  O   UNL     1       5.660   4.062  19.014  0.00  0.00    +0.000 OA
ATOM     22  C   UNL     1       4.518   3.214  19.230  0.00  0.00    +0.000 C 
ENDBRANCH  12  13
ENDBRANCH   4  12
TORSDOF 3
ENDMDL
MODEL 3
REMARK VINA RESULT:      -7.5      2.477      3.548
REMARK  Name = 
REMARK  3 active torsions:
REMARK  status: ('A' for Active; 'I' for Inactive)
REMARK    1  A    between atoms: N_4  and  C_5
REMARK    2  A    between atoms: C_8  and  C_9
REMARK    3  A    between atoms: C_9  and  N_10
REMARK                            x       y       z     vdW  Elec       q    Type
REMARK                         _______ _______ _______ _____ _____    ______ ____
ROOT
ATOM      1  C   UNL     1       1.899   8.296  19.096  0.00  0.00    +0.000 A 
ATOM      2  C   UNL     1       2.628   8.343  17.899  0.00  0.00    +0.000 A 
ATOM      3  C   UNL     1       3.514   7.314  17.571  0.00  0.00    +0.000 A 
ATOM      4  C   UNL     1       3.700   6.233  18.447  0.00  0.00    +0.000 A 
ATOM      5  C   UNL     1       2.935   6.169  19.619  0.00  0.00    +0.000 A 
ATOM      6  C   UNL     1       2.036   7.187  19.942  0.00  0.00    +0.000 A 
ENDROOT
BRANCH   1  10
ATOM      7  C   UNL     1      -0.212  10.841  20.536  0.00  0.00    +0.000 A 
ATOM      8  C   UNL     1      -0.298  11.011  19.148  0.00  0.00    +0.000 A 
ATOM      9  N   UNL     1       0.459  10.144  18.478  0.00  0.00    +0.000 NA
ATOM     10  N   UNL     1       1.041   9.375  19.439  0.00  0.00    +0.000 N 
ATOM     11  C   UNL     1       0.674   9.804  20.700  0.00  0.00    +0.000 A 
ENDBRANCH   1  10
BRANCH   4  12
ATOM     12  C   UNL     1       4.803   5.218  18.223  0.00  0.00    +0.000 C 
BRANCH  12  13
ATOM     13  N   UNL     1       5.372   5.352  16.865  0.00  0.00    +0.000 NA
ATOM     14  C   UNL     1       4.744   4.338  15.985  0.00  0.00    +0.000 C 
ATOM     15  C   UNL     1       5.374   4.157  14.604  0.00  0.00    +0.000 C 
ATOM     16  O   UNL     1       6.785   3.990  14.720  0.00  0.00    +0.000 OA
ATOM     17  C   UNL     1       7.330   5.179  15.293  0.00  0.00    +0.000 C 
ATOM     18  C   UNL     1       6.867   5.390  16.763  0.00  0.00    +0.000 C 
ATOM     19  C   UNL     1       7.386   6.760  17.220  0.00  0.00    +0.000 C 
ATOM     20  C   UNL     1       7.798   6.580  18.663  0.00  0.00    +0.000 C 
ATOM     21  O   UNL     1       7.962   5.180  18.904  0.00  0.00    +0.000 OA
ATOM     22  C   UNL     1       7.657   4.456  17.699  0.00  0.00    +0.000 C 
ENDBRANCH  12  13
ENDBRANCH   4  12
TORSDOF 3
ENDMDL
MODEL 4
REMARK VINA RESULT:      -7.5      1.573      3.104
REMARK  Name = 
REMARK  3 active torsions:
REMARK  status: ('A' for Active; 'I' for Inactive)
REMARK    1  A    between atoms: N_4  and  C_5
REMARK    2  A    between atoms: C_8  and  C_9
REMARK    3  A    between atoms: C_9  and  N_10
REMARK                            x       y       z     vdW  Elec       q    Type
REMARK                         _______ _______ _______ _____ _____    ______ ____
ROOT
ATOM      1  C   UNL     1       0.907   9.760  19.798  0.00  0.00    +0.000 A 
ATOM      2  C   UNL     1       1.282   8.635  20.546  0.00  0.00    +0.000 A 
ATOM      3  C   UNL     1       1.981   7.586  19.943  0.00  0.00    +0.000 A 
ATOM      4  C   UNL     1       2.293   7.639  18.575  0.00  0.00    +0.000 A 
ATOM      5  C   UNL     1       1.956   8.785  17.844  0.00  0.00    +0.000 A 
ATOM      6  C   UNL     1       1.273   9.842  18.448  0.00  0.00    +0.000 A 
ENDROOT
BRANCH   1  10
ATOM      7  C   UNL     1      -1.374  12.333  20.887  0.00  0.00    +0.000 A 
ATOM      8  C   UNL     1      -0.321  12.338  21.810  0.00  0.00    +0.000 A 
ATOM      9  N   UNL     1       0.597  11.410  21.545  0.00  0.00    +0.000 NA
ATOM     10  N   UNL     1       0.153  10.795  20.416  0.00  0.00    +0.000 N 
ATOM     11  C   UNL     1      -1.063  11.316  20.017  0.00  0.00    +0.000 A 
ENDBRANCH   1  10
BRANCH   4  12
ATOM     12  C   UNL     1       2.855   6.432  17.849  0.00  0.00    +0.000 C 
BRANCH  12  13
ATOM     13  N   UNL     1       3.741   5.650  18.738  0.00  0.00    +0.000 NA
ATOM     14  C   UNL     1       5.140   6.091  18.521  0.00  0.00    +0.000 C 
ATOM     15  C   UNL     1       6.227   5.235  19.170  0.00  0.00    +0.000 C 
ATOM     16  O   UNL     1       6.027   3.858  18.858  0.00  0.00    +0.000 OA
ATOM     17  C   UNL     1       4.771   3.453  19.406  0.00  0.00    +0.000 C 
ATOM     18  C   UNL     1       3.572   4.161  18.715  0.00  0.00    +0.000 C 
ATOM     19  C   UNL     1       2.300   3.769  19.478  0.00  0.00    +0.000 C 
ATOM     20  C   UNL     1       1.228   3.597  18.425  0.00  0.00    +0.000 C 
ATOM     21  O   UNL     1       1.874   3.430  17.161  0.00  0.00    +0.000 OA
ATOM     22  C   UNL     1       3.299   3.508  17.346  0.00  0.00    +0.000 C 
ENDBRANCH  12  13
ENDBRANCH   4  12
TORSDOF 3
ENDMDL
MODEL 5
REMARK VINA RESULT:      -7.5      2.144      3.751
REMARK  Name = 
REMARK  3 active torsions:
REMARK  status: ('A' for Active; 'I' for Inactive)
REMARK    1  A    between atoms: N_4  and  C_5
REMARK    2  A    between atoms: C_8  and  C_9
REMARK    3  A    between atoms: C_9  and  N_10
REMARK                            x       y       z     vdW  Elec       q    Type
REMARK                         _______ _______ _______ _____ _____    ______ ____
ROOT
ATOM      1  C   UNL     1       1.125   8.801  20.357  0.00  0.00    +0.000 A 
ATOM      2  C   UNL     1       1.617   7.572  20.819  0.00  0.00    +0.000 A 
ATOM      3  C   UNL     1       2.393   6.763  19.985  0.00  0.00    +0.000 A 
ATOM      4  C   UNL     1       2.668   7.163  18.668  0.00  0.00    +0.000 A 
ATOM      5  C   UNL     1       2.212   8.413  18.227  0.00  0.00    +0.000 A 
ATOM      6  C   UNL     1       1.451   9.231  19.064  0.00  0.00    +0.000 A 
ENDROOT
BRANCH   1  10
ATOM      7  C   UNL     1      -0.957  11.209  22.054  0.00  0.00    +0.000 A 
ATOM      8  C   UNL     1      -0.757  10.164  22.965  0.00  0.00    +0.000 A 
ATOM      9  N   UNL     1      -0.016   9.178  22.461  0.00  0.00    +0.000 NA
ATOM     10  N   UNL     1       0.295   9.588  21.201  0.00  0.00    +0.000 N 
ATOM     11  C   UNL     1      -0.296  10.805  20.919  0.00  0.00    +0.000 A 
ENDBRANCH   1  10
BRANCH   4  12
ATOM     12  C   UNL     1       3.320   6.218  17.678  0.00  0.00    +0.000 C 
BRANCH  12  13
ATOM     13  N   UNL     1       4.755   6.041  17.986  0.00  0.00    +0.000 NA
ATOM     14  C   UNL     1       5.538   6.995  17.164  0.00  0.00    +0.000 C 
ATOM     15  C   UNL     1       7.053   6.800  17.161  0.00  0.00    +0.000 C 
ATOM     16  O   UNL     1       7.379   5.439  16.889  0.00  0.00    +0.000 OA
ATOM     17  C   UNL     1       6.840   4.632  17.937  0.00  0.00    +0.000 C 
ATOM     18  C   UNL     1       5.284   4.641  17.945  0.00  0.00    +0.000 C 
ATOM     19  C   UNL     1       4.824   3.872  19.190  0.00  0.00    +0.000 C 
ATOM     20  C   UNL     1       3.601   3.093  18.761  0.00  0.00    +0.000 C 
ATOM     21  O   UNL     1       3.605   3.017  17.333  0.00  0.00    +0.000 OA
ATOM     22  C   UNL     1       4.752   3.723  16.828  0.00  0.00    +0.000 C 
ENDBRANCH  12  13
ENDBRANCH   4  12
TORSDOF 3
ENDMDL
MODEL 6
REMARK VINA RESULT:      -7.5      2.622      3.852
REMARK  Name = 
REMARK  3 active torsions:
REMARK  status: ('A' for Active; 'I' for Inactive)
REMARK    1  A    between atoms: N_4  and  C_5
REMARK    2  A    between atoms: C_8  and  C_9
REMARK    3  A    between atoms: C_9  and  N_10
REMARK                            x       y       z     vdW  Elec       q    Type
REMARK                         _______ _______ _______ _____ _____    ______ ____
ROOT
ATOM      1  C   UNL     1       1.998   7.685  19.574  0.00  0.00    +0.000 A 
ATOM      2  C   UNL     1       2.625   7.872  18.334  0.00  0.00    +0.000 A 
ATOM      3  C   UNL     1       3.475   6.891  17.818  0.00  0.00    +0.000 A 
ATOM      4  C   UNL     1       3.727   5.719  18.547  0.00  0.00    +0.000 A 
ATOM      5  C   UNL     1       3.062   5.518  19.763  0.00  0.00    +0.000 A 
ATOM      6  C   UNL     1       2.199   6.489  20.274  0.00  0.00    +0.000 A 
ENDROOT
BRANCH   1  10
ATOM      7  C   UNL     1      -0.073  10.530  20.370  0.00  0.00    +0.000 A 
ATOM      8  C   UNL     1       0.146   9.863  21.582  0.00  0.00    +0.000 A 
ATOM      9  N   UNL     1       0.885   8.764  21.437  0.00  0.00    +0.000 NA
ATOM     10  N   UNL     1       1.176   8.715  20.108  0.00  0.00    +0.000 N 
ATOM     11  C   UNL     1       0.574   9.760  19.434  0.00  0.00    +0.000 A 
ENDBRANCH   1  10
BRANCH   4  12
ATOM     12  C   UNL     1       4.803   4.741  18.117  0.00  0.00    +0.000 C 
BRANCH  12  13
ATOM     13  N   UNL     1       5.350   5.109  16.793  0.00  0.00    +0.000 NA
ATOM     14  C   UNL     1       4.831   4.154  15.784  0.00  0.00    +0.000 C 
ATOM     15  C   UNL     1       5.472   4.221  14.398  0.00  0.00    +0.000 C 
ATOM     16  O   UNL     1       6.893   4.194  14.506  0.00  0.00    +0.000 OA
ATOM     17  C   UNL     1       7.309   5.351  15.232  0.00  0.00    +0.000 C 
ATOM     18  C   UNL     1       6.830   5.321  16.712  0.00  0.00    +0.000 C 
ATOM     19  C   UNL     1       7.200   6.668  17.346  0.00  0.00    +0.000 C 
ATOM     20  C   UNL     1       7.635   6.350  18.759  0.00  0.00    +0.000 C 
ATOM     21  O   UNL     1       7.951   4.957  18.820  0.00  0.00    +0.000 OA
ATOM     22  C   UNL     1       7.721   4.365  17.528  0.00  0.00    +0.000 C 
ENDBRANCH  12  13
ENDBRANCH   4  12
TORSDOF 3
ENDMDL
MODEL 7
REMARK VINA RESULT:      -7.4      2.122      3.744
REMARK  Name = 
REMARK  3 active torsions:
REMARK  status: ('A' for Active; 'I' for Inactive)
REMARK    1  A    between atoms: N_4  and  C_5
REMARK    2  A    between atoms: C_8  and  C_9
REMARK    3  A    between atoms: C_9  and  N_10
REMARK                            x       y       z     vdW  Elec       q    Type
REMARK                         _______ _______ _______ _____ _____    ______ ____
ROOT
ATOM      1  C   UNL     1       1.302   8.720  20.110  0.00  0.00    +0.000 A 
ATOM      2  C   UNL     1       1.466   9.138  18.782  0.00  0.00    +0.000 A 
ATOM      3  C   UNL     1       2.137   8.327  17.864  0.00  0.00    +0.000 A 
ATOM      4  C   UNL     1       2.673   7.094  18.269  0.00  0.00    +0.000 A 
ATOM      5  C   UNL     1       2.466   6.662  19.585  0.00  0.00    +0.000 A 
ATOM      6  C   UNL     1       1.781   7.463  20.500  0.00  0.00    +0.000 A 
ENDROOT
BRANCH   1  10
ATOM      7  C   UNL     1      -0.468  10.393  22.771  0.00  0.00    +0.000 A 
ATOM      8  C   UNL     1      -0.115  11.394  21.857  0.00  0.00    +0.000 A 
ATOM      9  N   UNL     1       0.574  10.920  20.820  0.00  0.00    +0.000 NA
ATOM     10  N   UNL     1       0.661   9.581  21.043  0.00  0.00    +0.000 N 
ATOM     11  C   UNL     1       0.065   9.242  22.242  0.00  0.00    +0.000 A 
ENDBRANCH   1  10
BRANCH   4  12
ATOM     12  C   UNL     1       3.586   6.296  17.359  0.00  0.00    +0.000 C 
BRANCH  12  13
ATOM     13  N   UNL     1       4.953   6.223  17.918  0.00  0.00    +0.000 NA
ATOM     14  C   UNL     1       5.805   7.216  17.220  0.00  0.00    +0.000 C 
ATOM     15  C   UNL     1       7.307   7.126  17.489  0.00  0.00    +0.000 C 
ATOM     16  O   UNL     1       7.763   5.787  17.315  0.00  0.00    +0.000 OA
ATOM     17  C   UNL     1       7.101   4.960  18.273  0.00  0.00    +0.000 C 
ATOM     18  C   UNL     1       5.572   4.862  18.009  0.00  0.00    +0.000 C 
ATOM     19  C   UNL     1       4.949   4.082  19.174  0.00  0.00    +0.000 C 
ATOM     20  C   UNL     1       3.875   3.214  18.559  0.00  0.00    +0.000 C 
ATOM     21  O   UNL     1       4.135   3.117  17.157  0.00  0.00    +0.000 OA
ATOM     22  C   UNL     1       5.306   3.893  16.840  0.00  0.00    +0.000 C 
ENDBRANCH  12  13
ENDBRANCH   4  12
TORSDOF 3
ENDMDL
MODEL 8
REMARK VINA RESULT:      -7.4      2.567      3.789
REMARK  Name = 
REMARK  3 active torsions:
REMARK  status: ('A' for Active; 'I' for Inactive)
REMARK    1  A    between atoms: N_4  and  C_5
REMARK    2  A    between atoms: C_8  and  C_9
REMARK    3  A    between atoms: C_9  and  N_10
REMARK                            x       y       z     vdW  Elec       q    Type
REMARK                         _______ _______ _______ _____ _____    ______ ____
ROOT
ATOM      1  C   UNL     1       1.980   8.163  19.039  0.00  0.00    +0.000 A 
ATOM      2  C   UNL     1       2.177   7.099  19.931  0.00  0.00    +0.000 A 
ATOM      3  C   UNL     1       3.125   6.112  19.655  0.00  0.00    +0.000 A 
ATOM      4  C   UNL     1       3.874   6.162  18.468  0.00  0.00    +0.000 A 
ATOM      5  C   UNL     1       3.705   7.251  17.603  0.00  0.00    +0.000 A 
ATOM      6  C   UNL     1       2.770   8.249  17.885  0.00  0.00    +0.000 A 
ENDROOT
BRANCH   1  10
ATOM      7  C   UNL     1      -0.473  10.805  19.160  0.00  0.00    +0.000 A 
ATOM      8  C   UNL     1      -0.420  10.271  20.454  0.00  0.00    +0.000 A 
ATOM      9  N   UNL     1       0.438   9.257  20.555  0.00  0.00    +0.000 NA
ATOM     10  N   UNL     1       0.975   9.131  19.311  0.00  0.00    +0.000 N 
ATOM     11  C   UNL     1       0.410  10.040  18.437  0.00  0.00    +0.000 A 
ENDBRANCH   1  10
BRANCH   4  12
ATOM     12  C   UNL     1       4.750   5.001  18.040  0.00  0.00    +0.000 C 
BRANCH  12  13
ATOM     13  N   UNL     1       5.346   5.256  16.711  0.00  0.00    +0.000 NA
ATOM     14  C   UNL     1       4.780   4.285  15.743  0.00  0.00    +0.000 C 
ATOM     15  C   UNL     1       5.450   4.229  14.371  0.00  0.00    +0.000 C 
ATOM     16  O   UNL     1       6.864   4.108  14.512  0.00  0.00    +0.000 OA
ATOM     17  C   UNL     1       7.347   5.272  15.184  0.00  0.00    +0.000 C 
ATOM     18  C   UNL     1       6.839   5.358  16.652  0.00  0.00    +0.000 C 
ATOM     19  C   UNL     1       7.292   6.709  17.220  0.00  0.00    +0.000 C 
ATOM     20  C   UNL     1       7.676   6.441  18.658  0.00  0.00    +0.000 C 
ATOM     21  O   UNL     1       7.890   5.035  18.802  0.00  0.00    +0.000 OA
ATOM     22  C   UNL     1       7.644   4.389  17.539  0.00  0.00    +0.000 C 
ENDBRANCH  12  13
ENDBRANCH   4  12
TORSDOF 3
ENDMDL
MODEL 9
REMARK VINA RESULT:      -7.2      1.706      3.063
REMARK  Name = 
REMARK  3 active torsions:
REMARK  status: ('A' for Active; 'I' for Inactive)
REMARK    1  A    between atoms: N_4  and  C_5
REMARK    2  A    between atoms: C_8  and  C_9
REMARK    3  A    between atoms: C_9  and  N_10
REMARK                            x       y       z     vdW  Elec       q    Type
REMARK                         _______ _______ _______ _____ _____    ______ ____
ROOT
ATOM      1  C   UNL     1       0.966   9.574  20.045  0.00  0.00    +0.000 A 
ATOM      2  C   UNL     1       1.090   9.734  18.657  0.00  0.00    +0.000 A 
ATOM      3  C   UNL     1       1.696   8.741  17.883  0.00  0.00    +0.000 A 
ATOM      4  C   UNL     1       2.207   7.584  18.491  0.00  0.00    +0.000 A 
ATOM      5  C   UNL     1       2.039   7.410  19.871  0.00  0.00    +0.000 A 
ATOM      6  C   UNL     1       1.419   8.392  20.645  0.00  0.00    +0.000 A 
ENDROOT
BRANCH   1  10
ATOM      7  C   UNL     1      -0.661  11.773  22.395  0.00  0.00    +0.000 A 
ATOM      8  C   UNL     1      -0.256  12.585  21.328  0.00  0.00    +0.000 A 
ATOM      9  N   UNL     1       0.390  11.903  20.383  0.00  0.00    +0.000 NA
ATOM     10  N   UNL     1       0.393  10.616  20.824  0.00  0.00    +0.000 N 
ATOM     11  C   UNL     1      -0.210  10.519  22.063  0.00  0.00    +0.000 A 
ENDBRANCH   1  10
BRANCH   4  12
ATOM     12  C   UNL     1       3.055   6.596  17.714  0.00  0.00    +0.000 C 
BRANCH  12  13
ATOM     13  N   UNL     1       3.894   5.792  18.628  0.00  0.00    +0.000 NA
ATOM     14  C   UNL     1       5.309   6.202  18.458  0.00  0.00    +0.000 C 
ATOM     15  C   UNL     1       6.356   5.320  19.139  0.00  0.00    +0.000 C 
ATOM     16  O   UNL     1       6.135   3.949  18.817  0.00  0.00    +0.000 OA
ATOM     17  C   UNL     1       4.854   3.571  19.323  0.00  0.00    +0.000 C 
ATOM     18  C   UNL     1       3.693   4.307  18.595  0.00  0.00    +0.000 C 
ATOM     19  C   UNL     1       2.389   3.941  19.316  0.00  0.00    +0.000 C 
ATOM     20  C   UNL     1       1.348   3.796  18.229  0.00  0.00    +0.000 C 
ATOM     21  O   UNL     1       2.031   3.618  16.985  0.00  0.00    +0.000 OA
ATOM     22  C   UNL     1       3.450   3.664  17.217  0.00  0.00    +0.000 C 
ENDBRANCH  12  13
ENDBRANCH   4  12
TORSDOF 3
ENDMDL
