MODEL 1
REMARK VINA RESULT:      -7.1      0.000      0.000
REMARK  Name = 
REMARK  0 active torsions:
REMARK  status: ('A' for Active; 'I' for Inactive)
REMARK                            x       y       z     vdW  Elec       q    Type
REMARK                         _______ _______ _______ _____ _____    ______ ____
ROOT
ATOM      1  C   UNL     1      -0.337  11.799  21.360  0.00  0.00    +0.000 A 
ATOM      2  C   UNL     1      -0.773  11.173  22.502  0.00  0.00    +0.000 A 
ATOM      3  S   UNL     1      -0.303   9.531  22.468  0.00  0.00    +0.000 S 
ATOM      4  C   UNL     1       0.463   9.767  20.927  0.00  0.00    +0.000 A 
ATOM      5  N   UNL     1       1.057   8.766  20.212  0.00  0.00    +0.000 N 
ATOM      6  C   UNL     1       1.723   7.647  20.898  0.00  0.00    +0.000 C 
ATOM      7  C   UNL     1       1.867   6.439  19.946  0.00  0.00    +0.000 C 
ATOM      8  N   UNL     1       2.531   6.823  18.693  0.00  0.00    +0.000 N 
ATOM      9  C   UNL     1       3.674   6.221  18.201  0.00  0.00    +0.000 A 
ATOM     10  C   UNL     1       3.906   4.755  18.476  0.00  0.00    +0.000 A 
ATOM     11  C   UNL     1       5.013   4.161  18.020  0.00  0.00    +0.000 A 
ATOM     12  C   UNL     1       5.932   4.935  17.297  0.00  0.00    +0.000 A 
ATOM     13  N   UNL     1       7.093   4.685  16.734  0.00  0.00    +0.000 NA
ATOM     14  N   UNL     1       7.492   5.875  16.169  0.00  0.00    +0.000 NA
ATOM     15  N   UNL     1       6.595   6.834  16.376  0.00  0.00    +0.000 NA
ATOM     16  N   UNL     1       5.610   6.258  17.082  0.00  0.00    +0.000 N 
ATOM     17  N   UNL     1       4.512   6.938  17.494  0.00  0.00    +0.000 NA
ATOM     18  C   UNL     1       1.895   7.969  18.016  0.00  0.00    +0.000 C 
ATOM     19  C   UNL     1       1.744   9.171  18.964  0.00  0.00    +0.000 C 
ATOM     20  N   UNL     1       0.355  11.002  20.476  0.00  0.00    +0.000 NA
ENDROOT
TORSDOF 0
ENDMDL
MODEL 2
REMARK VINA RESULT:      -6.7      2.884      3.648
REMARK  Name = 
REMARK  0 active torsions:
REMARK  status: ('A' for Active; 'I' for Inactive)
REMARK                            x       y       z     vdW  Elec       q    Type
REMARK                         _______ _______ _______ _____ _____    ______ ____
ROOT
ATOM      1  C   UNL     1      -1.493  12.324  20.761  0.00  0.00    +0.000 A 
ATOM      2  C   UNL     1      -1.240  13.122  19.673  0.00  0.00    +0.000 A 
ATOM      3  S   UNL     1      -0.115  12.349  18.646  0.00  0.00    +0.000 S 
ATOM      4  C   UNL     1      -0.045  10.988  19.724  0.00  0.00    +0.000 A 
ATOM      5  N   UNL     1       0.774   9.911  19.537  0.00  0.00    +0.000 N 
ATOM      6  C   UNL     1       1.109   9.449  18.180  0.00  0.00    +0.000 C 
ATOM      7  C   UNL     1       2.389   8.585  18.205  0.00  0.00    +0.000 C 
ATOM      8  N   UNL     1       2.271   7.487  19.174  0.00  0.00    +0.000 N 
ATOM      9  C   UNL     1       2.437   6.150  18.861  0.00  0.00    +0.000 A 
ATOM     10  C   UNL     1       3.406   5.769  17.768  0.00  0.00    +0.000 A 
ATOM     11  C   UNL     1       3.568   4.483  17.443  0.00  0.00    +0.000 A 
ATOM     12  C   UNL     1       2.816   3.523  18.135  0.00  0.00    +0.000 A 
ATOM     13  N   UNL     1       2.718   2.214  18.065  0.00  0.00    +0.000 NA
ATOM     14  N   UNL     1       1.802   1.861  19.031  0.00  0.00    +0.000 NA
ATOM     15  N   UNL     1       1.350   2.928  19.683  0.00  0.00    +0.000 NA
ATOM     16  N   UNL     1       1.979   3.978  19.132  0.00  0.00    +0.000 N 
ATOM     17  N   UNL     1       1.762   5.253  19.536  0.00  0.00    +0.000 NA
ATOM     18  C   UNL     1       1.897   7.933  20.529  0.00  0.00    +0.000 C 
ATOM     19  C   UNL     1       0.627   8.801  20.506  0.00  0.00    +0.000 C 
ATOM     20  N   UNL     1      -0.816  11.127  20.786  0.00  0.00    +0.000 NA
ENDROOT
TORSDOF 0
ENDMDL
MODEL 3
REMARK VINA RESULT:      -6.7      3.029      4.074
REMARK  Name = 
REMARK  0 active torsions:
REMARK  status: ('A' for Active; 'I' for Inactive)
REMARK                            x       y       z     vdW  Elec       q    Type
REMARK                         _______ _______ _______ _____ _____    ______ ____
ROOT
ATOM      1  C   UNL     1      -2.668  12.402  23.317  0.00  0.00    +0.000 A 
ATOM      2  C   UNL     1      -2.919  13.229  22.251  0.00  0.00    +0.000 A 
ATOM      3  S   UNL     1      -1.988  12.728  20.908  0.00  0.00    +0.000 S 
ATOM      4  C   UNL     1      -1.316  11.427  21.842  0.00  0.00    +0.000 A 
ATOM      5  N   UNL     1      -0.366  10.565  21.372  0.00  0.00    +0.000 N 
ATOM      6  C   UNL     1      -0.336  10.183  19.951  0.00  0.00    +0.000 C 
ATOM      7  C   UNL     1       1.057   9.636  19.568  0.00  0.00    +0.000 C 
ATOM      8  N   UNL     1       1.466   8.546  20.465  0.00  0.00    +0.000 N 
ATOM      9  C   UNL     1       1.828   7.281  20.040  0.00  0.00    +0.000 A 
ATOM     10  C   UNL     1       2.506   7.125  18.700  0.00  0.00    +0.000 A 
ATOM     11  C   UNL     1       2.851   5.909  18.268  0.00  0.00    +0.000 A 
ATOM     12  C   UNL     1       2.559   4.806  19.085  0.00  0.00    +0.000 A 
ATOM     13  N   UNL     1       2.738   3.510  18.968  0.00  0.00    +0.000 NA
ATOM     14  N   UNL     1       2.236   2.962  20.127  0.00  0.00    +0.000 NA
ATOM     15  N   UNL     1       1.763   3.901  20.941  0.00  0.00    +0.000 NA
ATOM     16  N   UNL     1       1.960   5.064  20.300  0.00  0.00    +0.000 N 
ATOM     17  N   UNL     1       1.589   6.258  20.822  0.00  0.00    +0.000 NA
ATOM     18  C   UNL     1       1.403   8.904  21.895  0.00  0.00    +0.000 C 
ATOM     19  C   UNL     1       0.019   9.458  22.277  0.00  0.00    +0.000 C 
ATOM     20  N   UNL     1      -1.764  11.392  23.083  0.00  0.00    +0.000 NA
ENDROOT
TORSDOF 0
ENDMDL
MODEL 4
REMARK VINA RESULT:      -6.3      2.893      4.914
REMARK  Name = 
REMARK  0 active torsions:
REMARK  status: ('A' for Active; 'I' for Inactive)
REMARK                            x       y       z     vdW  Elec       q    Type
REMARK                         _______ _______ _______ _____ _____    ______ ____
ROOT
ATOM      1  C   UNL     1      -4.171  12.649  24.039  0.00  0.00    +0.000 A 
ATOM      2  C   UNL     1      -4.794  13.463  23.126  0.00  0.00    +0.000 A 
ATOM      3  S   UNL     1      -3.944  13.414  21.644  0.00  0.00    +0.000 S 
ATOM      4  C   UNL     1      -2.799  12.297  22.322  0.00  0.00    +0.000 A 
ATOM      5  N   UNL     1      -1.708  11.826  21.648  0.00  0.00    +0.000 N 
ATOM      6  C   UNL     1      -1.756  11.619  20.192  0.00  0.00    +0.000 C 
ATOM      7  C   UNL     1      -0.327  11.572  19.606  0.00  0.00    +0.000 C 
ATOM      8  N   UNL     1       0.502  10.578  20.302  0.00  0.00    +0.000 N 
ATOM      9  C   UNL     1       1.162   9.538  19.674  0.00  0.00    +0.000 A 
ATOM     10  C   UNL     1       1.672   9.737  18.267  0.00  0.00    +0.000 A 
ATOM     11  C   UNL     1       2.300   8.738  17.640  0.00  0.00    +0.000 A 
ATOM     12  C   UNL     1       2.458   7.523  18.321  0.00  0.00    +0.000 A 
ATOM     13  N   UNL     1       2.995   6.364  18.010  0.00  0.00    +0.000 NA
ATOM     14  N   UNL     1       2.837   5.573  19.125  0.00  0.00    +0.000 NA
ATOM     15  N   UNL     1       2.220   6.231  20.102  0.00  0.00    +0.000 NA
ATOM     16  N   UNL     1       1.977   7.457  19.612  0.00  0.00    +0.000 N 
ATOM     17  N   UNL     1       1.342   8.417  20.327  0.00  0.00    +0.000 NA
ATOM     18  C   UNL     1       0.526  10.751  21.767  0.00  0.00    +0.000 C 
ATOM     19  C   UNL     1      -0.897  10.806  22.352  0.00  0.00    +0.000 C 
ATOM     20  N   UNL     1      -3.048  11.999  23.583  0.00  0.00    +0.000 NA
ENDROOT
TORSDOF 0
ENDMDL
MODEL 5
REMARK VINA RESULT:      -6.3      2.684      7.734
REMARK  Name = 
REMARK  0 active torsions:
REMARK  status: ('A' for Active; 'I' for Inactive)
REMARK                            x       y       z     vdW  Elec       q    Type
REMARK                         _______ _______ _______ _____ _____    ______ ____
ROOT
ATOM      1  C   UNL     1       7.092   4.379  17.875  0.00  0.00    +0.000 A 
ATOM      2  C   UNL     1       7.362   4.891  16.630  0.00  0.00    +0.000 A 
ATOM      3  S   UNL     1       6.161   6.031  16.209  0.00  0.00    +0.000 S 
ATOM      4  C   UNL     1       5.360   5.770  17.728  0.00  0.00    +0.000 A 
ATOM      5  N   UNL     1       4.186   6.372  18.082  0.00  0.00    +0.000 N 
ATOM      6  C   UNL     1       3.869   7.731  17.615  0.00  0.00    +0.000 C 
ATOM      7  C   UNL     1       2.349   7.993  17.710  0.00  0.00    +0.000 C 
ATOM      8  N   UNL     1       1.844   7.717  19.062  0.00  0.00    +0.000 N 
ATOM      9  C   UNL     1       1.155   8.631  19.838  0.00  0.00    +0.000 A 
ATOM     10  C   UNL     1       0.273   9.651  19.159  0.00  0.00    +0.000 A 
ATOM     11  C   UNL     1      -0.389  10.550  19.893  0.00  0.00    +0.000 A 
ATOM     12  C   UNL     1      -0.231  10.515  21.286  0.00  0.00    +0.000 A 
ATOM     13  N   UNL     1      -0.706  11.236  22.277  0.00  0.00    +0.000 NA
ATOM     14  N   UNL     1      -0.175  10.684  23.421  0.00  0.00    +0.000 NA
ATOM     15  N   UNL     1       0.605   9.645  23.141  0.00  0.00    +0.000 NA
ATOM     16  N   UNL     1       0.577   9.526  21.804  0.00  0.00    +0.000 N 
ATOM     17  N   UNL     1       1.274   8.571  21.141  0.00  0.00    +0.000 NA
ATOM     18  C   UNL     1       2.190   6.371  19.557  0.00  0.00    +0.000 C 
ATOM     19  C   UNL     1       3.702   6.105  19.456  0.00  0.00    +0.000 C 
ATOM     20  N   UNL     1       5.964   4.874  18.487  0.00  0.00    +0.000 NA
ENDROOT
TORSDOF 0
ENDMDL
MODEL 6
REMARK VINA RESULT:      -6.2      1.357      1.480
REMARK  Name = 
REMARK  0 active torsions:
REMARK  status: ('A' for Active; 'I' for Inactive)
REMARK                            x       y       z     vdW  Elec       q    Type
REMARK                         _______ _______ _______ _____ _____    ______ ____
ROOT
ATOM      1  C   UNL     1      -0.055  13.366  19.314  0.00  0.00    +0.000 A 
ATOM      2  C   UNL     1      -0.513  13.228  20.601  0.00  0.00    +0.000 A 
ATOM      3  S   UNL     1      -0.143  11.662  21.174  0.00  0.00    +0.000 S 
ATOM      4  C   UNL     1       0.616  11.272  19.660  0.00  0.00    +0.000 A 
ATOM      5  N   UNL     1       1.140  10.046  19.366  0.00  0.00    +0.000 N 
ATOM      6  C   UNL     1       1.748   9.217  20.419  0.00  0.00    +0.000 C 
ATOM      7  C   UNL     1       1.807   7.738  19.976  0.00  0.00    +0.000 C 
ATOM      8  N   UNL     1       2.477   7.598  18.675  0.00  0.00    +0.000 N 
ATOM      9  C   UNL     1       3.576   6.791  18.448  0.00  0.00    +0.000 A 
ATOM     10  C   UNL     1       3.724   5.515  19.242  0.00  0.00    +0.000 A 
ATOM     11  C   UNL     1       4.787   4.730  19.044  0.00  0.00    +0.000 A 
ATOM     12  C   UNL     1       5.742   5.130  18.099  0.00  0.00    +0.000 A 
ATOM     13  N   UNL     1       6.879   4.623  17.677  0.00  0.00    +0.000 NA
ATOM     14  N   UNL     1       7.340   5.499  16.720  0.00  0.00    +0.000 NA
ATOM     15  N   UNL     1       6.505   6.519  16.554  0.00  0.00    +0.000 NA
ATOM     16  N   UNL     1       5.496   6.300  17.412  0.00  0.00    +0.000 N 
ATOM     17  N   UNL     1       4.446   7.148  17.537  0.00  0.00    +0.000 NA
ATOM     18  C   UNL     1       1.902   8.454  17.621  0.00  0.00    +0.000 C 
ATOM     19  C   UNL     1       1.834   9.927  18.063  0.00  0.00    +0.000 C 
ATOM     20  N   UNL     1       0.576  12.263  18.789  0.00  0.00    +0.000 NA
ENDROOT
TORSDOF 0
ENDMDL
MODEL 7
REMARK VINA RESULT:      -6.1      3.051      7.532
REMARK  Name = 
REMARK  0 active torsions:
REMARK  status: ('A' for Active; 'I' for Inactive)
REMARK                            x       y       z     vdW  Elec       q    Type
REMARK                         _______ _______ _______ _____ _____    ______ ____
ROOT
ATOM      1  C   UNL     1       3.311   2.487  17.601  0.00  0.00    +0.000 A 
ATOM      2  C   UNL     1       3.401   1.840  18.808  0.00  0.00    +0.000 A 
ATOM      3  S   UNL     1       3.069   2.942  20.071  0.00  0.00    +0.000 S 
ATOM      4  C   UNL     1       2.817   4.214  18.915  0.00  0.00    +0.000 A 
ATOM      5  N   UNL     1       2.542   5.507  19.256  0.00  0.00    +0.000 N 
ATOM      6  C   UNL     1       1.763   5.816  20.466  0.00  0.00    +0.000 C 
ATOM      7  C   UNL     1       2.002   7.278  20.904  0.00  0.00    +0.000 C 
ATOM      8  N   UNL     1       1.746   8.214  19.801  0.00  0.00    +0.000 N 
ATOM      9  C   UNL     1       0.857   9.270  19.866  0.00  0.00    +0.000 A 
ATOM     10  C   UNL     1       0.640   9.965  21.189  0.00  0.00    +0.000 A 
ATOM     11  C   UNL     1      -0.226  10.978  21.273  0.00  0.00    +0.000 A 
ATOM     12  C   UNL     1      -0.916  11.360  20.113  0.00  0.00    +0.000 A 
ATOM     13  N   UNL     1      -1.822  12.274  19.848  0.00  0.00    +0.000 NA
ATOM     14  N   UNL     1      -2.094  12.145  18.505  0.00  0.00    +0.000 NA
ATOM     15  N   UNL     1      -1.370  11.176  17.955  0.00  0.00    +0.000 NA
ATOM     16  N   UNL     1      -0.624  10.675  18.953  0.00  0.00    +0.000 N 
ATOM     17  N   UNL     1       0.243   9.649  18.773  0.00  0.00    +0.000 NA
ATOM     18  C   UNL     1       2.492   7.892  18.569  0.00  0.00    +0.000 C 
ATOM     19  C   UNL     1       2.261   6.434  18.135  0.00  0.00    +0.000 C 
ATOM     20  N   UNL     1       2.985   3.822  17.667  0.00  0.00    +0.000 NA
ENDROOT
TORSDOF 0
ENDMDL
MODEL 8
REMARK VINA RESULT:      -6.0      8.776     10.436
REMARK  Name = 
REMARK  0 active torsions:
REMARK  status: ('A' for Active; 'I' for Inactive)
REMARK                            x       y       z     vdW  Elec       q    Type
REMARK                         _______ _______ _______ _____ _____    ______ ____
ROOT
ATOM      1  C   UNL     1       8.398  14.568  19.091  0.00  0.00    +0.000 A 
ATOM      2  C   UNL     1       9.763  14.594  19.226  0.00  0.00    +0.000 A 
ATOM      3  S   UNL     1      10.185  14.202  20.835  0.00  0.00    +0.000 S 
ATOM      4  C   UNL     1       8.508  14.015  21.244  0.00  0.00    +0.000 A 
ATOM      5  N   UNL     1       8.060  13.728  22.502  0.00  0.00    +0.000 N 
ATOM      6  C   UNL     1       8.858  12.890  23.411  0.00  0.00    +0.000 C 
ATOM      7  C   UNL     1       8.421  13.113  24.876  0.00  0.00    +0.000 C 
ATOM      8  N   UNL     1       6.973  12.917  25.035  0.00  0.00    +0.000 N 
ATOM      9  C   UNL     1       6.401  12.030  25.928  0.00  0.00    +0.000 A 
ATOM     10  C   UNL     1       7.104  11.749  27.234  0.00  0.00    +0.000 A 
ATOM     11  C   UNL     1       6.572  10.884  28.102  0.00  0.00    +0.000 A 
ATOM     12  C   UNL     1       5.366  10.256  27.759  0.00  0.00    +0.000 A 
ATOM     13  N   UNL     1       4.597   9.369  28.350  0.00  0.00    +0.000 NA
ATOM     14  N   UNL     1       3.541   9.165  27.490  0.00  0.00    +0.000 NA
ATOM     15  N   UNL     1       3.656   9.912  26.397  0.00  0.00    +0.000 NA
ATOM     16  N   UNL     1       4.796  10.604  26.553  0.00  0.00    +0.000 N 
ATOM     17  N   UNL     1       5.255  11.474  25.621  0.00  0.00    +0.000 NA
ATOM     18  C   UNL     1       6.163  13.723  24.103  0.00  0.00    +0.000 C 
ATOM     19  C   UNL     1       6.602  13.509  22.644  0.00  0.00    +0.000 C 
ATOM     20  N   UNL     1       7.696  14.245  20.229  0.00  0.00    +0.000 NA
ENDROOT
TORSDOF 0
ENDMDL
MODEL 9
REMARK VINA RESULT:      -5.9      2.883      7.804
REMARK  Name = 
REMARK  0 active torsions:
REMARK  status: ('A' for Active; 'I' for Inactive)
REMARK                            x       y       z     vdW  Elec       q    Type
REMARK                         _______ _______ _______ _____ _____    ______ ____
ROOT
ATOM      1  C   UNL     1       4.853   4.665  17.171  0.00  0.00    +0.000 A 
ATOM      2  C   UNL     1       5.097   4.124  18.409  0.00  0.00    +0.000 A 
ATOM      3  S   UNL     1       4.310   5.056  19.604  0.00  0.00    +0.000 S 
ATOM      4  C   UNL     1       3.685   6.122  18.383  0.00  0.00    +0.000 A 
ATOM      5  N   UNL     1       2.938   7.233  18.653  0.00  0.00    +0.000 N 
ATOM      6  C   UNL     1       2.028   7.263  19.809  0.00  0.00    +0.000 C 
ATOM      7  C   UNL     1       1.693   8.721  20.194  0.00  0.00    +0.000 C 
ATOM      8  N   UNL     1       1.183   9.474  19.040  0.00  0.00    +0.000 N 
ATOM      9  C   UNL     1      -0.032  10.133  19.015  0.00  0.00    +0.000 A 
ATOM     10  C   UNL     1      -0.568  10.731  20.295  0.00  0.00    +0.000 A 
ATOM     11  C   UNL     1      -1.746  11.360  20.291  0.00  0.00    +0.000 A 
ATOM     12  C   UNL     1      -2.455  11.437  19.084  0.00  0.00    +0.000 A 
ATOM     13  N   UNL     1      -3.613  11.951  18.735  0.00  0.00    +0.000 NA
ATOM     14  N   UNL     1      -3.736  11.701  17.386  0.00  0.00    +0.000 NA
ATOM     15  N   UNL     1      -2.677  11.051  16.916  0.00  0.00    +0.000 NA
ATOM     16  N   UNL     1      -1.863  10.880  17.970  0.00  0.00    +0.000 N 
ATOM     17  N   UNL     1      -0.674  10.237  17.878  0.00  0.00    +0.000 NA
ATOM     18  C   UNL     1       2.068   9.418  17.861  0.00  0.00    +0.000 C 
ATOM     19  C   UNL     1       2.410   7.967  17.481  0.00  0.00    +0.000 C 
ATOM     20  N   UNL     1       4.061   5.790  17.162  0.00  0.00    +0.000 NA
ENDROOT
TORSDOF 0
ENDMDL
