MODEL 1
REMARK VINA RESULT:      -7.8      0.000      0.000
REMARK  Name = 
REMARK  8 active torsions:
REMARK  status: ('A' for Active; 'I' for Inactive)
REMARK    1  A    between atoms: C_1  and  C_2
REMARK    2  A    between atoms: C_7  and  C_8
REMARK    3  A    between atoms: C_9  and  C_10
REMARK    4  A    between atoms: C_9  and  C_11
REMARK    5  A    between atoms: C_11  and  C_12
REMARK    6  A    between atoms: C_13  and  O_14
REMARK    7  A    between atoms: C_18  and  N_19
REMARK    8  A    between atoms: C_24  and  C_25
REMARK                            x       y       z     vdW  Elec       q    Type
REMARK                         _______ _______ _______ _____ _____    ______ ____
ROOT
ATOM      1  C   UNL     1       1.296   5.583  20.629  0.00  0.00    +0.000 C 
ATOM      2  C   UNL     1       1.154   4.093  20.460  0.00  0.00    +0.000 C 
ATOM      3  C   UNL     1       1.457   3.378  21.593  0.00  0.00    +0.000 C 
ATOM      4  C   UNL     1       2.939   3.096  21.850  0.00  0.00    +0.000 C 
ATOM      5  C   UNL     1       3.476   2.337  20.636  0.00  0.00    +0.000 C 
ATOM      6  C   UNL     1       3.016   3.084  19.372  0.00  0.00    +0.000 C 
ATOM      7  C   UNL     1       3.823   2.740  18.154  0.00  0.00    +0.000 C 
ATOM      8  C   UNL     1       3.299   1.355  17.647  0.00  0.00    +0.000 C 
ATOM      9  C   UNL     1       3.769   4.074  17.268  0.00  0.00    +0.000 C 
ATOM     10  C   UNL     1       3.432   5.521  17.902  0.00  0.00    +0.000 C 
ATOM     11  C   UNL     1       2.496   3.890  16.459  0.00  0.00    +0.000 C 
ATOM     12  C   UNL     1       1.263   3.909  17.503  0.00  0.00    +0.000 C 
ATOM     13  C   UNL     1       1.472   3.356  19.084  0.00  0.00    +0.000 C 
ATOM     14  C   UNL     1       0.327   2.298  19.091  0.00  0.00    +0.000 C 
ENDROOT
BRANCH   9  15
ATOM     15  C   UNL     1       5.199   4.518  16.852  0.00  0.00    +0.000 C 
BRANCH  15  16
ATOM     16  C   UNL     1       6.208   5.451  17.448  0.00  0.00    +0.000 C 
ATOM     17  C   UNL     1       6.506   6.620  16.917  0.00  0.00    +0.000 C 
ATOM     18  C   UNL     1       7.512   7.507  17.611  0.00  0.00    +0.000 C 
ATOM     19  O   UNL     1       7.777   8.605  17.128  0.00  0.00    +0.000 OA
ATOM     20  C   UNL     1       8.151   6.995  18.829  0.00  0.00    +0.000 C 
ATOM     21  C   UNL     1       7.873   5.805  19.361  0.00  0.00    +0.000 C 
ATOM     22  C   UNL     1       6.788   4.979  18.730  0.00  0.00    +0.000 C 
ATOM     23  O   UNL     1       6.417   3.968  19.313  0.00  0.00    +0.000 OA
BRANCH  21  24
ATOM     24  N   UNL     1       8.487   5.234  20.467  0.00  0.00    +0.000 N 
ATOM     25  H   UNL     1       8.686   5.884  21.219  0.00  0.00    +0.000 HD
ATOM     26  H   UNL     1       7.975   4.405  20.782  0.00  0.00    +0.000 HD
ENDBRANCH  21  24
BRANCH  17  27
ATOM     27  O   UNL     1       5.898   7.005  15.756  0.00  0.00    +0.000 OA
ATOM     28  H   UNL     1       4.941   6.913  15.868  0.00  0.00    +0.000 HD
ENDBRANCH  17  27
ENDBRANCH  15  16
ENDBRANCH   9  15
TORSDOF 4
ENDMDL
MODEL 2
REMARK VINA RESULT:      -7.7      3.865      5.520
REMARK  Name = 
REMARK  8 active torsions:
REMARK  status: ('A' for Active; 'I' for Inactive)
REMARK    1  A    between atoms: C_1  and  C_2
REMARK    2  A    between atoms: C_7  and  C_8
REMARK    3  A    between atoms: C_9  and  C_10
REMARK    4  A    between atoms: C_9  and  C_11
REMARK    5  A    between atoms: C_11  and  C_12
REMARK    6  A    between atoms: C_13  and  O_14
REMARK    7  A    between atoms: C_18  and  N_19
REMARK    8  A    between atoms: C_24  and  C_25
REMARK                            x       y       z     vdW  Elec       q    Type
REMARK                         _______ _______ _______ _____ _____    ______ ____
ROOT
ATOM      1  C   UNL     1       0.331   2.729  18.593  0.00  0.00    +0.000 C 
ATOM      2  C   UNL     1       1.695   2.317  19.083  0.00  0.00    +0.000 C 
ATOM      3  C   UNL     1       1.695   1.832  20.369  0.00  0.00    +0.000 C 
ATOM      4  C   UNL     1       1.727   2.870  21.493  0.00  0.00    +0.000 C 
ATOM      5  C   UNL     1       2.981   3.722  21.291  0.00  0.00    +0.000 C 
ATOM      6  C   UNL     1       3.030   4.147  19.813  0.00  0.00    +0.000 C 
ATOM      7  C   UNL     1       3.919   5.330  19.566  0.00  0.00    +0.000 C 
ATOM      8  C   UNL     1       5.390   4.791  19.563  0.00  0.00    +0.000 C 
ATOM      9  C   UNL     1       3.251   6.058  18.305  0.00  0.00    +0.000 C 
ATOM     10  C   UNL     1       1.705   5.832  17.895  0.00  0.00    +0.000 C 
ATOM     11  C   UNL     1       3.894   5.347  17.126  0.00  0.00    +0.000 C 
ATOM     12  C   UNL     1       3.392   3.811  17.167  0.00  0.00    +0.000 C 
ATOM     13  C   UNL     1       3.025   3.070  18.639  0.00  0.00    +0.000 C 
ATOM     14  C   UNL     1       3.979   1.844  18.501  0.00  0.00    +0.000 C 
ENDROOT
BRANCH   9  15
ATOM     15  C   UNL     1       3.020   7.567  18.597  0.00  0.00    +0.000 C 
BRANCH  15  16
ATOM     16  C   UNL     1       1.885   8.345  19.188  0.00  0.00    +0.000 C 
ATOM     17  C   UNL     1       1.418   8.124  20.400  0.00  0.00    +0.000 C 
ATOM     18  C   UNL     1       0.292   8.986  20.923  0.00  0.00    +0.000 C 
ATOM     19  O   UNL     1      -0.133   8.794  22.059  0.00  0.00    +0.000 OA
ATOM     20  C   UNL     1      -0.263  10.006  20.024  0.00  0.00    +0.000 C 
ATOM     21  C   UNL     1       0.189  10.222  18.789  0.00  0.00    +0.000 C 
ATOM     22  C   UNL     1       1.383   9.440  18.320  0.00  0.00    +0.000 C 
ATOM     23  O   UNL     1       1.901   9.755  17.256  0.00  0.00    +0.000 OA
BRANCH  21  24
ATOM     24  N   UNL     1      -0.332  11.119  17.867  0.00  0.00    +0.000 N 
ATOM     25  H   UNL     1       0.109  12.031  17.873  0.00  0.00    +0.000 HD
ATOM     26  H   UNL     1      -0.373  10.701  16.933  0.00  0.00    +0.000 HD
ENDBRANCH  21  24
BRANCH  17  27
ATOM     27  O   UNL     1       1.960   7.126  21.158  0.00  0.00    +0.000 OA
ATOM     28  H   UNL     1       1.519   7.123  22.020  0.00  0.00    +0.000 HD
ENDBRANCH  17  27
ENDBRANCH  15  16
ENDBRANCH   9  15
TORSDOF 4
ENDMDL
MODEL 3
REMARK VINA RESULT:      -7.3      1.108      2.147
REMARK  Name = 
REMARK  8 active torsions:
REMARK  status: ('A' for Active; 'I' for Inactive)
REMARK    1  A    between atoms: C_1  and  C_2
REMARK    2  A    between atoms: C_7  and  C_8
REMARK    3  A    between atoms: C_9  and  C_10
REMARK    4  A    between atoms: C_9  and  C_11
REMARK    5  A    between atoms: C_11  and  C_12
REMARK    6  A    between atoms: C_13  and  O_14
REMARK    7  A    between atoms: C_18  and  N_19
REMARK    8  A    between atoms: C_24  and  C_25
REMARK                            x       y       z     vdW  Elec       q    Type
REMARK                         _______ _______ _______ _____ _____    ______ ____
ROOT
ATOM      1  C   UNL     1       1.134   5.397  20.709  0.00  0.00    +0.000 C 
ATOM      2  C   UNL     1       1.055   3.914  20.452  0.00  0.00    +0.000 C 
ATOM      3  C   UNL     1       1.357   3.147  21.551  0.00  0.00    +0.000 C 
ATOM      4  C   UNL     1       2.842   2.906  21.831  0.00  0.00    +0.000 C 
ATOM      5  C   UNL     1       3.438   2.239  20.590  0.00  0.00    +0.000 C 
ATOM      6  C   UNL     1       2.980   3.040  19.359  0.00  0.00    +0.000 C 
ATOM      7  C   UNL     1       3.829   2.797  18.146  0.00  0.00    +0.000 C 
ATOM      8  C   UNL     1       3.372   1.425  17.547  0.00  0.00    +0.000 C 
ATOM      9  C   UNL     1       3.746   4.177  17.336  0.00  0.00    +0.000 C 
ATOM     10  C   UNL     1       3.337   5.571  18.041  0.00  0.00    +0.000 C 
ATOM     11  C   UNL     1       2.501   3.992  16.484  0.00  0.00    +0.000 C 
ATOM     12  C   UNL     1       1.243   3.905  17.494  0.00  0.00    +0.000 C 
ATOM     13  C   UNL     1       1.434   3.270  19.046  0.00  0.00    +0.000 C 
ATOM     14  C   UNL     1       0.332   2.171  18.963  0.00  0.00    +0.000 C 
ENDROOT
BRANCH   9  15
ATOM     15  C   UNL     1       5.167   4.698  16.984  0.00  0.00    +0.000 C 
BRANCH  15  16
ATOM     16  C   UNL     1       6.229   5.414  17.760  0.00  0.00    +0.000 C 
ATOM     17  C   UNL     1       6.758   4.931  18.866  0.00  0.00    +0.000 C 
ATOM     18  C   UNL     1       7.850   5.711  19.560  0.00  0.00    +0.000 C 
ATOM     19  O   UNL     1       8.357   5.254  20.581  0.00  0.00    +0.000 OA
ATOM     20  C   UNL     1       8.236   7.006  18.987  0.00  0.00    +0.000 C 
ATOM     21  C   UNL     1       7.691   7.513  17.880  0.00  0.00    +0.000 C 
ATOM     22  C   UNL     1       6.689   6.679  17.134  0.00  0.00    +0.000 C 
ATOM     23  O   UNL     1       6.316   7.067  16.034  0.00  0.00    +0.000 OA
BRANCH  21  24
ATOM     24  N   UNL     1       7.960   8.756  17.326  0.00  0.00    +0.000 N 
ATOM     25  H   UNL     1       8.480   9.382  17.931  0.00  0.00    +0.000 HD
ATOM     26  H   UNL     1       8.380   8.659  16.397  0.00  0.00    +0.000 HD
ENDBRANCH  21  24
BRANCH  17  27
ATOM     27  O   UNL     1       6.312   3.738  19.359  0.00  0.00    +0.000 OA
ATOM     28  H   UNL     1       6.401   3.069  18.665  0.00  0.00    +0.000 HD
ENDBRANCH  17  27
ENDBRANCH  15  16
ENDBRANCH   9  15
TORSDOF 4
ENDMDL
MODEL 4
REMARK VINA RESULT:      -7.0      3.661      5.153
REMARK  Name = 
REMARK  8 active torsions:
REMARK  status: ('A' for Active; 'I' for Inactive)
REMARK    1  A    between atoms: C_1  and  C_2
REMARK    2  A    between atoms: C_7  and  C_8
REMARK    3  A    between atoms: C_9  and  C_10
REMARK    4  A    between atoms: C_9  and  C_11
REMARK    5  A    between atoms: C_11  and  C_12
REMARK    6  A    between atoms: C_13  and  O_14
REMARK    7  A    between atoms: C_18  and  N_19
REMARK    8  A    between atoms: C_24  and  C_25
REMARK                            x       y       z     vdW  Elec       q    Type
REMARK                         _______ _______ _______ _____ _____    ______ ____
ROOT
ATOM      1  C   UNL     1       0.314   2.899  18.589  0.00  0.00    +0.000 C 
ATOM      2  C   UNL     1       1.676   2.462  19.063  0.00  0.00    +0.000 C 
ATOM      3  C   UNL     1       1.679   1.951  20.338  0.00  0.00    +0.000 C 
ATOM      4  C   UNL     1       1.730   2.965  21.483  0.00  0.00    +0.000 C 
ATOM      5  C   UNL     1       2.991   3.808  21.290  0.00  0.00    +0.000 C 
ATOM      6  C   UNL     1       3.036   4.263  19.821  0.00  0.00    +0.000 C 
ATOM      7  C   UNL     1       3.936   5.441  19.593  0.00  0.00    +0.000 C 
ATOM      8  C   UNL     1       5.400   4.887  19.569  0.00  0.00    +0.000 C 
ATOM      9  C   UNL     1       3.267   6.202  18.351  0.00  0.00    +0.000 C 
ATOM     10  C   UNL     1       1.717   6.000  17.947  0.00  0.00    +0.000 C 
ATOM     11  C   UNL     1       3.895   5.508  17.154  0.00  0.00    +0.000 C 
ATOM     12  C   UNL     1       3.377   3.977  17.167  0.00  0.00    +0.000 C 
ATOM     13  C   UNL     1       3.012   3.210  18.625  0.00  0.00    +0.000 C 
ATOM     14  C   UNL     1       3.951   1.977  18.456  0.00  0.00    +0.000 C 
ENDROOT
BRANCH   9  15
ATOM     15  C   UNL     1       3.055   7.706  18.676  0.00  0.00    +0.000 C 
BRANCH  15  16
ATOM     16  C   UNL     1       1.869   8.516  19.101  0.00  0.00    +0.000 C 
ATOM     17  C   UNL     1       1.288   9.404  18.318  0.00  0.00    +0.000 C 
ATOM     18  C   UNL     1       0.074  10.147  18.824  0.00  0.00    +0.000 C 
ATOM     19  O   UNL     1      -0.479  10.961  18.090  0.00  0.00    +0.000 OA
ATOM     20  C   UNL     1      -0.372   9.876  20.196  0.00  0.00    +0.000 C 
ATOM     21  C   UNL     1       0.223   8.997  21.003  0.00  0.00    +0.000 C 
ATOM     22  C   UNL     1       1.357   8.179  20.453  0.00  0.00    +0.000 C 
ATOM     23  O   UNL     1       1.790   7.259  21.133  0.00  0.00    +0.000 OA
BRANCH  21  24
ATOM     24  N   UNL     1      -0.104   8.744  22.327  0.00  0.00    +0.000 N 
ATOM     25  H   UNL     1       0.038   9.530  22.953  0.00  0.00    +0.000 HD
ATOM     26  H   UNL     1      -1.042   8.340  22.402  0.00  0.00    +0.000 HD
ENDBRANCH  21  24
BRANCH  17  27
ATOM     27  O   UNL     1       1.791   9.629  17.069  0.00  0.00    +0.000 OA
ATOM     28  H   UNL     1       1.173  10.199  16.589  0.00  0.00    +0.000 HD
ENDBRANCH  17  27
ENDBRANCH  15  16
ENDBRANCH   9  15
TORSDOF 4
ENDMDL
MODEL 5
REMARK VINA RESULT:      -6.7     11.757     14.331
REMARK  Name = 
REMARK  8 active torsions:
REMARK  status: ('A' for Active; 'I' for Inactive)
REMARK    1  A    between atoms: C_1  and  C_2
REMARK    2  A    between atoms: C_7  and  C_8
REMARK    3  A    between atoms: C_9  and  C_10
REMARK    4  A    between atoms: C_9  and  C_11
REMARK    5  A    between atoms: C_11  and  C_12
REMARK    6  A    between atoms: C_13  and  O_14
REMARK    7  A    between atoms: C_18  and  N_19
REMARK    8  A    between atoms: C_24  and  C_25
REMARK                            x       y       z     vdW  Elec       q    Type
REMARK                         _______ _______ _______ _____ _____    ______ ____
ROOT
ATOM      1  C   UNL     1      -1.879  15.898  21.979  0.00  0.00    +0.000 C 
ATOM      2  C   UNL     1      -1.937  15.031  23.211  0.00  0.00    +0.000 C 
ATOM      3  C   UNL     1      -0.994  14.032  23.226  0.00  0.00    +0.000 C 
ATOM      4  C   UNL     1      -1.332  12.758  22.450  0.00  0.00    +0.000 C 
ATOM      5  C   UNL     1      -2.638  12.207  23.023  0.00  0.00    +0.000 C 
ATOM      6  C   UNL     1      -3.640  13.371  23.119  0.00  0.00    +0.000 C 
ATOM      7  C   UNL     1      -5.066  12.917  23.223  0.00  0.00    +0.000 C 
ATOM      8  C   UNL     1      -5.288  12.475  24.708  0.00  0.00    +0.000 C 
ATOM      9  C   UNL     1      -5.898  14.097  22.528  0.00  0.00    +0.000 C 
ATOM     10  C   UNL     1      -5.223  15.136  21.491  0.00  0.00    +0.000 C 
ATOM     11  C   UNL     1      -6.136  15.063  23.677  0.00  0.00    +0.000 C 
ATOM     12  C   UNL     1      -4.692  15.636  24.122  0.00  0.00    +0.000 C 
ATOM     13  C   UNL     1      -3.305  14.689  23.949  0.00  0.00    +0.000 C 
ATOM     14  C   UNL     1      -2.819  14.753  25.429  0.00  0.00    +0.000 C 
ENDROOT
BRANCH   9  15
ATOM     15  C   UNL     1      -6.854  13.533  21.441  0.00  0.00    +0.000 C 
BRANCH  15  16
ATOM     16  C   UNL     1      -6.880  12.268  20.640  0.00  0.00    +0.000 C 
ATOM     17  C   UNL     1      -7.357  11.132  21.108  0.00  0.00    +0.000 C 
ATOM     18  C   UNL     1      -7.373   9.917  20.211  0.00  0.00    +0.000 C 
ATOM     19  O   UNL     1      -7.834   8.862  20.638  0.00  0.00    +0.000 OA
ATOM     20  C   UNL     1      -6.804  10.052  18.864  0.00  0.00    +0.000 C 
ATOM     21  C   UNL     1      -6.299  11.192  18.390  0.00  0.00    +0.000 C 
ATOM     22  C   UNL     1      -6.393  12.422  19.246  0.00  0.00    +0.000 C 
ATOM     23  O   UNL     1      -6.085  13.498  18.749  0.00  0.00    +0.000 OA
BRANCH  21  24
ATOM     24  N   UNL     1      -5.687  11.370  17.158  0.00  0.00    +0.000 N 
ATOM     25  H   UNL     1      -4.716  11.657  17.209  0.00  0.00    +0.000 HD
ATOM     26  H   UNL     1      -5.830  10.553  16.557  0.00  0.00    +0.000 HD
ENDBRANCH  21  24
BRANCH  17  27
ATOM     27  O   UNL     1      -7.829  11.078  22.388  0.00  0.00    +0.000 OA
ATOM     28  H   UNL     1      -8.776  11.277  22.373  0.00  0.00    +0.000 HD
ENDBRANCH  17  27
ENDBRANCH  15  16
ENDBRANCH   9  15
TORSDOF 4
ENDMDL
MODEL 6
REMARK VINA RESULT:      -6.7      4.322      5.959
REMARK  Name = 
REMARK  8 active torsions:
REMARK  status: ('A' for Active; 'I' for Inactive)
REMARK    1  A    between atoms: C_1  and  C_2
REMARK    2  A    between atoms: C_7  and  C_8
REMARK    3  A    between atoms: C_9  and  C_10
REMARK    4  A    between atoms: C_9  and  C_11
REMARK    5  A    between atoms: C_11  and  C_12
REMARK    6  A    between atoms: C_13  and  O_14
REMARK    7  A    between atoms: C_18  and  N_19
REMARK    8  A    between atoms: C_24  and  C_25
REMARK                            x       y       z     vdW  Elec       q    Type
REMARK                         _______ _______ _______ _____ _____    ______ ____
ROOT
ATOM      1  C   UNL     1       1.760   2.337  20.530  0.00  0.00    +0.000 C 
ATOM      2  C   UNL     1       2.678   2.346  19.336  0.00  0.00    +0.000 C 
ATOM      3  C   UNL     1       3.911   1.793  19.584  0.00  0.00    +0.000 C 
ATOM      4  C   UNL     1       4.948   2.702  20.249  0.00  0.00    +0.000 C 
ATOM      5  C   UNL     1       5.132   3.921  19.344  0.00  0.00    +0.000 C 
ATOM      6  C   UNL     1       3.735   4.447  18.971  0.00  0.00    +0.000 C 
ATOM      7  C   UNL     1       3.747   5.867  18.486  0.00  0.00    +0.000 C 
ATOM      8  C   UNL     1       4.237   5.826  16.999  0.00  0.00    +0.000 C 
ATOM      9  C   UNL     1       2.313   6.434  18.920  0.00  0.00    +0.000 C 
ATOM     10  C   UNL     1       1.435   5.758  20.094  0.00  0.00    +0.000 C 
ATOM     11  C   UNL     1       1.431   6.054  17.743  0.00  0.00    +0.000 C 
ATOM     12  C   UNL     1       1.361   4.440  17.704  0.00  0.00    +0.000 C 
ATOM     13  C   UNL     1       2.661   3.514  18.254  0.00  0.00    +0.000 C 
ATOM     14  C   UNL     1       2.882   2.670  16.963  0.00  0.00    +0.000 C 
ENDROOT
BRANCH   9  15
ATOM     15  C   UNL     1       2.462   7.765  19.709  0.00  0.00    +0.000 C 
BRANCH  15  16
ATOM     16  C   UNL     1       1.512   8.865  20.072  0.00  0.00    +0.000 C 
ATOM     17  C   UNL     1       1.218   9.176  21.319  0.00  0.00    +0.000 C 
ATOM     18  C   UNL     1       0.276  10.325  21.587  0.00  0.00    +0.000 C 
ATOM     19  O   UNL     1       0.015  10.629  22.748  0.00  0.00    +0.000 OA
ATOM     20  C   UNL     1      -0.310  11.014  20.430  0.00  0.00    +0.000 C 
ATOM     21  C   UNL     1      -0.036  10.692  19.166  0.00  0.00    +0.000 C 
ATOM     22  C   UNL     1       0.990   9.625  18.909  0.00  0.00    +0.000 C 
ATOM     23  O   UNL     1       1.365   9.447  17.758  0.00  0.00    +0.000 OA
BRANCH  21  24
ATOM     24  N   UNL     1      -0.605  11.254  18.032  0.00  0.00    +0.000 N 
ATOM     25  H   UNL     1      -1.275  10.658  17.559  0.00  0.00    +0.000 HD
ATOM     26  H   UNL     1      -0.974  12.188  18.233  0.00  0.00    +0.000 HD
ENDBRANCH  21  24
BRANCH  17  27
ATOM     27  O   UNL     1       1.773   8.457  22.340  0.00  0.00    +0.000 OA
ATOM     28  H   UNL     1       1.851   9.035  23.112  0.00  0.00    +0.000 HD
ENDBRANCH  17  27
ENDBRANCH  15  16
ENDBRANCH   9  15
TORSDOF 4
ENDMDL
MODEL 7
REMARK VINA RESULT:      -6.4      9.263     12.018
REMARK  Name = 
REMARK  8 active torsions:
REMARK  status: ('A' for Active; 'I' for Inactive)
REMARK    1  A    between atoms: C_1  and  C_2
REMARK    2  A    between atoms: C_7  and  C_8
REMARK    3  A    between atoms: C_9  and  C_10
REMARK    4  A    between atoms: C_9  and  C_11
REMARK    5  A    between atoms: C_11  and  C_12
REMARK    6  A    between atoms: C_13  and  O_14
REMARK    7  A    between atoms: C_18  and  N_19
REMARK    8  A    between atoms: C_24  and  C_25
REMARK                            x       y       z     vdW  Elec       q    Type
REMARK                         _______ _______ _______ _____ _____    ______ ____
ROOT
ATOM      1  C   UNL     1      10.982  13.512  16.389  0.00  0.00    +0.000 C 
ATOM      2  C   UNL     1      11.289  12.903  17.733  0.00  0.00    +0.000 C 
ATOM      3  C   UNL     1      11.076  11.547  17.785  0.00  0.00    +0.000 C 
ATOM      4  C   UNL     1       9.637  11.088  18.030  0.00  0.00    +0.000 C 
ATOM      5  C   UNL     1       9.179  11.707  19.352  0.00  0.00    +0.000 C 
ATOM      6  C   UNL     1       9.545  13.201  19.326  0.00  0.00    +0.000 C 
ATOM      7  C   UNL     1       8.773  14.017  20.320  0.00  0.00    +0.000 C 
ATOM      8  C   UNL     1       9.445  13.776  21.714  0.00  0.00    +0.000 C 
ATOM      9  C   UNL     1       8.670  15.462  19.636  0.00  0.00    +0.000 C 
ATOM     10  C   UNL     1       8.849  15.681  18.046  0.00  0.00    +0.000 C 
ATOM     11  C   UNL     1       9.950  16.142  20.093  0.00  0.00    +0.000 C 
ATOM     12  C   UNL     1      11.181  15.336  19.424  0.00  0.00    +0.000 C 
ATOM     13  C   UNL     1      11.046  13.684  19.099  0.00  0.00    +0.000 C 
ATOM     14  C   UNL     1      12.302  13.210  19.891  0.00  0.00    +0.000 C 
ENDROOT
BRANCH   9  15
ATOM     15  C   UNL     1       7.197  15.955  19.605  0.00  0.00    +0.000 C 
BRANCH  15  16
ATOM     16  C   UNL     1       5.887  15.324  19.961  0.00  0.00    +0.000 C 
ATOM     17  C   UNL     1       5.467  15.196  21.204  0.00  0.00    +0.000 C 
ATOM     18  C   UNL     1       4.113  14.577  21.461  0.00  0.00    +0.000 C 
ATOM     19  O   UNL     1       3.711  14.473  22.617  0.00  0.00    +0.000 OA
ATOM     20  C   UNL     1       3.346  14.099  20.304  0.00  0.00    +0.000 C 
ATOM     21  C   UNL     1       3.773  14.205  19.045  0.00  0.00    +0.000 C 
ATOM     22  C   UNL     1       5.066  14.925  18.790  0.00  0.00    +0.000 C 
ATOM     23  O   UNL     1       5.374  15.170  17.630  0.00  0.00    +0.000 OA
BRANCH  21  24
ATOM     24  N   UNL     1       3.133  13.715  17.916  0.00  0.00    +0.000 N 
ATOM     25  H   UNL     1       2.905  14.420  17.223  0.00  0.00    +0.000 HD
ATOM     26  H   UNL     1       3.643  12.919  17.522  0.00  0.00    +0.000 HD
ENDBRANCH  21  24
BRANCH  17  27
ATOM     27  O   UNL     1       6.259  15.626  22.229  0.00  0.00    +0.000 OA
ATOM     28  H   UNL     1       6.935  16.216  21.865  0.00  0.00    +0.000 HD
ENDBRANCH  17  27
ENDBRANCH  15  16
ENDBRANCH   9  15
TORSDOF 4
ENDMDL
MODEL 8
REMARK VINA RESULT:      -6.4      8.989     11.898
REMARK  Name = 
REMARK  8 active torsions:
REMARK  status: ('A' for Active; 'I' for Inactive)
REMARK    1  A    between atoms: C_1  and  C_2
REMARK    2  A    between atoms: C_7  and  C_8
REMARK    3  A    between atoms: C_9  and  C_10
REMARK    4  A    between atoms: C_9  and  C_11
REMARK    5  A    between atoms: C_11  and  C_12
REMARK    6  A    between atoms: C_13  and  O_14
REMARK    7  A    between atoms: C_18  and  N_19
REMARK    8  A    between atoms: C_24  and  C_25
REMARK                            x       y       z     vdW  Elec       q    Type
REMARK                         _______ _______ _______ _____ _____    ______ ____
ROOT
ATOM      1  C   UNL     1       9.174  11.053  18.215  0.00  0.00    +0.000 C 
ATOM      2  C   UNL     1      10.112  12.214  18.011  0.00  0.00    +0.000 C 
ATOM      3  C   UNL     1      11.422  11.840  17.833  0.00  0.00    +0.000 C 
ATOM      4  C   UNL     1      12.232  11.553  19.099  0.00  0.00    +0.000 C 
ATOM      5  C   UNL     1      12.197  12.816  19.960  0.00  0.00    +0.000 C 
ATOM      6  C   UNL     1      10.736  13.293  20.040  0.00  0.00    +0.000 C 
ATOM      7  C   UNL     1      10.478  14.222  21.189  0.00  0.00    +0.000 C 
ATOM      8  C   UNL     1      11.017  15.627  20.757  0.00  0.00    +0.000 C 
ATOM      9  C   UNL     1       8.945  13.950  21.568  0.00  0.00    +0.000 C 
ATOM     10  C   UNL     1       8.182  12.587  21.158  0.00  0.00    +0.000 C 
ATOM     11  C   UNL     1       8.198  14.902  20.649  0.00  0.00    +0.000 C 
ATOM     12  C   UNL     1       8.457  14.401  19.135  0.00  0.00    +0.000 C 
ATOM     13  C   UNL     1       9.897  13.621  18.726  0.00  0.00    +0.000 C 
ATOM     14  C   UNL     1      10.327  14.566  17.563  0.00  0.00    +0.000 C 
ENDROOT
BRANCH   9  15
ATOM     15  C   UNL     1       8.796  13.653  23.086  0.00  0.00    +0.000 C 
BRANCH  15  16
ATOM     16  C   UNL     1       7.622  13.550  24.010  0.00  0.00    +0.000 C 
ATOM     17  C   UNL     1       6.854  14.578  24.311  0.00  0.00    +0.000 C 
ATOM     18  C   UNL     1       5.670  14.367  25.226  0.00  0.00    +0.000 C 
ATOM     19  O   UNL     1       4.942  15.319  25.493  0.00  0.00    +0.000 OA
ATOM     20  C   UNL     1       5.463  13.023  25.780  0.00  0.00    +0.000 C 
ATOM     21  C   UNL     1       6.248  11.983  25.498  0.00  0.00    +0.000 C 
ATOM     22  C   UNL     1       7.352  12.174  24.498  0.00  0.00    +0.000 C 
ATOM     23  O   UNL     1       7.964  11.186  24.114  0.00  0.00    +0.000 OA
BRANCH  21  24
ATOM     24  N   UNL     1       6.150  10.708  26.038  0.00  0.00    +0.000 N 
ATOM     25  H   UNL     1       6.858  10.059  25.714  0.00  0.00    +0.000 HD
ATOM     26  H   UNL     1       6.082  10.748  27.059  0.00  0.00    +0.000 HD
ENDBRANCH  21  24
BRANCH  17  27
ATOM     27  O   UNL     1       7.139  15.807  23.789  0.00  0.00    +0.000 OA
ATOM     28  H   UNL     1       6.382  16.388  23.945  0.00  0.00    +0.000 HD
ENDBRANCH  17  27
ENDBRANCH  15  16
ENDBRANCH   9  15
TORSDOF 4
ENDMDL
MODEL 9
REMARK VINA RESULT:      -6.4      9.522     11.872
REMARK  Name = 
REMARK  8 active torsions:
REMARK  status: ('A' for Active; 'I' for Inactive)
REMARK    1  A    between atoms: C_1  and  C_2
REMARK    2  A    between atoms: C_7  and  C_8
REMARK    3  A    between atoms: C_9  and  C_10
REMARK    4  A    between atoms: C_9  and  C_11
REMARK    5  A    between atoms: C_11  and  C_12
REMARK    6  A    between atoms: C_13  and  O_14
REMARK    7  A    between atoms: C_18  and  N_19
REMARK    8  A    between atoms: C_24  and  C_25
REMARK                            x       y       z     vdW  Elec       q    Type
REMARK                         _______ _______ _______ _____ _____    ______ ____
ROOT
ATOM      1  C   UNL     1      10.352  11.562  18.105  0.00  0.00    +0.000 C 
ATOM      2  C   UNL     1      10.605  12.488  19.267  0.00  0.00    +0.000 C 
ATOM      3  C   UNL     1      10.629  11.851  20.484  0.00  0.00    +0.000 C 
ATOM      4  C   UNL     1       9.274  11.578  21.141  0.00  0.00    +0.000 C 
ATOM      5  C   UNL     1       8.568  12.924  21.308  0.00  0.00    +0.000 C 
ATOM      6  C   UNL     1       8.666  13.677  19.969  0.00  0.00    +0.000 C 
ATOM      7  C   UNL     1       7.655  14.777  19.833  0.00  0.00    +0.000 C 
ATOM      8  C   UNL     1       8.196  15.987  20.667  0.00  0.00    +0.000 C 
ATOM      9  C   UNL     1       7.379  14.853  18.257  0.00  0.00    +0.000 C 
ATOM     10  C   UNL     1       7.696  13.621  17.263  0.00  0.00    +0.000 C 
ATOM     11  C   UNL     1       8.459  15.806  17.772  0.00  0.00    +0.000 C 
ATOM     12  C   UNL     1       9.880  15.076  18.017  0.00  0.00    +0.000 C 
ATOM     13  C   UNL     1      10.075  13.989  19.294  0.00  0.00    +0.000 C 
ATOM     14  C   UNL     1      11.296  14.679  19.974  0.00  0.00    +0.000 C 
ENDROOT
BRANCH   9  15
ATOM     15  C   UNL     1       5.855  14.787  17.959  0.00  0.00    +0.000 C 
BRANCH  15  16
ATOM     16  C   UNL     1       4.642  15.341  18.640  0.00  0.00    +0.000 C 
ATOM     17  C   UNL     1       4.544  16.600  19.017  0.00  0.00    +0.000 C 
ATOM     18  C   UNL     1       3.264  17.074  19.666  0.00  0.00    +0.000 C 
ATOM     19  O   UNL     1       3.163  18.251  20.001  0.00  0.00    +0.000 OA
ATOM     20  C   UNL     1       2.202  16.086  19.890  0.00  0.00    +0.000 C 
ATOM     21  C   UNL     1       2.302  14.805  19.532  0.00  0.00    +0.000 C 
ATOM     22  C   UNL     1       3.530  14.368  18.785  0.00  0.00    +0.000 C 
ATOM     23  O   UNL     1       3.548  13.240  18.310  0.00  0.00    +0.000 OA
BRANCH  21  24
ATOM     24  N   UNL     1       1.369  13.808  19.776  0.00  0.00    +0.000 N 
ATOM     25  H   UNL     1       1.718  13.029  20.323  0.00  0.00    +0.000 HD
ATOM     26  H   UNL     1       0.502  14.203  20.153  0.00  0.00    +0.000 HD
ENDBRANCH  21  24
BRANCH  17  27
ATOM     27  O   UNL     1       5.594  17.448  18.811  0.00  0.00    +0.000 OA
ATOM     28  H   UNL     1       6.405  16.922  18.762  0.00  0.00    +0.000 HD
ENDBRANCH  17  27
ENDBRANCH  15  16
ENDBRANCH   9  15
TORSDOF 4
ENDMDL
