MODEL 1
REMARK VINA RESULT:      -8.0      0.000      0.000
REMARK  Name = 
REMARK  10 active torsions:
REMARK  status: ('A' for Active; 'I' for Inactive)
REMARK    1  A    between atoms: C_1  and  C_2
REMARK    2  A    between atoms: N_4  and  C_5
REMARK    3  A    between atoms: C_6  and  C_7
REMARK    4  A    between atoms: C_8  and  C_9
REMARK    5  A    between atoms: C_9  and  N_10
REMARK    6  A    between atoms: N_10  and  C_11
REMARK    7  A    between atoms: C_11  and  C_12
REMARK    8  A    between atoms: N_21  and  C_22
REMARK    9  A    between atoms: C_22  and  C_23
REMARK   10  A    between atoms: C_23  and  N_24
REMARK                            x       y       z     vdW  Elec       q    Type
REMARK                         _______ _______ _______ _____ _____    ______ ____
ROOT
ATOM      1  C   UNL     1       1.864   7.820  19.723  0.00  0.00    +0.000 A 
ATOM      2  C   UNL     1       1.290   7.860  20.935  0.00  0.00    +0.000 A 
ATOM      3  C   UNL     1       0.593   9.041  21.419  0.00  0.00    +0.000 A 
ATOM      4  C   UNL     1       0.055   9.034  22.715  0.00  0.00    +0.000 A 
ATOM      5  C   UNL     1      -0.588  10.164  23.209  0.00  0.00    +0.000 A 
ATOM      6  C   UNL     1      -0.692  11.289  22.405  0.00  0.00    +0.000 A 
ATOM      7  F   UNL     1      -1.305  12.381  22.878  0.00  0.00    +0.000 F 
ATOM      8  C   UNL     1      -0.164  11.306  21.113  0.00  0.00    +0.000 A 
ATOM      9  C   UNL     1       0.488  10.178  20.600  0.00  0.00    +0.000 A 
ATOM     10  N   UNL     1       1.051  10.135  19.284  0.00  0.00    +0.000 N 
ATOM     11  C   UNL     1       1.732   9.008  18.808  0.00  0.00    +0.000 A 
ATOM     12  O   UNL     1       2.234   8.957  17.685  0.00  0.00    +0.000 OA
ENDROOT
BRANCH   1  13
ATOM     13  C   UNL     1       2.656   6.638  19.189  0.00  0.00    +0.000 C 
BRANCH  13  14
ATOM     14  N   UNL     1       2.145   6.106  17.918  0.00  0.00    +0.000 NA
ATOM     15  H   UNL     1       1.139   6.234  17.861  0.00  0.00    +0.000 HD
BRANCH  14  16
ATOM     16  C   UNL     1       2.410   4.677  17.743  0.00  0.00    +0.000 C 
BRANCH  16  24
ATOM     17  C   UNL     1       3.758   2.900  20.196  0.00  0.00    +0.000 C 
ATOM     18  C   UNL     1       4.431   3.683  19.125  0.00  0.00    +0.000 A 
ATOM     19  N   UNL     1       5.768   3.718  19.101  0.00  0.00    +0.000 NA
ATOM     20  N   UNL     1       6.062   4.490  18.045  0.00  0.00    +0.000 N 
ATOM     21  C   UNL     1       7.448   4.751  17.735  0.00  0.00    +0.000 C 
ATOM     22  C   UNL     1       4.956   4.948  17.382  0.00  0.00    +0.000 A 
ATOM     23  C   UNL     1       5.007   5.806  16.170  0.00  0.00    +0.000 C 
ATOM     24  C   UNL     1       3.856   4.442  18.065  0.00  0.00    +0.000 A 
ENDBRANCH  16  24
ENDBRANCH  14  16
ENDBRANCH  13  14
ENDBRANCH   1  13
BRANCH  10  25
ATOM     25  C   UNL     1       0.960  11.311  18.398  0.00  0.00    +0.000 C 
BRANCH  25  26
ATOM     26  C   UNL     1       2.227  12.200  18.457  0.00  0.00    +0.000 C 
BRANCH  26  27
ATOM     27  N   UNL     1       2.004  13.643  18.202  0.00  0.00    +0.000 NA
ATOM     28  C   UNL     1       1.041  14.246  19.133  0.00  0.00    +0.000 C 
ATOM     29  C   UNL     1       0.784  15.715  18.788  0.00  0.00    +0.000 C 
ATOM     30  C   UNL     1       2.075  16.523  18.787  0.00  0.00    +0.000 C 
ATOM     31  C   UNL     1       3.121  15.850  17.908  0.00  0.00    +0.000 C 
ATOM     32  C   UNL     1       3.289  14.369  18.261  0.00  0.00    +0.000 C 
ENDBRANCH  26  27
ENDBRANCH  25  26
ENDBRANCH  10  25
TORSDOF 7
ENDMDL
MODEL 2
REMARK VINA RESULT:      -8.0      0.874      1.610
REMARK  Name = 
REMARK  10 active torsions:
REMARK  status: ('A' for Active; 'I' for Inactive)
REMARK    1  A    between atoms: C_1  and  C_2
REMARK    2  A    between atoms: N_4  and  C_5
REMARK    3  A    between atoms: C_6  and  C_7
REMARK    4  A    between atoms: C_8  and  C_9
REMARK    5  A    between atoms: C_9  and  N_10
REMARK    6  A    between atoms: N_10  and  C_11
REMARK    7  A    between atoms: C_11  and  C_12
REMARK    8  A    between atoms: N_21  and  C_22
REMARK    9  A    between atoms: C_22  and  C_23
REMARK   10  A    between atoms: C_23  and  N_24
REMARK                            x       y       z     vdW  Elec       q    Type
REMARK                         _______ _______ _______ _____ _____    ______ ____
ROOT
ATOM      1  C   UNL     1       1.732   8.105  19.344  0.00  0.00    +0.000 A 
ATOM      2  C   UNL     1       1.219   7.995  20.579  0.00  0.00    +0.000 A 
ATOM      3  C   UNL     1       0.589   9.119  21.254  0.00  0.00    +0.000 A 
ATOM      4  C   UNL     1       0.114   8.950  22.564  0.00  0.00    +0.000 A 
ATOM      5  C   UNL     1      -0.463  10.020  23.238  0.00  0.00    +0.000 A 
ATOM      6  C   UNL     1      -0.566  11.247  22.600  0.00  0.00    +0.000 A 
ATOM      7  F   UNL     1      -1.116  12.281  23.249  0.00  0.00    +0.000 F 
ATOM      8  C   UNL     1      -0.099  11.426  21.297  0.00  0.00    +0.000 A 
ATOM      9  C   UNL     1       0.485  10.360  20.603  0.00  0.00    +0.000 A 
ATOM     10  N   UNL     1       0.983  10.480  19.266  0.00  0.00    +0.000 N 
ATOM     11  C   UNL     1       1.600   9.410  18.606  0.00  0.00    +0.000 A 
ATOM     12  O   UNL     1       2.045   9.498  17.462  0.00  0.00    +0.000 OA
ENDROOT
BRANCH   1  13
ATOM     13  C   UNL     1       2.455   6.984  18.615  0.00  0.00    +0.000 C 
BRANCH  13  14
ATOM     14  N   UNL     1       3.759   7.379  18.063  0.00  0.00    +0.000 NA
ATOM     15  H   UNL     1       3.671   8.239  17.532  0.00  0.00    +0.000 HD
BRANCH  14  16
ATOM     16  C   UNL     1       4.335   6.374  17.169  0.00  0.00    +0.000 C 
BRANCH  16  24
ATOM     17  C   UNL     1       6.746   5.578  19.302  0.00  0.00    +0.000 C 
ATOM     18  C   UNL     1       5.568   4.775  18.874  0.00  0.00    +0.000 A 
ATOM     19  N   UNL     1       5.412   3.548  19.381  0.00  0.00    +0.000 NA
ATOM     20  N   UNL     1       4.287   3.093  18.811  0.00  0.00    +0.000 N 
ATOM     21  C   UNL     1       3.828   1.763  19.136  0.00  0.00    +0.000 C 
ATOM     22  C   UNL     1       3.710   3.991  17.955  0.00  0.00    +0.000 A 
ATOM     23  C   UNL     1       2.450   3.740  17.209  0.00  0.00    +0.000 C 
ATOM     24  C   UNL     1       4.526   5.116  17.964  0.00  0.00    +0.000 A 
ENDBRANCH  16  24
ENDBRANCH  14  16
ENDBRANCH  13  14
ENDBRANCH   1  13
BRANCH  10  25
ATOM     25  C   UNL     1       0.893  11.769  18.552  0.00  0.00    +0.000 C 
BRANCH  25  26
ATOM     26  C   UNL     1       2.184  12.613  18.682  0.00  0.00    +0.000 C 
BRANCH  26  27
ATOM     27  N   UNL     1       2.066  14.026  18.252  0.00  0.00    +0.000 NA
ATOM     28  C   UNL     1       1.254  14.838  19.170  0.00  0.00    +0.000 C 
ATOM     29  C   UNL     1       1.096  16.268  18.650  0.00  0.00    +0.000 C 
ATOM     30  C   UNL     1       2.447  16.936  18.430  0.00  0.00    +0.000 C 
ATOM     31  C   UNL     1       3.339  16.054  17.566  0.00  0.00    +0.000 C 
ATOM     32  C   UNL     1       3.409  14.622  18.103  0.00  0.00    +0.000 C 
ENDBRANCH  26  27
ENDBRANCH  25  26
ENDBRANCH  10  25
TORSDOF 7
ENDMDL
MODEL 3
REMARK VINA RESULT:      -8.0      0.871      1.310
REMARK  Name = 
REMARK  10 active torsions:
REMARK  status: ('A' for Active; 'I' for Inactive)
REMARK    1  A    between atoms: C_1  and  C_2
REMARK    2  A    between atoms: N_4  and  C_5
REMARK    3  A    between atoms: C_6  and  C_7
REMARK    4  A    between atoms: C_8  and  C_9
REMARK    5  A    between atoms: C_9  and  N_10
REMARK    6  A    between atoms: N_10  and  C_11
REMARK    7  A    between atoms: C_11  and  C_12
REMARK    8  A    between atoms: N_21  and  C_22
REMARK    9  A    between atoms: C_22  and  C_23
REMARK   10  A    between atoms: C_23  and  N_24
REMARK                            x       y       z     vdW  Elec       q    Type
REMARK                         _______ _______ _______ _____ _____    ______ ____
ROOT
ATOM      1  C   UNL     1       1.641   8.688  19.291  0.00  0.00    +0.000 A 
ATOM      2  C   UNL     1       1.089   8.457  20.492  0.00  0.00    +0.000 A 
ATOM      3  C   UNL     1       0.376   9.492  21.224  0.00  0.00    +0.000 A 
ATOM      4  C   UNL     1      -0.138   9.199  22.497  0.00  0.00    +0.000 A 
ATOM      5  C   UNL     1      -0.795  10.183  23.226  0.00  0.00    +0.000 A 
ATOM      6  C   UNL     1      -0.938  11.449  22.680  0.00  0.00    +0.000 A 
ATOM      7  F   UNL     1      -1.564  12.402  23.382  0.00  0.00    +0.000 F 
ATOM      8  C   UNL     1      -0.433  11.752  21.415  0.00  0.00    +0.000 A 
ATOM      9  C   UNL     1       0.232  10.774  20.666  0.00  0.00    +0.000 A 
ATOM     10  N   UNL     1       0.773  11.023  19.364  0.00  0.00    +0.000 N 
ATOM     11  C   UNL     1       1.469  10.039  18.651  0.00  0.00    +0.000 A 
ATOM     12  O   UNL     1       1.951  10.239  17.536  0.00  0.00    +0.000 OA
ENDROOT
BRANCH   1  13
ATOM     13  C   UNL     1       2.448   7.665  18.510  0.00  0.00    +0.000 C 
BRANCH  13  14
ATOM     14  N   UNL     1       2.300   6.289  19.004  0.00  0.00    +0.000 NA
ATOM     15  H   UNL     1       2.942   6.119  19.772  0.00  0.00    +0.000 HD
BRANCH  14  16
ATOM     16  C   UNL     1       2.569   5.276  17.983  0.00  0.00    +0.000 C 
BRANCH  16  24
ATOM     17  C   UNL     1       3.752   2.980  20.062  0.00  0.00    +0.000 C 
ATOM     18  C   UNL     1       4.484   3.820  19.076  0.00  0.00    +0.000 A 
ATOM     19  N   UNL     1       5.810   3.678  18.975  0.00  0.00    +0.000 NA
ATOM     20  N   UNL     1       6.167   4.555  18.025  0.00  0.00    +0.000 N 
ATOM     21  C   UNL     1       7.561   4.672  17.671  0.00  0.00    +0.000 C 
ATOM     22  C   UNL     1       5.111   5.254  17.506  0.00  0.00    +0.000 A 
ATOM     23  C   UNL     1       5.233   6.273  16.432  0.00  0.00    +0.000 C 
ATOM     24  C   UNL     1       3.979   4.802  18.176  0.00  0.00    +0.000 A 
ENDBRANCH  16  24
ENDBRANCH  14  16
ENDBRANCH  13  14
ENDBRANCH   1  13
BRANCH  10  25
ATOM     25  C   UNL     1       0.642  12.358  18.747  0.00  0.00    +0.000 C 
BRANCH  25  26
ATOM     26  C   UNL     1       1.773  13.325  19.176  0.00  0.00    +0.000 C 
BRANCH  26  27
ATOM     27  N   UNL     1       1.400  14.758  19.223  0.00  0.00    +0.000 NA
ATOM     28  C   UNL     1       2.298  15.609  18.430  0.00  0.00    +0.000 C 
ATOM     29  C   UNL     1       1.922  17.087  18.567  0.00  0.00    +0.000 C 
ATOM     30  C   UNL     1       0.478  17.337  18.153  0.00  0.00    +0.000 C 
ATOM     31  C   UNL     1      -0.457  16.385  18.890  0.00  0.00    +0.000 C 
ATOM     32  C   UNL     1       0.005  14.931  18.767  0.00  0.00    +0.000 C 
ENDBRANCH  26  27
ENDBRANCH  25  26
ENDBRANCH  10  25
TORSDOF 7
ENDMDL
MODEL 4
REMARK VINA RESULT:      -7.9      3.394      8.659
REMARK  Name = 
REMARK  10 active torsions:
REMARK  status: ('A' for Active; 'I' for Inactive)
REMARK    1  A    between atoms: C_1  and  C_2
REMARK    2  A    between atoms: N_4  and  C_5
REMARK    3  A    between atoms: C_6  and  C_7
REMARK    4  A    between atoms: C_8  and  C_9
REMARK    5  A    between atoms: C_9  and  N_10
REMARK    6  A    between atoms: N_10  and  C_11
REMARK    7  A    between atoms: C_11  and  C_12
REMARK    8  A    between atoms: N_21  and  C_22
REMARK    9  A    between atoms: C_22  and  C_23
REMARK   10  A    between atoms: C_23  and  N_24
REMARK                            x       y       z     vdW  Elec       q    Type
REMARK                         _______ _______ _______ _____ _____    ______ ____
ROOT
ATOM      1  C   UNL     1       1.712   7.327  20.278  0.00  0.00    +0.000 A 
ATOM      2  C   UNL     1       1.407   6.178  20.902  0.00  0.00    +0.000 A 
ATOM      3  C   UNL     1       1.767   4.883  20.346  0.00  0.00    +0.000 A 
ATOM      4  C   UNL     1       1.378   3.717  21.024  0.00  0.00    +0.000 A 
ATOM      5  C   UNL     1       1.684   2.469  20.495  0.00  0.00    +0.000 A 
ATOM      6  C   UNL     1       2.378   2.393  19.297  0.00  0.00    +0.000 A 
ATOM      7  F   UNL     1       2.669   1.192  18.781  0.00  0.00    +0.000 F 
ATOM      8  C   UNL     1       2.772   3.545  18.615  0.00  0.00    +0.000 A 
ATOM      9  C   UNL     1       2.472   4.811  19.133  0.00  0.00    +0.000 A 
ATOM     10  N   UNL     1       2.847   6.028  18.480  0.00  0.00    +0.000 N 
ATOM     11  C   UNL     1       2.502   7.283  18.998  0.00  0.00    +0.000 A 
ATOM     12  O   UNL     1       2.805   8.340  18.445  0.00  0.00    +0.000 OA
ENDROOT
BRANCH   1  13
ATOM     13  C   UNL     1       1.309   8.704  20.779  0.00  0.00    +0.000 C 
BRANCH  13  14
ATOM     14  N   UNL     1       0.424   9.435  19.861  0.00  0.00    +0.000 NA
ATOM     15  H   UNL     1       0.610   9.164  18.901  0.00  0.00    +0.000 HD
BRANCH  14  16
ATOM     16  C   UNL     1       0.582  10.887  19.940  0.00  0.00    +0.000 C 
BRANCH  16  24
ATOM     17  C   UNL     1      -1.686  11.908  17.747  0.00  0.00    +0.000 C 
ATOM     18  C   UNL     1      -1.744  11.924  19.234  0.00  0.00    +0.000 A 
ATOM     19  N   UNL     1      -2.838  12.414  19.826  0.00  0.00    +0.000 NA
ATOM     20  N   UNL     1      -2.588  12.295  21.138  0.00  0.00    +0.000 N 
ATOM     21  C   UNL     1      -3.579  12.753  22.082  0.00  0.00    +0.000 C 
ATOM     22  C   UNL     1      -1.369  11.736  21.410  0.00  0.00    +0.000 A 
ATOM     23  C   UNL     1      -0.857  11.479  22.781  0.00  0.00    +0.000 C 
ATOM     24  C   UNL     1      -0.776  11.479  20.179  0.00  0.00    +0.000 A 
ENDBRANCH  16  24
ENDBRANCH  14  16
ENDBRANCH  13  14
ENDBRANCH   1  13
BRANCH  10  25
ATOM     25  C   UNL     1       3.587   5.990  17.204  0.00  0.00    +0.000 C 
BRANCH  25  26
ATOM     26  C   UNL     1       4.748   4.966  17.220  0.00  0.00    +0.000 C 
BRANCH  26  27
ATOM     27  N   UNL     1       6.098   5.538  17.438  0.00  0.00    +0.000 NA
ATOM     28  C   UNL     1       6.166   6.974  17.132  0.00  0.00    +0.000 C 
ATOM     29  C   UNL     1       7.592   7.506  17.298  0.00  0.00    +0.000 C 
ATOM     30  C   UNL     1       8.123   7.254  18.703  0.00  0.00    +0.000 C 
ATOM     31  C   UNL     1       7.959   5.786  19.075  0.00  0.00    +0.000 C 
ATOM     32  C   UNL     1       6.529   5.296  18.830  0.00  0.00    +0.000 C 
ENDBRANCH  26  27
ENDBRANCH  25  26
ENDBRANCH  10  25
TORSDOF 7
ENDMDL
MODEL 5
REMARK VINA RESULT:      -7.9      1.062      1.656
REMARK  Name = 
REMARK  10 active torsions:
REMARK  status: ('A' for Active; 'I' for Inactive)
REMARK    1  A    between atoms: C_1  and  C_2
REMARK    2  A    between atoms: N_4  and  C_5
REMARK    3  A    between atoms: C_6  and  C_7
REMARK    4  A    between atoms: C_8  and  C_9
REMARK    5  A    between atoms: C_9  and  N_10
REMARK    6  A    between atoms: N_10  and  C_11
REMARK    7  A    between atoms: C_11  and  C_12
REMARK    8  A    between atoms: N_21  and  C_22
REMARK    9  A    between atoms: C_22  and  C_23
REMARK   10  A    between atoms: C_23  and  N_24
REMARK                            x       y       z     vdW  Elec       q    Type
REMARK                         _______ _______ _______ _____ _____    ______ ____
ROOT
ATOM      1  C   UNL     1       1.768   7.967  19.697  0.00  0.00    +0.000 A 
ATOM      2  C   UNL     1       1.214   7.969  20.920  0.00  0.00    +0.000 A 
ATOM      3  C   UNL     1       0.506   9.127  21.441  0.00  0.00    +0.000 A 
ATOM      4  C   UNL     1      -0.012   9.082  22.745  0.00  0.00    +0.000 A 
ATOM      5  C   UNL     1      -0.665  10.189  23.275  0.00  0.00    +0.000 A 
ATOM      6  C   UNL     1      -0.800  11.330  22.499  0.00  0.00    +0.000 A 
ATOM      7  F   UNL     1      -1.423  12.400  23.007  0.00  0.00    +0.000 F 
ATOM      8  C   UNL     1      -0.292  11.386  21.200  0.00  0.00    +0.000 A 
ATOM      9  C   UNL     1       0.369  10.281  20.651  0.00  0.00    +0.000 A 
ATOM     10  N   UNL     1       0.912  10.277  19.326  0.00  0.00    +0.000 N 
ATOM     11  C   UNL     1       1.604   9.173  18.813  0.00  0.00    +0.000 A 
ATOM     12  O   UNL     1       2.088   9.156  17.681  0.00  0.00    +0.000 OA
ENDROOT
BRANCH   1  13
ATOM     13  C   UNL     1       2.571   6.810  19.125  0.00  0.00    +0.000 C 
BRANCH  13  14
ATOM     14  N   UNL     1       3.382   6.098  20.123  0.00  0.00    +0.000 NA
ATOM     15  H   UNL     1       4.334   6.450  20.120  0.00  0.00    +0.000 HD
BRANCH  14  16
ATOM     16  C   UNL     1       3.453   4.656  19.886  0.00  0.00    +0.000 C 
BRANCH  16  24
ATOM     17  C   UNL     1       2.448   3.279  17.043  0.00  0.00    +0.000 C 
ATOM     18  C   UNL     1       3.779   3.843  17.393  0.00  0.00    +0.000 A 
ATOM     19  N   UNL     1       4.750   3.812  16.474  0.00  0.00    +0.000 NA
ATOM     20  N   UNL     1       5.802   4.379  17.081  0.00  0.00    +0.000 N 
ATOM     21  C   UNL     1       7.047   4.494  16.358  0.00  0.00    +0.000 C 
ATOM     22  C   UNL     1       5.538   4.782  18.362  0.00  0.00    +0.000 A 
ATOM     23  C   UNL     1       6.527   5.452  19.245  0.00  0.00    +0.000 C 
ATOM     24  C   UNL     1       4.213   4.443  18.610  0.00  0.00    +0.000 A 
ENDBRANCH  16  24
ENDBRANCH  14  16
ENDBRANCH  13  14
ENDBRANCH   1  13
BRANCH  10  25
ATOM     25  C   UNL     1       0.788  11.472  18.468  0.00  0.00    +0.000 C 
BRANCH  25  26
ATOM     26  C   UNL     1       1.940  12.483  18.687  0.00  0.00    +0.000 C 
BRANCH  26  27
ATOM     27  N   UNL     1       1.520  13.855  19.059  0.00  0.00    +0.000 NA
ATOM     28  C   UNL     1       2.373  14.895  18.467  0.00  0.00    +0.000 C 
ATOM     29  C   UNL     1       1.950  16.289  18.937  0.00  0.00    +0.000 C 
ATOM     30  C   UNL     1       0.490  16.571  18.606  0.00  0.00    +0.000 C 
ATOM     31  C   UNL     1      -0.397  15.444  19.121  0.00  0.00    +0.000 C 
ATOM     32  C   UNL     1       0.112  14.073  18.669  0.00  0.00    +0.000 C 
ENDBRANCH  26  27
ENDBRANCH  25  26
ENDBRANCH  10  25
TORSDOF 7
ENDMDL
MODEL 6
REMARK VINA RESULT:      -7.9      1.410      2.022
REMARK  Name = 
REMARK  10 active torsions:
REMARK  status: ('A' for Active; 'I' for Inactive)
REMARK    1  A    between atoms: C_1  and  C_2
REMARK    2  A    between atoms: N_4  and  C_5
REMARK    3  A    between atoms: C_6  and  C_7
REMARK    4  A    between atoms: C_8  and  C_9
REMARK    5  A    between atoms: C_9  and  N_10
REMARK    6  A    between atoms: N_10  and  C_11
REMARK    7  A    between atoms: C_11  and  C_12
REMARK    8  A    between atoms: N_21  and  C_22
REMARK    9  A    between atoms: C_22  and  C_23
REMARK   10  A    between atoms: C_23  and  N_24
REMARK                            x       y       z     vdW  Elec       q    Type
REMARK                         _______ _______ _______ _____ _____    ______ ____
ROOT
ATOM      1  C   UNL     1       1.856   7.664  19.777  0.00  0.00    +0.000 A 
ATOM      2  C   UNL     1       1.310   7.732  21.001  0.00  0.00    +0.000 A 
ATOM      3  C   UNL     1       0.615   8.921  21.468  0.00  0.00    +0.000 A 
ATOM      4  C   UNL     1       0.106   8.946  22.776  0.00  0.00    +0.000 A 
ATOM      5  C   UNL     1      -0.534  10.084  23.254  0.00  0.00    +0.000 A 
ATOM      6  C   UNL     1      -0.666  11.185  22.422  0.00  0.00    +0.000 A 
ATOM      7  F   UNL     1      -1.277  12.285  22.880  0.00  0.00    +0.000 F 
ATOM      8  C   UNL     1      -0.168  11.171  21.119  0.00  0.00    +0.000 A 
ATOM      9  C   UNL     1       0.481  10.034  20.622  0.00  0.00    +0.000 A 
ATOM     10  N   UNL     1       1.015   9.960  19.295  0.00  0.00    +0.000 N 
ATOM     11  C   UNL     1       1.694   8.825  18.833  0.00  0.00    +0.000 A 
ATOM     12  O   UNL     1       2.170   8.747  17.701  0.00  0.00    +0.000 OA
ENDROOT
BRANCH   1  13
ATOM     13  C   UNL     1       2.645   6.474  19.258  0.00  0.00    +0.000 C 
BRANCH  13  14
ATOM     14  N   UNL     1       3.955   6.830  18.694  0.00  0.00    +0.000 NA
ATOM     15  H   UNL     1       3.884   6.955  17.689  0.00  0.00    +0.000 HD
BRANCH  14  16
ATOM     16  C   UNL     1       4.982   5.815  18.932  0.00  0.00    +0.000 C 
BRANCH  16  24
ATOM     17  C   UNL     1       7.638   7.395  17.731  0.00  0.00    +0.000 C 
ATOM     18  C   UNL     1       6.852   6.286  17.126  0.00  0.00    +0.000 A 
ATOM     19  N   UNL     1       7.216   5.825  15.925  0.00  0.00    +0.000 NA
ATOM     20  N   UNL     1       6.330   4.855  15.658  0.00  0.00    +0.000 N 
ATOM     21  C   UNL     1       6.430   4.143  14.406  0.00  0.00    +0.000 C 
ATOM     22  C   UNL     1       5.410   4.671  16.653  0.00  0.00    +0.000 A 
ATOM     23  C   UNL     1       4.331   3.650  16.612  0.00  0.00    +0.000 C 
ATOM     24  C   UNL     1       5.715   5.600  17.641  0.00  0.00    +0.000 A 
ENDBRANCH  16  24
ENDBRANCH  14  16
ENDBRANCH  13  14
ENDBRANCH   1  13
BRANCH  10  25
ATOM     25  C   UNL     1       0.894  11.110  18.379  0.00  0.00    +0.000 C 
BRANCH  25  26
ATOM     26  C   UNL     1       2.090  12.088  18.491  0.00  0.00    +0.000 C 
BRANCH  26  27
ATOM     27  N   UNL     1       1.738  13.527  18.470  0.00  0.00    +0.000 NA
ATOM     28  C   UNL     1       0.326  13.776  18.793  0.00  0.00    +0.000 C 
ATOM     29  C   UNL     1      -0.011  15.265  18.687  0.00  0.00    +0.000 C 
ATOM     30  C   UNL     1       0.879  16.106  19.592  0.00  0.00    +0.000 C 
ATOM     31  C   UNL     1       2.346  15.780  19.343  0.00  0.00    +0.000 C 
ATOM     32  C   UNL     1       2.609  14.273  19.402  0.00  0.00    +0.000 C 
ENDBRANCH  26  27
ENDBRANCH  25  26
ENDBRANCH  10  25
TORSDOF 7
ENDMDL
MODEL 7
REMARK VINA RESULT:      -7.9      3.249      8.987
REMARK  Name = 
REMARK  10 active torsions:
REMARK  status: ('A' for Active; 'I' for Inactive)
REMARK    1  A    between atoms: C_1  and  C_2
REMARK    2  A    between atoms: N_4  and  C_5
REMARK    3  A    between atoms: C_6  and  C_7
REMARK    4  A    between atoms: C_8  and  C_9
REMARK    5  A    between atoms: C_9  and  N_10
REMARK    6  A    between atoms: N_10  and  C_11
REMARK    7  A    between atoms: C_11  and  C_12
REMARK    8  A    between atoms: N_21  and  C_22
REMARK    9  A    between atoms: C_22  and  C_23
REMARK   10  A    between atoms: C_23  and  N_24
REMARK                            x       y       z     vdW  Elec       q    Type
REMARK                         _______ _______ _______ _____ _____    ______ ____
ROOT
ATOM      1  C   UNL     1       2.865   6.985  18.200  0.00  0.00    +0.000 A 
ATOM      2  C   UNL     1       2.417   6.245  19.226  0.00  0.00    +0.000 A 
ATOM      3  C   UNL     1       3.019   4.967  19.574  0.00  0.00    +0.000 A 
ATOM      4  C   UNL     1       2.474   4.219  20.629  0.00  0.00    +0.000 A 
ATOM      5  C   UNL     1       3.014   2.981  20.957  0.00  0.00    +0.000 A 
ATOM      6  C   UNL     1       4.095   2.501  20.234  0.00  0.00    +0.000 A 
ATOM      7  F   UNL     1       4.614   1.307  20.543  0.00  0.00    +0.000 F 
ATOM      8  C   UNL     1       4.647   3.237  19.185  0.00  0.00    +0.000 A 
ATOM      9  C   UNL     1       4.116   4.485  18.840  0.00  0.00    +0.000 A 
ATOM     10  N   UNL     1       4.637   5.286  17.773  0.00  0.00    +0.000 N 
ATOM     11  C   UNL     1       4.063   6.515  17.422  0.00  0.00    +0.000 A 
ATOM     12  O   UNL     1       4.490   7.211  16.501  0.00  0.00    +0.000 OA
ENDROOT
BRANCH   1  13
ATOM     13  C   UNL     1       2.238   8.296  17.754  0.00  0.00    +0.000 C 
BRANCH  13  14
ATOM     14  N   UNL     1       1.931   9.214  18.860  0.00  0.00    +0.000 NA
ATOM     15  H   UNL     1       1.846   8.701  19.731  0.00  0.00    +0.000 HD
BRANCH  14  16
ATOM     16  C   UNL     1       0.681   9.951  18.668  0.00  0.00    +0.000 C 
BRANCH  16  24
ATOM     17  C   UNL     1       0.022   8.964  21.764  0.00  0.00    +0.000 C 
ATOM     18  C   UNL     1       0.155  10.345  21.228  0.00  0.00    +0.000 A 
ATOM     19  N   UNL     1      -0.011  11.375  22.064  0.00  0.00    +0.000 NA
ATOM     20  N   UNL     1       0.164  12.460  21.295  0.00  0.00    +0.000 N 
ATOM     21  C   UNL     1       0.037  13.767  21.893  0.00  0.00    +0.000 C 
ATOM     22  C   UNL     1       0.446  12.161  19.990  0.00  0.00    +0.000 A 
ATOM     23  C   UNL     1       0.700  13.179  18.938  0.00  0.00    +0.000 C 
ATOM     24  C   UNL     1       0.446  10.774  19.900  0.00  0.00    +0.000 A 
ENDBRANCH  16  24
ENDBRANCH  14  16
ENDBRANCH  13  14
ENDBRANCH   1  13
BRANCH  10  25
ATOM     25  C   UNL     1       5.787   4.811  16.980  0.00  0.00    +0.000 C 
BRANCH  25  26
ATOM     26  C   UNL     1       5.362   3.901  15.801  0.00  0.00    +0.000 C 
BRANCH  26  27
ATOM     27  N   UNL     1       6.269   3.913  14.630  0.00  0.00    +0.000 NA
ATOM     28  C   UNL     1       5.586   3.574  13.374  0.00  0.00    +0.000 C 
ATOM     29  C   UNL     1       6.573   3.524  12.205  0.00  0.00    +0.000 C 
ATOM     30  C   UNL     1       7.318   4.842  12.045  0.00  0.00    +0.000 C 
ATOM     31  C   UNL     1       7.942   5.262  13.370  0.00  0.00    +0.000 C 
ATOM     32  C   UNL     1       6.922   5.233  14.511  0.00  0.00    +0.000 C 
ENDBRANCH  26  27
ENDBRANCH  25  26
ENDBRANCH  10  25
TORSDOF 7
ENDMDL
MODEL 8
REMARK VINA RESULT:      -7.9      2.450      3.547
REMARK  Name = 
REMARK  10 active torsions:
REMARK  status: ('A' for Active; 'I' for Inactive)
REMARK    1  A    between atoms: C_1  and  C_2
REMARK    2  A    between atoms: N_4  and  C_5
REMARK    3  A    between atoms: C_6  and  C_7
REMARK    4  A    between atoms: C_8  and  C_9
REMARK    5  A    between atoms: C_9  and  N_10
REMARK    6  A    between atoms: N_10  and  C_11
REMARK    7  A    between atoms: C_11  and  C_12
REMARK    8  A    between atoms: N_21  and  C_22
REMARK    9  A    between atoms: C_22  and  C_23
REMARK   10  A    between atoms: C_23  and  N_24
REMARK                            x       y       z     vdW  Elec       q    Type
REMARK                         _______ _______ _______ _____ _____    ______ ____
ROOT
ATOM      1  C   UNL     1       1.901   8.172  19.351  0.00  0.00    +0.000 A 
ATOM      2  C   UNL     1       1.617   8.055  20.658  0.00  0.00    +0.000 A 
ATOM      3  C   UNL     1       0.741   8.992  21.343  0.00  0.00    +0.000 A 
ATOM      4  C   UNL     1       0.521   8.842  22.721  0.00  0.00    +0.000 A 
ATOM      5  C   UNL     1      -0.288   9.745  23.400  0.00  0.00    +0.000 A 
ATOM      6  C   UNL     1      -0.875  10.787  22.700  0.00  0.00    +0.000 A 
ATOM      7  F   UNL     1      -1.650  11.663  23.352  0.00  0.00    +0.000 F 
ATOM      8  C   UNL     1      -0.667  10.946  21.329  0.00  0.00    +0.000 A 
ATOM      9  C   UNL     1       0.146  10.046  20.629  0.00  0.00    +0.000 A 
ATOM     10  N   UNL     1       0.398  10.157  19.223  0.00  0.00    +0.000 N 
ATOM     11  C   UNL     1       1.247   9.267  18.552  0.00  0.00    +0.000 A 
ATOM     12  O   UNL     1       1.485   9.353  17.348  0.00  0.00    +0.000 OA
ENDROOT
BRANCH   1  13
ATOM     13  C   UNL     1       2.856   7.261  18.599  0.00  0.00    +0.000 C 
BRANCH  13  14
ATOM     14  N   UNL     1       3.001   5.927  19.199  0.00  0.00    +0.000 NA
ATOM     15  H   UNL     1       2.584   5.910  20.124  0.00  0.00    +0.000 HD
BRANCH  14  16
ATOM     16  C   UNL     1       4.396   5.510  19.346  0.00  0.00    +0.000 C 
BRANCH  16  24
ATOM     17  C   UNL     1       3.202   3.067  17.449  0.00  0.00    +0.000 C 
ATOM     18  C   UNL     1       4.356   3.971  17.198  0.00  0.00    +0.000 A 
ATOM     19  N   UNL     1       5.054   3.819  16.067  0.00  0.00    +0.000 NA
ATOM     20  N   UNL     1       6.008   4.758  16.137  0.00  0.00    +0.000 N 
ATOM     21  C   UNL     1       6.964   4.864  15.059  0.00  0.00    +0.000 C 
ATOM     22  C   UNL     1       5.943   5.516  17.274  0.00  0.00    +0.000 A 
ATOM     23  C   UNL     1       6.873   6.632  17.586  0.00  0.00    +0.000 C 
ATOM     24  C   UNL     1       4.868   5.026  18.006  0.00  0.00    +0.000 A 
ENDBRANCH  16  24
ENDBRANCH  14  16
ENDBRANCH  13  14
ENDBRANCH   1  13
BRANCH  10  25
ATOM     25  C   UNL     1      -0.208  11.252  18.442  0.00  0.00    +0.000 C 
BRANCH  25  26
ATOM     26  C   UNL     1      -1.475  10.803  17.673  0.00  0.00    +0.000 C 
BRANCH  26  27
ATOM     27  N   UNL     1      -2.758  11.011  18.384  0.00  0.00    +0.000 NA
ATOM     28  C   UNL     1      -2.837  12.319  19.050  0.00  0.00    +0.000 C 
ATOM     29  C   UNL     1      -4.144  12.462  19.833  0.00  0.00    +0.000 C 
ATOM     30  C   UNL     1      -5.358  12.269  18.934  0.00  0.00    +0.000 C 
ATOM     31  C   UNL     1      -5.238  10.965  18.155  0.00  0.00    +0.000 C 
ATOM     32  C   UNL     1      -3.887  10.853  17.444  0.00  0.00    +0.000 C 
ENDBRANCH  26  27
ENDBRANCH  25  26
ENDBRANCH  10  25
TORSDOF 7
ENDMDL
MODEL 9
REMARK VINA RESULT:      -7.8      2.941      8.442
REMARK  Name = 
REMARK  10 active torsions:
REMARK  status: ('A' for Active; 'I' for Inactive)
REMARK    1  A    between atoms: C_1  and  C_2
REMARK    2  A    between atoms: N_4  and  C_5
REMARK    3  A    between atoms: C_6  and  C_7
REMARK    4  A    between atoms: C_8  and  C_9
REMARK    5  A    between atoms: C_9  and  N_10
REMARK    6  A    between atoms: N_10  and  C_11
REMARK    7  A    between atoms: C_11  and  C_12
REMARK    8  A    between atoms: N_21  and  C_22
REMARK    9  A    between atoms: C_22  and  C_23
REMARK   10  A    between atoms: C_23  and  N_24
REMARK                            x       y       z     vdW  Elec       q    Type
REMARK                         _______ _______ _______ _____ _____    ______ ____
ROOT
ATOM      1  C   UNL     1       1.834   7.161  20.279  0.00  0.00    +0.000 A 
ATOM      2  C   UNL     1       1.514   6.013  20.896  0.00  0.00    +0.000 A 
ATOM      3  C   UNL     1       1.841   4.716  20.324  0.00  0.00    +0.000 A 
ATOM      4  C   UNL     1       1.437   3.551  20.996  0.00  0.00    +0.000 A 
ATOM      5  C   UNL     1       1.712   2.302  20.452  0.00  0.00    +0.000 A 
ATOM      6  C   UNL     1       2.391   2.224  19.246  0.00  0.00    +0.000 A 
ATOM      7  F   UNL     1       2.652   1.023  18.716  0.00  0.00    +0.000 F 
ATOM      8  C   UNL     1       2.800   3.374  18.570  0.00  0.00    +0.000 A 
ATOM      9  C   UNL     1       2.531   4.641  19.103  0.00  0.00    +0.000 A 
ATOM     10  N   UNL     1       2.924   5.857  18.457  0.00  0.00    +0.000 N 
ATOM     11  C   UNL     1       2.608   7.113  18.990  0.00  0.00    +0.000 A 
ATOM     12  O   UNL     1       2.927   8.169  18.443  0.00  0.00    +0.000 OA
ENDROOT
BRANCH   1  13
ATOM     13  C   UNL     1       1.465   8.541  20.797  0.00  0.00    +0.000 C 
BRANCH  13  14
ATOM     14  N   UNL     1       0.570   9.291  19.903  0.00  0.00    +0.000 NA
ATOM     15  H   UNL     1       1.111   9.847  19.249  0.00  0.00    +0.000 HD
BRANCH  14  16
ATOM     16  C   UNL     1      -0.322  10.207  20.615  0.00  0.00    +0.000 C 
BRANCH  16  24
ATOM     17  C   UNL     1      -1.791  10.529  17.660  0.00  0.00    +0.000 C 
ATOM     18  C   UNL     1      -1.116  11.563  18.490  0.00  0.00    +0.000 A 
ATOM     19  N   UNL     1      -1.054  12.815  18.027  0.00  0.00    +0.000 NA
ATOM     20  N   UNL     1      -0.397  13.491  18.980  0.00  0.00    +0.000 N 
ATOM     21  C   UNL     1      -0.141  14.899  18.789  0.00  0.00    +0.000 C 
ATOM     22  C   UNL     1      -0.038  12.713  20.048  0.00  0.00    +0.000 A 
ATOM     23  C   UNL     1       0.685  13.221  21.243  0.00  0.00    +0.000 C 
ATOM     24  C   UNL     1      -0.490  11.430  19.763  0.00  0.00    +0.000 A 
ENDBRANCH  16  24
ENDBRANCH  14  16
ENDBRANCH  13  14
ENDBRANCH   1  13
BRANCH  10  25
ATOM     25  C   UNL     1       3.648   5.816  17.172  0.00  0.00    +0.000 C 
BRANCH  25  26
ATOM     26  C   UNL     1       4.849   4.839  17.197  0.00  0.00    +0.000 C 
BRANCH  26  27
ATOM     27  N   UNL     1       6.172   5.465  17.431  0.00  0.00    +0.000 NA
ATOM     28  C   UNL     1       6.195   6.896  17.099  0.00  0.00    +0.000 C 
ATOM     29  C   UNL     1       7.596   7.483  17.283  0.00  0.00    +0.000 C 
ATOM     30  C   UNL     1       8.107   7.276  18.703  0.00  0.00    +0.000 C 
ATOM     31  C   UNL     1       7.989   5.810  19.100  0.00  0.00    +0.000 C 
ATOM     32  C   UNL     1       6.583   5.264  18.836  0.00  0.00    +0.000 C 
ENDBRANCH  26  27
ENDBRANCH  25  26
ENDBRANCH  10  25
TORSDOF 7
ENDMDL
