MODEL 1
REMARK VINA RESULT:      -7.1      0.000      0.000
REMARK  Name = 
REMARK  8 active torsions:
REMARK  status: ('A' for Active; 'I' for Inactive)
REMARK    1  A    between atoms: C_1  and  O_2
REMARK    2  A    between atoms: O_2  and  C_3
REMARK    3  A    between atoms: C_3  and  C_4
REMARK    4  A    between atoms: C_3  and  C_5
REMARK    5  A    between atoms: C_3  and  C_16
REMARK    6  A    between atoms: C_5  and  N_6
REMARK    7  A    between atoms: N_9  and  C_10
REMARK    8  A    between atoms: C_10  and  C_11
REMARK                            x       y       z     vdW  Elec       q    Type
REMARK                         _______ _______ _______ _____ _____    ______ ____
ROOT
ATOM      1  C   UNL     1       3.225   6.408  17.763  0.00  0.00    +0.000 C 
ENDROOT
BRANCH   1   2
ATOM      2  N   UNL     1       2.596   7.133  18.872  0.00  0.00    +0.000 N 
ATOM      3  C   UNL     1       2.010   8.354  18.642  0.00  0.00    +0.000 C 
ATOM      4  O   UNL     1       2.024   8.918  17.556  0.00  0.00    +0.000 OA
ATOM      5  N   UNL     1       1.407   8.850  19.765  0.00  0.00    +0.000 N 
ATOM      6  H   UNL     1       2.185   6.571  19.607  0.00  0.00    +0.000 HD
ATOM      7  H   UNL     1       1.809   8.563  20.642  0.00  0.00    +0.000 HD
BRANCH   5   8
ATOM      8  C   UNL     1       0.800  10.169  19.735  0.00  0.00    +0.000 C 
BRANCH   8   9
ATOM      9  C   UNL     1       0.100  10.401  21.038  0.00  0.00    +0.000 A 
ATOM     10  C   UNL     1      -0.001   9.542  22.116  0.00  0.00    +0.000 A 
ATOM     11  C   UNL     1      -0.748  10.102  23.192  0.00  0.00    +0.000 A 
ATOM     12  C   UNL     1      -1.197  11.370  22.900  0.00  0.00    +0.000 A 
ATOM     13  S   UNL     1      -0.729  11.873  21.333  0.00  0.00    +0.000 S 
ENDBRANCH   8   9
ENDBRANCH   5   8
ENDBRANCH   1   2
BRANCH   1  14
ATOM     14  C   UNL     1       3.826   5.022  18.153  0.00  0.00    +0.000 C 
ATOM     15  C   UNL     1       5.179   5.203  18.877  0.00  0.00    +0.000 C 
BRANCH  14  16
ATOM     16  C   UNL     1       2.884   4.253  19.096  0.00  0.00    +0.000 A 
ATOM     17  C   UNL     1       3.269   3.905  20.405  0.00  0.00    +0.000 A 
ATOM     18  C   UNL     1       2.391   3.245  21.269  0.00  0.00    +0.000 A 
ATOM     19  C   UNL     1       1.108   2.914  20.845  0.00  0.00    +0.000 A 
ATOM     20  C   UNL     1       0.705   3.243  19.555  0.00  0.00    +0.000 A 
ATOM     21  C   UNL     1       1.585   3.899  18.697  0.00  0.00    +0.000 A 
ATOM     22  F   UNL     1       1.144   4.214  17.471  0.00  0.00    +0.000 F 
ENDBRANCH  14  16
BRANCH  14  24
ATOM     23  C   UNL     1       5.090   4.475  16.106  0.00  0.00    +0.000 C 
ATOM     24  O   UNL     1       4.008   4.190  16.979  0.00  0.00    +0.000 OA
ENDBRANCH  14  24
ENDBRANCH   1  14
TORSDOF 6
ENDMDL
MODEL 2
REMARK VINA RESULT:      -6.9      1.814      3.539
REMARK  Name = 
REMARK  8 active torsions:
REMARK  status: ('A' for Active; 'I' for Inactive)
REMARK    1  A    between atoms: C_1  and  O_2
REMARK    2  A    between atoms: O_2  and  C_3
REMARK    3  A    between atoms: C_3  and  C_4
REMARK    4  A    between atoms: C_3  and  C_5
REMARK    5  A    between atoms: C_3  and  C_16
REMARK    6  A    between atoms: C_5  and  N_6
REMARK    7  A    between atoms: N_9  and  C_10
REMARK    8  A    between atoms: C_10  and  C_11
REMARK                            x       y       z     vdW  Elec       q    Type
REMARK                         _______ _______ _______ _____ _____    ______ ____
ROOT
ATOM      1  C   UNL     1       2.988   5.708  17.859  0.00  0.00    +0.000 C 
ENDROOT
BRANCH   1   2
ATOM      2  N   UNL     1       2.634   6.563  18.997  0.00  0.00    +0.000 N 
ATOM      3  C   UNL     1       2.064   7.793  18.772  0.00  0.00    +0.000 C 
ATOM      4  O   UNL     1       1.875   8.258  17.657  0.00  0.00    +0.000 OA
ATOM      5  N   UNL     1       1.729   8.420  19.941  0.00  0.00    +0.000 N 
ATOM      6  H   UNL     1       2.363   6.093  19.851  0.00  0.00    +0.000 HD
ATOM      7  H   UNL     1       2.293   8.186  20.742  0.00  0.00    +0.000 HD
BRANCH   5   8
ATOM      8  C   UNL     1       1.184   9.765  19.907  0.00  0.00    +0.000 C 
BRANCH   8   9
ATOM      9  C   UNL     1       0.417  10.001  21.170  0.00  0.00    +0.000 A 
ATOM     10  C   UNL     1       0.234   9.134  22.231  0.00  0.00    +0.000 A 
ATOM     11  C   UNL     1      -0.561   9.701  23.269  0.00  0.00    +0.000 A 
ATOM     12  C   UNL     1      -0.963  10.982  22.966  0.00  0.00    +0.000 A 
ATOM     13  S   UNL     1      -0.395  11.489  21.434  0.00  0.00    +0.000 S 
ENDBRANCH   8   9
ENDBRANCH   5   8
ENDBRANCH   1   2
BRANCH   1  14
ATOM     14  C   UNL     1       4.199   4.758  18.114  0.00  0.00    +0.000 C 
ATOM     15  C   UNL     1       4.339   3.737  16.963  0.00  0.00    +0.000 C 
BRANCH  14  16
ATOM     16  C   UNL     1       5.516   5.549  18.207  0.00  0.00    +0.000 A 
ATOM     17  C   UNL     1       6.500   5.241  19.165  0.00  0.00    +0.000 A 
ATOM     18  C   UNL     1       7.712   5.937  19.213  0.00  0.00    +0.000 A 
ATOM     19  C   UNL     1       7.967   6.960  18.305  0.00  0.00    +0.000 A 
ATOM     20  C   UNL     1       7.010   7.287  17.351  0.00  0.00    +0.000 A 
ATOM     21  C   UNL     1       5.803   6.592  17.310  0.00  0.00    +0.000 A 
ATOM     22  F   UNL     1       4.921   6.929  16.359  0.00  0.00    +0.000 F 
ENDBRANCH  14  16
BRANCH  14  24
ATOM     23  C   UNL     1       3.590   2.714  19.352  0.00  0.00    +0.000 C 
ATOM     24  O   UNL     1       4.048   4.056  19.374  0.00  0.00    +0.000 OA
ENDBRANCH  14  24
ENDBRANCH   1  14
TORSDOF 6
ENDMDL
MODEL 3
REMARK VINA RESULT:      -6.7      2.467      3.030
REMARK  Name = 
REMARK  8 active torsions:
REMARK  status: ('A' for Active; 'I' for Inactive)
REMARK    1  A    between atoms: C_1  and  O_2
REMARK    2  A    between atoms: O_2  and  C_3
REMARK    3  A    between atoms: C_3  and  C_4
REMARK    4  A    between atoms: C_3  and  C_5
REMARK    5  A    between atoms: C_3  and  C_16
REMARK    6  A    between atoms: C_5  and  N_6
REMARK    7  A    between atoms: N_9  and  C_10
REMARK    8  A    between atoms: C_10  and  C_11
REMARK                            x       y       z     vdW  Elec       q    Type
REMARK                         _______ _______ _______ _____ _____    ______ ____
ROOT
ATOM      1  C   UNL     1       2.607   7.139  19.607  0.00  0.00    +0.000 C 
ENDROOT
BRANCH   1   2
ATOM      2  N   UNL     1       2.039   8.131  18.688  0.00  0.00    +0.000 N 
ATOM      3  C   UNL     1       1.307   9.181  19.188  0.00  0.00    +0.000 C 
ATOM      4  O   UNL     1       1.045   9.320  20.375  0.00  0.00    +0.000 OA
ATOM      5  N   UNL     1       0.921  10.048  18.202  0.00  0.00    +0.000 N 
ATOM      6  H   UNL     1       2.556   8.311  17.838  0.00  0.00    +0.000 HD
ATOM      7  H   UNL     1       0.796   9.645  17.288  0.00  0.00    +0.000 HD
BRANCH   5   8
ATOM      8  C   UNL     1       0.073  11.180  18.529  0.00  0.00    +0.000 C 
BRANCH   8   9
ATOM      9  C   UNL     1      -1.329  10.862  18.112  0.00  0.00    +0.000 A 
ATOM     10  C   UNL     1      -1.753   9.907  17.208  0.00  0.00    +0.000 A 
ATOM     11  C   UNL     1      -3.170   9.888  17.058  0.00  0.00    +0.000 A 
ATOM     12  C   UNL     1      -3.782  10.833  17.849  0.00  0.00    +0.000 A 
ATOM     13  S   UNL     1      -2.653  11.743  18.756  0.00  0.00    +0.000 S 
ENDBRANCH   8   9
ENDBRANCH   5   8
ENDBRANCH   1   2
BRANCH   1  14
ATOM     14  C   UNL     1       3.193   5.871  18.911  0.00  0.00    +0.000 C 
ATOM     15  C   UNL     1       4.593   5.543  19.474  0.00  0.00    +0.000 C 
BRANCH  14  16
ATOM     16  C   UNL     1       2.292   4.645  19.140  0.00  0.00    +0.000 A 
ATOM     17  C   UNL     1       1.835   3.852  18.070  0.00  0.00    +0.000 A 
ATOM     18  C   UNL     1       1.053   2.714  18.291  0.00  0.00    +0.000 A 
ATOM     19  C   UNL     1       0.707   2.344  19.587  0.00  0.00    +0.000 A 
ATOM     20  C   UNL     1       1.141   3.113  20.661  0.00  0.00    +0.000 A 
ATOM     21  C   UNL     1       1.919   4.247  20.434  0.00  0.00    +0.000 A 
ATOM     22  F   UNL     1       2.332   4.945  21.502  0.00  0.00    +0.000 F 
ENDBRANCH  14  16
BRANCH  14  24
ATOM     23  C   UNL     1       4.558   6.103  16.870  0.00  0.00    +0.000 C 
ATOM     24  O   UNL     1       3.276   6.063  17.476  0.00  0.00    +0.000 OA
ENDBRANCH  14  24
ENDBRANCH   1  14
TORSDOF 6
ENDMDL
MODEL 4
REMARK VINA RESULT:      -6.7      3.803      7.559
REMARK  Name = 
REMARK  8 active torsions:
REMARK  status: ('A' for Active; 'I' for Inactive)
REMARK    1  A    between atoms: C_1  and  O_2
REMARK    2  A    between atoms: O_2  and  C_3
REMARK    3  A    between atoms: C_3  and  C_4
REMARK    4  A    between atoms: C_3  and  C_5
REMARK    5  A    between atoms: C_3  and  C_16
REMARK    6  A    between atoms: C_5  and  N_6
REMARK    7  A    between atoms: N_9  and  C_10
REMARK    8  A    between atoms: C_10  and  C_11
REMARK                            x       y       z     vdW  Elec       q    Type
REMARK                         _______ _______ _______ _____ _____    ______ ____
ROOT
ATOM      1  C   UNL     1       0.884  10.018  18.528  0.00  0.00    +0.000 C 
ENDROOT
BRANCH   1   2
ATOM      2  N   UNL     1       1.326   8.948  19.430  0.00  0.00    +0.000 N 
ATOM      3  C   UNL     1       2.110   7.929  18.945  0.00  0.00    +0.000 C 
ATOM      4  O   UNL     1       2.429   7.822  17.769  0.00  0.00    +0.000 OA
ATOM      5  N   UNL     1       2.491   7.065  19.934  0.00  0.00    +0.000 N 
ATOM      6  H   UNL     1       1.471   9.202  20.399  0.00  0.00    +0.000 HD
ATOM      7  H   UNL     1       1.858   6.981  20.713  0.00  0.00    +0.000 HD
BRANCH   5   8
ATOM      8  C   UNL     1       3.261   5.880  19.599  0.00  0.00    +0.000 C 
BRANCH   8   9
ATOM      9  C   UNL     1       2.361   4.688  19.679  0.00  0.00    +0.000 A 
ATOM     10  C   UNL     1       1.938   4.013  20.809  0.00  0.00    +0.000 A 
ATOM     11  C   UNL     1       1.081   2.916  20.501  0.00  0.00    +0.000 A 
ATOM     12  C   UNL     1       0.881   2.786  19.146  0.00  0.00    +0.000 A 
ATOM     13  S   UNL     1       1.731   3.972  18.253  0.00  0.00    +0.000 S 
ENDBRANCH   8   9
ENDBRANCH   5   8
ENDBRANCH   1   2
BRANCH   1  14
ATOM     14  C   UNL     1      -0.221  10.948  19.118  0.00  0.00    +0.000 C 
ATOM     15  C   UNL     1       0.247  12.420  19.105  0.00  0.00    +0.000 C 
BRANCH  14  16
ATOM     16  C   UNL     1      -1.520  10.858  18.296  0.00  0.00    +0.000 A 
ATOM     17  C   UNL     1      -1.640   9.991  17.194  0.00  0.00    +0.000 A 
ATOM     18  C   UNL     1      -2.838   9.884  16.481  0.00  0.00    +0.000 A 
ATOM     19  C   UNL     1      -3.943  10.644  16.852  0.00  0.00    +0.000 A 
ATOM     20  C   UNL     1      -3.849  11.511  17.935  0.00  0.00    +0.000 A 
ATOM     21  C   UNL     1      -2.652  11.615  18.640  0.00  0.00    +0.000 A 
ATOM     22  F   UNL     1      -2.615  12.448  19.689  0.00  0.00    +0.000 F 
ENDBRANCH  14  16
BRANCH  14  24
ATOM     23  C   UNL     1      -0.167  11.398  21.542  0.00  0.00    +0.000 C 
ATOM     24  O   UNL     1      -0.559  10.553  20.472  0.00  0.00    +0.000 OA
ENDBRANCH  14  24
ENDBRANCH   1  14
TORSDOF 6
ENDMDL
MODEL 5
REMARK VINA RESULT:      -6.6      2.398      4.090
REMARK  Name = 
REMARK  8 active torsions:
REMARK  status: ('A' for Active; 'I' for Inactive)
REMARK    1  A    between atoms: C_1  and  O_2
REMARK    2  A    between atoms: O_2  and  C_3
REMARK    3  A    between atoms: C_3  and  C_4
REMARK    4  A    between atoms: C_3  and  C_5
REMARK    5  A    between atoms: C_3  and  C_16
REMARK    6  A    between atoms: C_5  and  N_6
REMARK    7  A    between atoms: N_9  and  C_10
REMARK    8  A    between atoms: C_10  and  C_11
REMARK                            x       y       z     vdW  Elec       q    Type
REMARK                         _______ _______ _______ _____ _____    ______ ____
ROOT
ATOM      1  C   UNL     1       2.923   5.822  19.510  0.00  0.00    +0.000 C 
ENDROOT
BRANCH   1   2
ATOM      2  N   UNL     1       2.456   6.971  18.728  0.00  0.00    +0.000 N 
ATOM      3  C   UNL     1       1.955   8.076  19.374  0.00  0.00    +0.000 C 
ATOM      4  O   UNL     1       1.820   8.147  20.588  0.00  0.00    +0.000 OA
ATOM      5  N   UNL     1       1.639   9.078  18.499  0.00  0.00    +0.000 N 
ATOM      6  H   UNL     1       2.924   7.142  17.847  0.00  0.00    +0.000 HD
ATOM      7  H   UNL     1       1.373   8.786  17.573  0.00  0.00    +0.000 HD
BRANCH   5   8
ATOM      8  C   UNL     1       1.024  10.298  18.992  0.00  0.00    +0.000 C 
BRANCH   8   9
ATOM      9  C   UNL     1      -0.381  10.364  18.480  0.00  0.00    +0.000 A 
ATOM     10  C   UNL     1      -0.944   9.644  17.442  0.00  0.00    +0.000 A 
ATOM     11  C   UNL     1      -2.316   9.971  17.233  0.00  0.00    +0.000 A 
ATOM     12  C   UNL     1      -2.754  10.933  18.115  0.00  0.00    +0.000 A 
ATOM     13  S   UNL     1      -1.515  11.445  19.177  0.00  0.00    +0.000 S 
ENDBRANCH   8   9
ENDBRANCH   5   8
ENDBRANCH   1   2
BRANCH   1  14
ATOM     14  C   UNL     1       3.029   4.490  18.704  0.00  0.00    +0.000 C 
ATOM     15  C   UNL     1       1.840   4.352  17.728  0.00  0.00    +0.000 C 
BRANCH  14  16
ATOM     16  C   UNL     1       4.327   4.441  17.878  0.00  0.00    +0.000 A 
ATOM     17  C   UNL     1       4.320   4.135  16.505  0.00  0.00    +0.000 A 
ATOM     18  C   UNL     1       5.499   4.136  15.753  0.00  0.00    +0.000 A 
ATOM     19  C   UNL     1       6.714   4.441  16.358  0.00  0.00    +0.000 A 
ATOM     20  C   UNL     1       6.749   4.743  17.715  0.00  0.00    +0.000 A 
ATOM     21  C   UNL     1       5.571   4.738  18.459  0.00  0.00    +0.000 A 
ATOM     22  F   UNL     1       5.652   5.057  19.759  0.00  0.00    +0.000 F 
ENDBRANCH  14  16
BRANCH  14  24
ATOM     23  C   UNL     1       2.484   3.476  20.886  0.00  0.00    +0.000 C 
ATOM     24  O   UNL     1       3.063   3.348  19.597  0.00  0.00    +0.000 OA
ENDBRANCH  14  24
ENDBRANCH   1  14
TORSDOF 6
ENDMDL
MODEL 6
REMARK VINA RESULT:      -6.6      2.415      4.227
REMARK  Name = 
REMARK  8 active torsions:
REMARK  status: ('A' for Active; 'I' for Inactive)
REMARK    1  A    between atoms: C_1  and  O_2
REMARK    2  A    between atoms: O_2  and  C_3
REMARK    3  A    between atoms: C_3  and  C_4
REMARK    4  A    between atoms: C_3  and  C_5
REMARK    5  A    between atoms: C_3  and  C_16
REMARK    6  A    between atoms: C_5  and  N_6
REMARK    7  A    between atoms: N_9  and  C_10
REMARK    8  A    between atoms: C_10  and  C_11
REMARK                            x       y       z     vdW  Elec       q    Type
REMARK                         _______ _______ _______ _____ _____    ______ ____
ROOT
ATOM      1  C   UNL     1       3.226   7.145  17.758  0.00  0.00    +0.000 C 
ENDROOT
BRANCH   1   2
ATOM      2  N   UNL     1       2.268   7.813  18.645  0.00  0.00    +0.000 N 
ATOM      3  C   UNL     1       1.809   9.070  18.330  0.00  0.00    +0.000 C 
ATOM      4  O   UNL     1       2.197   9.708  17.361  0.00  0.00    +0.000 OA
ATOM      5  N   UNL     1       0.869   9.507  19.221  0.00  0.00    +0.000 N 
ATOM      6  H   UNL     1       1.626   7.217  19.152  0.00  0.00    +0.000 HD
ATOM      7  H   UNL     1       0.947   9.143  20.157  0.00  0.00    +0.000 HD
BRANCH   5   8
ATOM      8  C   UNL     1       0.324  10.847  19.095  0.00  0.00    +0.000 C 
BRANCH   8   9
ATOM      9  C   UNL     1      -1.045  10.751  18.497  0.00  0.00    +0.000 A 
ATOM     10  C   UNL     1      -1.482   9.894  17.504  0.00  0.00    +0.000 A 
ATOM     11  C   UNL     1      -2.858  10.089  17.183  0.00  0.00    +0.000 A 
ATOM     12  C   UNL     1      -3.424  11.090  17.938  0.00  0.00    +0.000 A 
ATOM     13  S   UNL     1      -2.301  11.798  19.016  0.00  0.00    +0.000 S 
ENDBRANCH   8   9
ENDBRANCH   5   8
ENDBRANCH   1   2
BRANCH   1  14
ATOM     14  C   UNL     1       3.505   5.652  18.113  0.00  0.00    +0.000 C 
ATOM     15  C   UNL     1       2.300   4.768  17.720  0.00  0.00    +0.000 C 
BRANCH  14  16
ATOM     16  C   UNL     1       4.742   5.124  17.364  0.00  0.00    +0.000 A 
ATOM     17  C   UNL     1       4.628   4.229  16.284  0.00  0.00    +0.000 A 
ATOM     18  C   UNL     1       5.755   3.789  15.583  0.00  0.00    +0.000 A 
ATOM     19  C   UNL     1       7.022   4.233  15.946  0.00  0.00    +0.000 A 
ATOM     20  C   UNL     1       7.163   5.115  17.012  0.00  0.00    +0.000 A 
ATOM     21  C   UNL     1       6.036   5.547  17.709  0.00  0.00    +0.000 A 
ATOM     22  F   UNL     1       6.220   6.414  18.715  0.00  0.00    +0.000 F 
ENDBRANCH  14  16
BRANCH  14  24
ATOM     23  C   UNL     1       2.952   4.640  20.293  0.00  0.00    +0.000 C 
ATOM     24  O   UNL     1       3.781   5.500  19.528  0.00  0.00    +0.000 OA
ENDBRANCH  14  24
ENDBRANCH   1  14
TORSDOF 6
ENDMDL
MODEL 7
REMARK VINA RESULT:      -6.6      1.684      3.581
REMARK  Name = 
REMARK  8 active torsions:
REMARK  status: ('A' for Active; 'I' for Inactive)
REMARK    1  A    between atoms: C_1  and  O_2
REMARK    2  A    between atoms: O_2  and  C_3
REMARK    3  A    between atoms: C_3  and  C_4
REMARK    4  A    between atoms: C_3  and  C_5
REMARK    5  A    between atoms: C_3  and  C_16
REMARK    6  A    between atoms: C_5  and  N_6
REMARK    7  A    between atoms: N_9  and  C_10
REMARK    8  A    between atoms: C_10  and  C_11
REMARK                            x       y       z     vdW  Elec       q    Type
REMARK                         _______ _______ _______ _____ _____    ______ ____
ROOT
ATOM      1  C   UNL     1       3.289   6.950  17.923  0.00  0.00    +0.000 C 
ENDROOT
BRANCH   1   2
ATOM      2  N   UNL     1       2.447   7.592  18.939  0.00  0.00    +0.000 N 
ATOM      3  C   UNL     1       1.812   8.775  18.649  0.00  0.00    +0.000 C 
ATOM      4  O   UNL     1       1.946   9.373  17.590  0.00  0.00    +0.000 OA
ATOM      5  N   UNL     1       1.012   9.189  19.677  0.00  0.00    +0.000 N 
ATOM      6  H   UNL     1       1.975   6.978  19.591  0.00  0.00    +0.000 HD
ATOM      7  H   UNL     1       1.298   8.903  20.599  0.00  0.00    +0.000 HD
BRANCH   5   8
ATOM      8  C   UNL     1       0.318  10.461  19.584  0.00  0.00    +0.000 C 
BRANCH   8   9
ATOM      9  C   UNL     1      -0.299  10.767  20.912  0.00  0.00    +0.000 A 
ATOM     10  C   UNL     1      -0.322   9.973  22.044  0.00  0.00    +0.000 A 
ATOM     11  C   UNL     1      -1.005  10.593  23.131  0.00  0.00    +0.000 A 
ATOM     12  C   UNL     1      -1.485  11.837  22.793  0.00  0.00    +0.000 A 
ATOM     13  S   UNL     1      -1.125  12.248  21.173  0.00  0.00    +0.000 S 
ENDBRANCH   8   9
ENDBRANCH   5   8
ENDBRANCH   1   2
BRANCH   1  14
ATOM     14  C   UNL     1       3.554   5.432  18.166  0.00  0.00    +0.000 C 
ATOM     15  C   UNL     1       2.363   4.588  17.661  0.00  0.00    +0.000 C 
BRANCH  14  16
ATOM     16  C   UNL     1       4.816   4.962  17.421  0.00  0.00    +0.000 A 
ATOM     17  C   UNL     1       4.740   4.297  16.183  0.00  0.00    +0.000 A 
ATOM     18  C   UNL     1       5.894   3.912  15.493  0.00  0.00    +0.000 A 
ATOM     19  C   UNL     1       7.151   4.181  16.026  0.00  0.00    +0.000 A 
ATOM     20  C   UNL     1       7.253   4.833  17.250  0.00  0.00    +0.000 A 
ATOM     21  C   UNL     1       6.099   5.212  17.934  0.00  0.00    +0.000 A 
ATOM     22  F   UNL     1       6.248   5.857  19.100  0.00  0.00    +0.000 F 
ENDBRANCH  14  16
BRANCH  14  24
ATOM     23  C   UNL     1       2.933   4.238  20.233  0.00  0.00    +0.000 C 
ATOM     24  O   UNL     1       3.780   5.166  19.573  0.00  0.00    +0.000 OA
ENDBRANCH  14  24
ENDBRANCH   1  14
TORSDOF 6
ENDMDL
MODEL 8
REMARK VINA RESULT:      -6.6      3.987      6.636
REMARK  Name = 
REMARK  8 active torsions:
REMARK  status: ('A' for Active; 'I' for Inactive)
REMARK    1  A    between atoms: C_1  and  O_2
REMARK    2  A    between atoms: O_2  and  C_3
REMARK    3  A    between atoms: C_3  and  C_4
REMARK    4  A    between atoms: C_3  and  C_5
REMARK    5  A    between atoms: C_3  and  C_16
REMARK    6  A    between atoms: C_5  and  N_6
REMARK    7  A    between atoms: N_9  and  C_10
REMARK    8  A    between atoms: C_10  and  C_11
REMARK                            x       y       z     vdW  Elec       q    Type
REMARK                         _______ _______ _______ _____ _____    ______ ____
ROOT
ATOM      1  C   UNL     1       5.912   6.078  16.158  0.00  0.00    +0.000 C 
ENDROOT
BRANCH   1   2
ATOM      2  N   UNL     1       4.515   6.165  16.598  0.00  0.00    +0.000 N 
ATOM      3  C   UNL     1       4.220   6.124  17.939  0.00  0.00    +0.000 C 
ATOM      4  O   UNL     1       5.061   5.962  18.813  0.00  0.00    +0.000 OA
ATOM      5  N   UNL     1       2.883   6.294  18.172  0.00  0.00    +0.000 N 
ATOM      6  H   UNL     1       3.890   6.710  16.019  0.00  0.00    +0.000 HD
ATOM      7  H   UNL     1       2.266   5.984  17.439  0.00  0.00    +0.000 HD
BRANCH   5   8
ATOM      8  C   UNL     1       2.370   6.204  19.527  0.00  0.00    +0.000 C 
BRANCH   8   9
ATOM      9  C   UNL     1       1.934   4.794  19.779  0.00  0.00    +0.000 A 
ATOM     10  C   UNL     1       1.306   3.927  18.905  0.00  0.00    +0.000 A 
ATOM     11  C   UNL     1       1.039   2.657  19.494  0.00  0.00    +0.000 A 
ATOM     12  C   UNL     1       1.467   2.597  20.800  0.00  0.00    +0.000 A 
ATOM     13  S   UNL     1       2.176   4.066  21.314  0.00  0.00    +0.000 S 
ENDBRANCH   8   9
ENDBRANCH   5   8
ENDBRANCH   1   2
BRANCH   1  14
ATOM     14  C   UNL     1       6.410   4.629  15.866  0.00  0.00    +0.000 C 
ATOM     15  C   UNL     1       5.407   3.591  16.416  0.00  0.00    +0.000 C 
BRANCH  14  16
ATOM     16  C   UNL     1       6.561   4.387  14.354  0.00  0.00    +0.000 A 
ATOM     17  C   UNL     1       5.693   3.529  13.652  0.00  0.00    +0.000 A 
ATOM     18  C   UNL     1       5.811   3.349  12.270  0.00  0.00    +0.000 A 
ATOM     19  C   UNL     1       6.800   4.020  11.558  0.00  0.00    +0.000 A 
ATOM     20  C   UNL     1       7.673   4.870  12.230  0.00  0.00    +0.000 A 
ATOM     21  C   UNL     1       7.553   5.043  13.607  0.00  0.00    +0.000 A 
ATOM     22  F   UNL     1       8.403   5.889  14.206  0.00  0.00    +0.000 F 
ENDBRANCH  14  16
BRANCH  14  24
ATOM     23  C   UNL     1       7.866   4.557  17.857  0.00  0.00    +0.000 C 
ATOM     24  O   UNL     1       7.717   4.404  16.454  0.00  0.00    +0.000 OA
ENDBRANCH  14  24
ENDBRANCH   1  14
TORSDOF 6
ENDMDL
MODEL 9
REMARK VINA RESULT:      -6.5      2.601      4.226
REMARK  Name = 
REMARK  8 active torsions:
REMARK  status: ('A' for Active; 'I' for Inactive)
REMARK    1  A    between atoms: C_1  and  O_2
REMARK    2  A    between atoms: O_2  and  C_3
REMARK    3  A    between atoms: C_3  and  C_4
REMARK    4  A    between atoms: C_3  and  C_5
REMARK    5  A    between atoms: C_3  and  C_16
REMARK    6  A    between atoms: C_5  and  N_6
REMARK    7  A    between atoms: N_9  and  C_10
REMARK    8  A    between atoms: C_10  and  C_11
REMARK                            x       y       z     vdW  Elec       q    Type
REMARK                         _______ _______ _______ _____ _____    ______ ____
ROOT
ATOM      1  C   UNL     1       3.453   6.115  19.282  0.00  0.00    +0.000 C 
ENDROOT
BRANCH   1   2
ATOM      2  N   UNL     1       2.829   7.150  18.452  0.00  0.00    +0.000 N 
ATOM      3  C   UNL     1       1.986   8.069  19.029  0.00  0.00    +0.000 C 
ATOM      4  O   UNL     1       1.670   8.049  20.210  0.00  0.00    +0.000 OA
ATOM      5  N   UNL     1       1.557   9.004  18.127  0.00  0.00    +0.000 N 
ATOM      6  H   UNL     1       3.358   7.470  17.651  0.00  0.00    +0.000 HD
ATOM      7  H   UNL     1       1.503   8.698  17.169  0.00  0.00    +0.000 HD
BRANCH   5   8
ATOM      8  C   UNL     1       0.597  10.013  18.536  0.00  0.00    +0.000 C 
BRANCH   8   9
ATOM      9  C   UNL     1       1.322  11.306  18.742  0.00  0.00    +0.000 A 
ATOM     10  C   UNL     1       2.367  11.825  18.000  0.00  0.00    +0.000 A 
ATOM     11  C   UNL     1       2.812  13.086  18.491  0.00  0.00    +0.000 A 
ATOM     12  C   UNL     1       2.096  13.488  19.596  0.00  0.00    +0.000 A 
ATOM     13  S   UNL     1       0.905  12.345  20.042  0.00  0.00    +0.000 S 
ENDBRANCH   8   9
ENDBRANCH   5   8
ENDBRANCH   1   2
BRANCH   1  14
ATOM     14  C   UNL     1       3.522   4.705  18.616  0.00  0.00    +0.000 C 
ATOM     15  C   UNL     1       2.283   4.466  17.726  0.00  0.00    +0.000 C 
BRANCH  14  16
ATOM     16  C   UNL     1       4.774   4.569  17.731  0.00  0.00    +0.000 A 
ATOM     17  C   UNL     1       4.681   4.268  16.359  0.00  0.00    +0.000 A 
ATOM     18  C   UNL     1       5.821   4.190  15.553  0.00  0.00    +0.000 A 
ATOM     19  C   UNL     1       7.081   4.408  16.101  0.00  0.00    +0.000 A 
ATOM     20  C   UNL     1       7.200   4.703  17.455  0.00  0.00    +0.000 A 
ATOM     21  C   UNL     1       6.061   4.778  18.253  0.00  0.00    +0.000 A 
ATOM     22  F   UNL     1       6.224   5.087  19.547  0.00  0.00    +0.000 F 
ENDBRANCH  14  16
BRANCH  14  24
ATOM     23  C   UNL     1       2.939   2.436  19.388  0.00  0.00    +0.000 C 
ATOM     24  O   UNL     1       3.611   3.664  19.621  0.00  0.00    +0.000 OA
ENDBRANCH  14  24
ENDBRANCH   1  14
TORSDOF 6
ENDMDL
