MODEL 1
REMARK VINA RESULT:      -8.0      0.000      0.000
REMARK  Name = 
REMARK  6 active torsions:
REMARK  status: ('A' for Active; 'I' for Inactive)
REMARK    1  A    between atoms: C_1  and  C_2
REMARK    2  A    between atoms: C_7  and  N_8
REMARK    3  A    between atoms: C_9  and  C_11
REMARK    4  A    between atoms: C_14  and  C_15
REMARK    5  A    between atoms: C_19  and  C_20
REMARK    6  A    between atoms: N_22  and  C_23
REMARK                            x       y       z     vdW  Elec       q    Type
REMARK                         _______ _______ _______ _____ _____    ______ ____
ROOT
ATOM      1  C   UNL     1      -2.442  12.091  22.984  0.00  0.00    +0.000 C 
ATOM      2  C   UNL     1      -1.396  11.105  22.562  0.00  0.00    +0.000 A 
ATOM      3  C   UNL     1      -0.717  10.323  23.589  0.00  0.00    +0.000 A 
ATOM      4  C   UNL     1       0.242   9.432  23.276  0.00  0.00    +0.000 A 
ATOM      5  C   UNL     1       0.618   9.241  21.918  0.00  0.00    +0.000 A 
ATOM      6  N   UNL     1       1.535   8.471  21.390  0.00  0.00    +0.000 NA
ATOM      7  C   UNL     1       1.445   8.650  20.042  0.00  0.00    +0.000 A 
ATOM      8  C   UNL     1       0.480   9.597  19.714  0.00  0.00    +0.000 A 
ATOM      9  N   UNL     1      -0.055   9.972  20.947  0.00  0.00    +0.000 N 
ATOM     10  C   UNL     1      -1.052  10.903  21.274  0.00  0.00    +0.000 A 
ENDROOT
BRANCH   7  11
ATOM     11  N   UNL     1       2.215   7.913  19.162  0.00  0.00    +0.000 N 
ATOM     12  C   UNL     1       2.431   6.545  19.279  0.00  0.00    +0.000 C 
ATOM     13  O   UNL     1       2.001   5.783  20.140  0.00  0.00    +0.000 OA
ATOM     14  H   UNL     1       2.526   8.394  18.334  0.00  0.00    +0.000 HD
BRANCH  12  15
ATOM     15  C   UNL     1       3.277   5.943  18.201  0.00  0.00    +0.000 A 
ATOM     16  C   UNL     1       3.255   4.569  17.922  0.00  0.00    +0.000 A 
ATOM     17  C   UNL     1       4.077   4.041  16.920  0.00  0.00    +0.000 A 
ATOM     18  C   UNL     1       4.915   4.878  16.174  0.00  0.00    +0.000 A 
ATOM     19  C   UNL     1       4.909   6.256  16.420  0.00  0.00    +0.000 A 
ATOM     20  C   UNL     1       4.091   6.785  17.425  0.00  0.00    +0.000 A 
BRANCH  18  21
ATOM     21  C   UNL     1       5.772   4.323  15.164  0.00  0.00    +0.000 C 
ATOM     22  N   UNL     1       6.474   3.869  14.361  0.00  0.00    +0.000 NA
ENDBRANCH  18  21
ENDBRANCH  12  15
ENDBRANCH   7  11
BRANCH   8  23
ATOM     23  C   UNL     1      -0.003  10.098  18.450  0.00  0.00    +0.000 C 
ATOM     24  O   UNL     1       0.752  10.480  17.560  0.00  0.00    +0.000 OA
ATOM     25  N   UNL     1      -1.382  10.116  18.262  0.00  0.00    +0.000 N 
ATOM     26  H   UNL     1      -1.937   9.496  18.838  0.00  0.00    +0.000 HD
BRANCH  25  27
ATOM     27  C   UNL     1      -1.913  10.530  16.972  0.00  0.00    +0.000 C 
ATOM     28  C   UNL     1      -2.305   9.376  16.050  0.00  0.00    +0.000 C 
ATOM     29  C   UNL     1      -3.077  10.080  14.936  0.00  0.00    +0.000 C 
ATOM     30  C   UNL     1      -3.733  11.296  15.599  0.00  0.00    +0.000 C 
ATOM     31  C   UNL     1      -3.217  11.319  17.041  0.00  0.00    +0.000 C 
ENDBRANCH  25  27
ENDBRANCH   8  23
TORSDOF 5
ENDMDL
MODEL 2
REMARK VINA RESULT:      -7.5      2.507      3.329
REMARK  Name = 
REMARK  6 active torsions:
REMARK  status: ('A' for Active; 'I' for Inactive)
REMARK    1  A    between atoms: C_1  and  C_2
REMARK    2  A    between atoms: C_7  and  N_8
REMARK    3  A    between atoms: C_9  and  C_11
REMARK    4  A    between atoms: C_14  and  C_15
REMARK    5  A    between atoms: C_19  and  C_20
REMARK    6  A    between atoms: N_22  and  C_23
REMARK                            x       y       z     vdW  Elec       q    Type
REMARK                         _______ _______ _______ _____ _____    ______ ____
ROOT
ATOM      1  C   UNL     1      -1.526  12.992  23.100  0.00  0.00    +0.000 C 
ATOM      2  C   UNL     1      -0.901  11.747  22.548  0.00  0.00    +0.000 A 
ATOM      3  C   UNL     1      -1.167  10.477  23.213  0.00  0.00    +0.000 A 
ATOM      4  C   UNL     1      -0.624   9.326  22.775  0.00  0.00    +0.000 A 
ATOM      5  C   UNL     1       0.236   9.332  21.643  0.00  0.00    +0.000 A 
ATOM      6  N   UNL     1       0.896   8.358  21.071  0.00  0.00    +0.000 NA
ATOM      7  C   UNL     1       1.534   8.912  20.002  0.00  0.00    +0.000 A 
ATOM      8  C   UNL     1       1.312  10.283  19.927  0.00  0.00    +0.000 A 
ATOM      9  N   UNL     1       0.460  10.544  21.001  0.00  0.00    +0.000 N 
ATOM     10  C   UNL     1      -0.103  11.744  21.460  0.00  0.00    +0.000 A 
ENDROOT
BRANCH   7  11
ATOM     11  N   UNL     1       2.259   8.141  19.113  0.00  0.00    +0.000 N 
ATOM     12  C   UNL     1       2.541   6.793  19.305  0.00  0.00    +0.000 C 
ATOM     13  O   UNL     1       2.216   6.081  20.251  0.00  0.00    +0.000 OA
ATOM     14  H   UNL     1       2.480   8.572  18.229  0.00  0.00    +0.000 HD
BRANCH  12  15
ATOM     15  C   UNL     1       3.318   6.145  18.203  0.00  0.00    +0.000 A 
ATOM     16  C   UNL     1       3.214   4.775  17.930  0.00  0.00    +0.000 A 
ATOM     17  C   UNL     1       3.973   4.201  16.904  0.00  0.00    +0.000 A 
ATOM     18  C   UNL     1       4.831   4.990  16.130  0.00  0.00    +0.000 A 
ATOM     19  C   UNL     1       4.908   6.367  16.371  0.00  0.00    +0.000 A 
ATOM     20  C   UNL     1       4.152   6.941  17.399  0.00  0.00    +0.000 A 
BRANCH  18  21
ATOM     21  C   UNL     1       5.626   4.388  15.095  0.00  0.00    +0.000 C 
ATOM     22  N   UNL     1       6.277   3.897  14.272  0.00  0.00    +0.000 NA
ENDBRANCH  18  21
ENDBRANCH  12  15
ENDBRANCH   7  11
BRANCH   8  23
ATOM     23  C   UNL     1       1.731  11.289  18.980  0.00  0.00    +0.000 C 
ATOM     24  O   UNL     1       1.979  11.026  17.807  0.00  0.00    +0.000 OA
ATOM     25  N   UNL     1       1.828  12.596  19.447  0.00  0.00    +0.000 N 
ATOM     26  H   UNL     1       1.302  12.832  20.279  0.00  0.00    +0.000 HD
BRANCH  25  27
ATOM     27  C   UNL     1       2.161  13.658  18.509  0.00  0.00    +0.000 C 
ATOM     28  C   UNL     1       1.605  15.031  18.886  0.00  0.00    +0.000 C 
ATOM     29  C   UNL     1       2.334  15.966  17.923  0.00  0.00    +0.000 C 
ATOM     30  C   UNL     1       3.693  15.307  17.665  0.00  0.00    +0.000 C 
ATOM     31  C   UNL     1       3.652  13.958  18.388  0.00  0.00    +0.000 C 
ENDBRANCH  25  27
ENDBRANCH   8  23
TORSDOF 5
ENDMDL
MODEL 3
REMARK VINA RESULT:      -7.4      1.987      3.138
REMARK  Name = 
REMARK  6 active torsions:
REMARK  status: ('A' for Active; 'I' for Inactive)
REMARK    1  A    between atoms: C_1  and  C_2
REMARK    2  A    between atoms: C_7  and  N_8
REMARK    3  A    between atoms: C_9  and  C_11
REMARK    4  A    between atoms: C_14  and  C_15
REMARK    5  A    between atoms: C_19  and  C_20
REMARK    6  A    between atoms: N_22  and  C_23
REMARK                            x       y       z     vdW  Elec       q    Type
REMARK                         _______ _______ _______ _____ _____    ______ ____
ROOT
ATOM      1  C   UNL     1      -4.389  15.294  22.152  0.00  0.00    +0.000 C 
ATOM      2  C   UNL     1      -3.454  14.124  22.203  0.00  0.00    +0.000 A 
ATOM      3  C   UNL     1      -3.047  13.610  23.505  0.00  0.00    +0.000 A 
ATOM      4  C   UNL     1      -2.199  12.571  23.618  0.00  0.00    +0.000 A 
ATOM      5  C   UNL     1      -1.673  11.954  22.450  0.00  0.00    +0.000 A 
ATOM      6  N   UNL     1      -0.818  10.971  22.319  0.00  0.00    +0.000 NA
ATOM      7  C   UNL     1      -0.694  10.758  20.979  0.00  0.00    +0.000 A 
ATOM      8  C   UNL     1      -1.452  11.663  20.242  0.00  0.00    +0.000 A 
ATOM      9  N   UNL     1      -2.089  12.435  21.215  0.00  0.00    +0.000 N 
ATOM     10  C   UNL     1      -2.971  13.520  21.098  0.00  0.00    +0.000 A 
ENDROOT
BRANCH   7  11
ATOM     11  N   UNL     1       0.070   9.720  20.480  0.00  0.00    +0.000 N 
ATOM     12  C   UNL     1       1.115   9.889  19.578  0.00  0.00    +0.000 C 
ATOM     13  O   UNL     1       1.525  10.936  19.086  0.00  0.00    +0.000 OA
ATOM     14  H   UNL     1      -0.080   8.816  20.900  0.00  0.00    +0.000 HD
BRANCH  12  15
ATOM     15  C   UNL     1       1.826   8.631  19.190  0.00  0.00    +0.000 A 
ATOM     16  C   UNL     1       1.885   7.520  20.041  0.00  0.00    +0.000 A 
ATOM     17  C   UNL     1       2.578   6.368  19.650  0.00  0.00    +0.000 A 
ATOM     18  C   UNL     1       3.204   6.307  18.400  0.00  0.00    +0.000 A 
ATOM     19  C   UNL     1       3.114   7.399  17.529  0.00  0.00    +0.000 A 
ATOM     20  C   UNL     1       2.424   8.552  17.921  0.00  0.00    +0.000 A 
BRANCH  18  21
ATOM     21  C   UNL     1       3.934   5.130  18.018  0.00  0.00    +0.000 C 
ATOM     22  N   UNL     1       4.533   4.183  17.722  0.00  0.00    +0.000 NA
ENDBRANCH  18  21
ENDBRANCH  12  15
ENDBRANCH   7  11
BRANCH   8  23
ATOM     23  C   UNL     1      -1.676  11.822  18.826  0.00  0.00    +0.000 C 
ATOM     24  O   UNL     1      -1.142  12.712  18.170  0.00  0.00    +0.000 OA
ATOM     25  N   UNL     1      -2.520  10.901  18.212  0.00  0.00    +0.000 N 
ATOM     26  H   UNL     1      -2.655  10.013  18.678  0.00  0.00    +0.000 HD
BRANCH  25  27
ATOM     27  C   UNL     1      -2.707  10.967  16.771  0.00  0.00    +0.000 C 
ATOM     28  C   UNL     1      -2.275   9.707  16.019  0.00  0.00    +0.000 C 
ATOM     29  C   UNL     1      -2.843   9.937  14.620  0.00  0.00    +0.000 C 
ATOM     30  C   UNL     1      -4.108  10.777  14.825  0.00  0.00    +0.000 C 
ATOM     31  C   UNL     1      -4.158  11.105  16.320  0.00  0.00    +0.000 C 
ENDBRANCH  25  27
ENDBRANCH   8  23
TORSDOF 5
ENDMDL
MODEL 4
REMARK VINA RESULT:      -7.1      1.849      2.837
REMARK  Name = 
REMARK  6 active torsions:
REMARK  status: ('A' for Active; 'I' for Inactive)
REMARK    1  A    between atoms: C_1  and  C_2
REMARK    2  A    between atoms: C_7  and  N_8
REMARK    3  A    between atoms: C_9  and  C_11
REMARK    4  A    between atoms: C_14  and  C_15
REMARK    5  A    between atoms: C_19  and  C_20
REMARK    6  A    between atoms: N_22  and  C_23
REMARK                            x       y       z     vdW  Elec       q    Type
REMARK                         _______ _______ _______ _____ _____    ______ ____
ROOT
ATOM      1  C   UNL     1      -4.016  14.910  22.262  0.00  0.00    +0.000 C 
ATOM      2  C   UNL     1      -3.101  13.723  22.230  0.00  0.00    +0.000 A 
ATOM      3  C   UNL     1      -2.656  13.148  23.495  0.00  0.00    +0.000 A 
ATOM      4  C   UNL     1      -1.824  12.092  23.533  0.00  0.00    +0.000 A 
ATOM      5  C   UNL     1      -1.353  11.514  22.322  0.00  0.00    +0.000 A 
ATOM      6  N   UNL     1      -0.522  10.524  22.119  0.00  0.00    +0.000 NA
ATOM      7  C   UNL     1      -0.451  10.363  20.768  0.00  0.00    +0.000 A 
ATOM      8  C   UNL     1      -1.218  11.311  20.098  0.00  0.00    +0.000 A 
ATOM      9  N   UNL     1      -1.805  12.053  21.124  0.00  0.00    +0.000 N 
ATOM     10  C   UNL     1      -2.670  13.157  21.085  0.00  0.00    +0.000 A 
ENDROOT
BRANCH   7  11
ATOM     11  N   UNL     1       0.275   9.334  20.200  0.00  0.00    +0.000 N 
ATOM     12  C   UNL     1       1.187   8.550  20.897  0.00  0.00    +0.000 C 
ATOM     13  O   UNL     1       1.498   8.627  22.082  0.00  0.00    +0.000 OA
ATOM     14  H   UNL     1       0.023   9.081  19.258  0.00  0.00    +0.000 HD
BRANCH  12  15
ATOM     15  C   UNL     1       1.844   7.474  20.092  0.00  0.00    +0.000 A 
ATOM     16  C   UNL     1       2.402   7.727  18.832  0.00  0.00    +0.000 A 
ATOM     17  C   UNL     1       2.989   6.689  18.099  0.00  0.00    +0.000 A 
ATOM     18  C   UNL     1       3.040   5.392  18.622  0.00  0.00    +0.000 A 
ATOM     19  C   UNL     1       2.521   5.142  19.898  0.00  0.00    +0.000 A 
ATOM     20  C   UNL     1       1.930   6.179  20.629  0.00  0.00    +0.000 A 
BRANCH  18  21
ATOM     21  C   UNL     1       3.623   4.328  17.853  0.00  0.00    +0.000 C 
ATOM     22  N   UNL     1       4.105   3.469  17.243  0.00  0.00    +0.000 NA
ENDBRANCH  18  21
ENDBRANCH  12  15
ENDBRANCH   7  11
BRANCH   8  23
ATOM     23  C   UNL     1      -1.492  11.531  18.699  0.00  0.00    +0.000 C 
ATOM     24  O   UNL     1      -0.808  12.277  18.003  0.00  0.00    +0.000 OA
ATOM     25  N   UNL     1      -2.567  10.841  18.148  0.00  0.00    +0.000 N 
ATOM     26  H   UNL     1      -2.877  10.005  18.627  0.00  0.00    +0.000 HD
BRANCH  25  27
ATOM     27  C   UNL     1      -2.828  10.963  16.721  0.00  0.00    +0.000 C 
ATOM     28  C   UNL     1      -2.278   9.812  15.878  0.00  0.00    +0.000 C 
ATOM     29  C   UNL     1      -2.934  10.046  14.519  0.00  0.00    +0.000 C 
ATOM     30  C   UNL     1      -4.283  10.706  14.825  0.00  0.00    +0.000 C 
ATOM     31  C   UNL     1      -4.304  10.941  16.338  0.00  0.00    +0.000 C 
ENDBRANCH  25  27
ENDBRANCH   8  23
TORSDOF 5
ENDMDL
MODEL 5
REMARK VINA RESULT:      -7.1      2.963      8.292
REMARK  Name = 
REMARK  6 active torsions:
REMARK  status: ('A' for Active; 'I' for Inactive)
REMARK    1  A    between atoms: C_1  and  C_2
REMARK    2  A    between atoms: C_7  and  N_8
REMARK    3  A    between atoms: C_9  and  C_11
REMARK    4  A    between atoms: C_14  and  C_15
REMARK    5  A    between atoms: C_19  and  C_20
REMARK    6  A    between atoms: N_22  and  C_23
REMARK                            x       y       z     vdW  Elec       q    Type
REMARK                         _______ _______ _______ _____ _____    ______ ____
ROOT
ATOM      1  C   UNL     1       4.537   1.193  19.985  0.00  0.00    +0.000 C 
ATOM      2  C   UNL     1       3.794   2.474  20.212  0.00  0.00    +0.000 A 
ATOM      3  C   UNL     1       2.906   2.573  21.365  0.00  0.00    +0.000 A 
ATOM      4  C   UNL     1       2.200   3.691  21.615  0.00  0.00    +0.000 A 
ATOM      5  C   UNL     1       2.305   4.808  20.742  0.00  0.00    +0.000 A 
ATOM      6  N   UNL     1       1.695   5.966  20.765  0.00  0.00    +0.000 NA
ATOM      7  C   UNL     1       2.195   6.675  19.714  0.00  0.00    +0.000 A 
ATOM      8  C   UNL     1       3.108   5.927  18.979  0.00  0.00    +0.000 A 
ATOM      9  N   UNL     1       3.174   4.711  19.662  0.00  0.00    +0.000 N 
ATOM     10  C   UNL     1       3.907   3.545  19.400  0.00  0.00    +0.000 A 
ENDROOT
BRANCH   7  11
ATOM     11  N   UNL     1       1.833   7.990  19.492  0.00  0.00    +0.000 N 
ATOM     12  C   UNL     1       1.111   8.759  20.397  0.00  0.00    +0.000 C 
ATOM     13  O   UNL     1       0.684   8.427  21.499  0.00  0.00    +0.000 OA
ATOM     14  H   UNL     1       2.230   8.428  18.676  0.00  0.00    +0.000 HD
BRANCH  12  15
ATOM     15  C   UNL     1       0.850  10.168  19.964  0.00  0.00    +0.000 A 
ATOM     16  C   UNL     1       1.530  10.750  18.886  0.00  0.00    +0.000 A 
ATOM     17  C   UNL     1       1.274  12.078  18.525  0.00  0.00    +0.000 A 
ATOM     18  C   UNL     1       0.325  12.833  19.224  0.00  0.00    +0.000 A 
ATOM     19  C   UNL     1      -0.388  12.243  20.275  0.00  0.00    +0.000 A 
ATOM     20  C   UNL     1      -0.129  10.917  20.639  0.00  0.00    +0.000 A 
BRANCH  18  21
ATOM     21  C   UNL     1       0.086  14.202  18.862  0.00  0.00    +0.000 C 
ATOM     22  N   UNL     1      -0.108  15.302  18.554  0.00  0.00    +0.000 NA
ENDBRANCH  18  21
ENDBRANCH  12  15
ENDBRANCH   7  11
BRANCH   8  23
ATOM     23  C   UNL     1       3.918   6.236  17.824  0.00  0.00    +0.000 C 
ATOM     24  O   UNL     1       4.160   7.389  17.480  0.00  0.00    +0.000 OA
ATOM     25  N   UNL     1       4.441   5.161  17.112  0.00  0.00    +0.000 N 
ATOM     26  H   UNL     1       4.520   4.276  17.599  0.00  0.00    +0.000 HD
BRANCH  25  27
ATOM     27  C   UNL     1       5.335   5.423  15.994  0.00  0.00    +0.000 C 
ATOM     28  C   UNL     1       6.822   5.346  16.343  0.00  0.00    +0.000 C 
ATOM     29  C   UNL     1       7.491   5.367  14.970  0.00  0.00    +0.000 C 
ATOM     30  C   UNL     1       6.496   4.692  14.020  0.00  0.00    +0.000 C 
ATOM     31  C   UNL     1       5.239   4.418  14.851  0.00  0.00    +0.000 C 
ENDBRANCH  25  27
ENDBRANCH   8  23
TORSDOF 5
ENDMDL
MODEL 6
REMARK VINA RESULT:      -7.0      3.179      8.168
REMARK  Name = 
REMARK  6 active torsions:
REMARK  status: ('A' for Active; 'I' for Inactive)
REMARK    1  A    between atoms: C_1  and  C_2
REMARK    2  A    between atoms: C_7  and  N_8
REMARK    3  A    between atoms: C_9  and  C_11
REMARK    4  A    between atoms: C_14  and  C_15
REMARK    5  A    between atoms: C_19  and  C_20
REMARK    6  A    between atoms: N_22  and  C_23
REMARK                            x       y       z     vdW  Elec       q    Type
REMARK                         _______ _______ _______ _____ _____    ______ ____
ROOT
ATOM      1  C   UNL     1       3.377   1.092  19.227  0.00  0.00    +0.000 C 
ATOM      2  C   UNL     1       2.899   2.464  19.593  0.00  0.00    +0.000 A 
ATOM      3  C   UNL     1       1.985   2.609  20.721  0.00  0.00    +0.000 A 
ATOM      4  C   UNL     1       1.509   3.812  21.090  0.00  0.00    +0.000 A 
ATOM      5  C   UNL     1       1.890   4.978  20.373  0.00  0.00    +0.000 A 
ATOM      6  N   UNL     1       1.529   6.227  20.525  0.00  0.00    +0.000 NA
ATOM      7  C   UNL     1       2.224   6.936  19.592  0.00  0.00    +0.000 A 
ATOM      8  C   UNL     1       3.006   6.106  18.795  0.00  0.00    +0.000 A 
ATOM      9  N   UNL     1       2.783   4.831  19.318  0.00  0.00    +0.000 N 
ATOM     10  C   UNL     1       3.276   3.576  18.930  0.00  0.00    +0.000 A 
ENDROOT
BRANCH   7  11
ATOM     11  N   UNL     1       2.152   8.315  19.530  0.00  0.00    +0.000 N 
ATOM     12  C   UNL     1       1.508   9.013  18.515  0.00  0.00    +0.000 C 
ATOM     13  O   UNL     1       0.920   8.556  17.539  0.00  0.00    +0.000 OA
ATOM     14  H   UNL     1       2.487   8.813  20.338  0.00  0.00    +0.000 HD
BRANCH  12  15
ATOM     15  C   UNL     1       1.529  10.502  18.659  0.00  0.00    +0.000 A 
ATOM     16  C   UNL     1       0.657  11.175  19.525  0.00  0.00    +0.000 A 
ATOM     17  C   UNL     1       0.692  12.571  19.616  0.00  0.00    +0.000 A 
ATOM     18  C   UNL     1       1.609  13.309  18.858  0.00  0.00    +0.000 A 
ATOM     19  C   UNL     1       2.511  12.639  18.023  0.00  0.00    +0.000 A 
ATOM     20  C   UNL     1       2.473  11.243  17.928  0.00  0.00    +0.000 A 
BRANCH  18  21
ATOM     21  C   UNL     1       1.622  14.743  18.940  0.00  0.00    +0.000 C 
ATOM     22  N   UNL     1       1.615  15.900  19.007  0.00  0.00    +0.000 NA
ENDBRANCH  18  21
ENDBRANCH  12  15
ENDBRANCH   7  11
BRANCH   8  23
ATOM     23  C   UNL     1       3.927   6.374  17.717  0.00  0.00    +0.000 C 
ATOM     24  O   UNL     1       4.337   7.504  17.467  0.00  0.00    +0.000 OA
ATOM     25  N   UNL     1       4.359   5.284  16.968  0.00  0.00    +0.000 N 
ATOM     26  H   UNL     1       4.290   4.370  17.397  0.00  0.00    +0.000 HD
BRANCH  25  27
ATOM     27  C   UNL     1       5.355   5.493  15.928  0.00  0.00    +0.000 C 
ATOM     28  C   UNL     1       6.800   5.303  16.389  0.00  0.00    +0.000 C 
ATOM     29  C   UNL     1       7.576   5.290  15.074  0.00  0.00    +0.000 C 
ATOM     30  C   UNL     1       6.613   4.701  14.037  0.00  0.00    +0.000 C 
ATOM     31  C   UNL     1       5.278   4.510  14.763  0.00  0.00    +0.000 C 
ENDBRANCH  25  27
ENDBRANCH   8  23
TORSDOF 5
ENDMDL
MODEL 7
REMARK VINA RESULT:      -6.8      5.738      7.427
REMARK  Name = 
REMARK  6 active torsions:
REMARK  status: ('A' for Active; 'I' for Inactive)
REMARK    1  A    between atoms: C_1  and  C_2
REMARK    2  A    between atoms: C_7  and  N_8
REMARK    3  A    between atoms: C_9  and  C_11
REMARK    4  A    between atoms: C_14  and  C_15
REMARK    5  A    between atoms: C_19  and  C_20
REMARK    6  A    between atoms: N_22  and  C_23
REMARK                            x       y       z     vdW  Elec       q    Type
REMARK                         _______ _______ _______ _____ _____    ______ ____
ROOT
ATOM      1  C   UNL     1      -2.145  15.444  25.712  0.00  0.00    +0.000 C 
ATOM      2  C   UNL     1      -2.697  14.619  24.589  0.00  0.00    +0.000 A 
ATOM      3  C   UNL     1      -3.872  13.793  24.841  0.00  0.00    +0.000 A 
ATOM      4  C   UNL     1      -4.407  13.018  23.880  0.00  0.00    +0.000 A 
ATOM      5  C   UNL     1      -3.822  12.989  22.584  0.00  0.00    +0.000 A 
ATOM      6  N   UNL     1      -4.142  12.295  21.521  0.00  0.00    +0.000 NA
ATOM      7  C   UNL     1      -3.274  12.681  20.545  0.00  0.00    +0.000 A 
ATOM      8  C   UNL     1      -2.349  13.606  21.017  0.00  0.00    +0.000 A 
ATOM      9  N   UNL     1      -2.720  13.802  22.348  0.00  0.00    +0.000 N 
ATOM     10  C   UNL     1      -2.160  14.606  23.352  0.00  0.00    +0.000 A 
ENDROOT
BRANCH   7  11
ATOM     11  N   UNL     1      -3.386  12.208  19.251  0.00  0.00    +0.000 N 
ATOM     12  C   UNL     1      -2.519  11.279  18.687  0.00  0.00    +0.000 C 
ATOM     13  O   UNL     1      -1.548  10.739  19.208  0.00  0.00    +0.000 OA
ATOM     14  H   UNL     1      -4.218  12.476  18.750  0.00  0.00    +0.000 HD
BRANCH  12  15
ATOM     15  C   UNL     1      -2.840  10.887  17.279  0.00  0.00    +0.000 A 
ATOM     16  C   UNL     1      -2.113   9.899  16.601  0.00  0.00    +0.000 A 
ATOM     17  C   UNL     1      -2.429   9.574  15.277  0.00  0.00    +0.000 A 
ATOM     18  C   UNL     1      -3.484  10.219  14.621  0.00  0.00    +0.000 A 
ATOM     19  C   UNL     1      -4.240  11.177  15.307  0.00  0.00    +0.000 A 
ATOM     20  C   UNL     1      -3.922  11.505  16.630  0.00  0.00    +0.000 A 
BRANCH  18  21
ATOM     21  C   UNL     1      -3.786   9.897  13.254  0.00  0.00    +0.000 C 
ATOM     22  N   UNL     1      -4.038   9.652  12.150  0.00  0.00    +0.000 NA
ENDBRANCH  18  21
ENDBRANCH  12  15
ENDBRANCH   7  11
BRANCH   8  23
ATOM     23  C   UNL     1      -1.273  14.324  20.376  0.00  0.00    +0.000 C 
ATOM     24  O   UNL     1      -0.160  13.834  20.213  0.00  0.00    +0.000 OA
ATOM     25  N   UNL     1      -1.553  15.610  19.922  0.00  0.00    +0.000 N 
ATOM     26  H   UNL     1      -2.524  15.842  19.756  0.00  0.00    +0.000 HD
BRANCH  25  27
ATOM     27  C   UNL     1      -0.528  16.339  19.192  0.00  0.00    +0.000 C 
ATOM     28  C   UNL     1      -1.066  17.433  18.269  0.00  0.00    +0.000 C 
ATOM     29  C   UNL     1       0.197  18.197  17.879  0.00  0.00    +0.000 C 
ATOM     30  C   UNL     1       1.141  18.066  19.079  0.00  0.00    +0.000 C 
ATOM     31  C   UNL     1       0.439  17.129  20.067  0.00  0.00    +0.000 C 
ENDBRANCH  25  27
ENDBRANCH   8  23
TORSDOF 5
ENDMDL
MODEL 8
REMARK VINA RESULT:      -6.8      3.566      4.688
REMARK  Name = 
REMARK  6 active torsions:
REMARK  status: ('A' for Active; 'I' for Inactive)
REMARK    1  A    between atoms: C_1  and  C_2
REMARK    2  A    between atoms: C_7  and  N_8
REMARK    3  A    between atoms: C_9  and  C_11
REMARK    4  A    between atoms: C_14  and  C_15
REMARK    5  A    between atoms: C_19  and  C_20
REMARK    6  A    between atoms: N_22  and  C_23
REMARK                            x       y       z     vdW  Elec       q    Type
REMARK                         _______ _______ _______ _____ _____    ______ ____
ROOT
ATOM      1  C   UNL     1      -0.089  17.961  18.812  0.00  0.00    +0.000 C 
ATOM      2  C   UNL     1       0.612  16.668  19.101  0.00  0.00    +0.000 A 
ATOM      3  C   UNL     1       1.996  16.709  19.559  0.00  0.00    +0.000 A 
ATOM      4  C   UNL     1       2.684  15.583  19.822  0.00  0.00    +0.000 A 
ATOM      5  C   UNL     1       2.064  14.315  19.648  0.00  0.00    +0.000 A 
ATOM      6  N   UNL     1       2.542  13.107  19.803  0.00  0.00    +0.000 NA
ATOM      7  C   UNL     1       1.510  12.257  19.540  0.00  0.00    +0.000 A 
ATOM      8  C   UNL     1       0.363  12.947  19.159  0.00  0.00    +0.000 A 
ATOM      9  N   UNL     1       0.737  14.289  19.238  0.00  0.00    +0.000 N 
ATOM     10  C   UNL     1       0.021  15.463  18.961  0.00  0.00    +0.000 A 
ENDROOT
BRANCH   7  11
ATOM     11  N   UNL     1       1.640  10.890  19.698  0.00  0.00    +0.000 N 
ATOM     12  C   UNL     1       1.728   9.992  18.641  0.00  0.00    +0.000 C 
ATOM     13  O   UNL     1       1.706  10.236  17.438  0.00  0.00    +0.000 OA
ATOM     14  H   UNL     1       1.798  10.566  20.639  0.00  0.00    +0.000 HD
BRANCH  12  15
ATOM     15  C   UNL     1       1.890   8.559  19.040  0.00  0.00    +0.000 A 
ATOM     16  C   UNL     1       2.398   7.597  18.157  0.00  0.00    +0.000 A 
ATOM     17  C   UNL     1       2.515   6.262  18.560  0.00  0.00    +0.000 A 
ATOM     18  C   UNL     1       2.143   5.876  19.853  0.00  0.00    +0.000 A 
ATOM     19  C   UNL     1       1.674   6.840  20.753  0.00  0.00    +0.000 A 
ATOM     20  C   UNL     1       1.553   8.174  20.349  0.00  0.00    +0.000 A 
BRANCH  18  21
ATOM     21  C   UNL     1       2.243   4.498  20.250  0.00  0.00    +0.000 C 
ATOM     22  N   UNL     1       2.318   3.383  20.555  0.00  0.00    +0.000 NA
ENDBRANCH  18  21
ENDBRANCH  12  15
ENDBRANCH   7  11
BRANCH   8  23
ATOM     23  C   UNL     1      -0.970  12.510  18.820  0.00  0.00    +0.000 C 
ATOM     24  O   UNL     1      -1.944  12.758  19.526  0.00  0.00    +0.000 OA
ATOM     25  N   UNL     1      -1.120  11.801  17.632  0.00  0.00    +0.000 N 
ATOM     26  H   UNL     1      -0.401  11.915  16.929  0.00  0.00    +0.000 HD
BRANCH  25  27
ATOM     27  C   UNL     1      -2.457  11.417  17.204  0.00  0.00    +0.000 C 
ATOM     28  C   UNL     1      -2.577  11.103  15.712  0.00  0.00    +0.000 C 
ATOM     29  C   UNL     1      -3.961  10.465  15.612  0.00  0.00    +0.000 C 
ATOM     30  C   UNL     1      -4.187   9.765  16.956  0.00  0.00    +0.000 C 
ATOM     31  C   UNL     1      -2.981  10.127  17.828  0.00  0.00    +0.000 C 
ENDBRANCH  25  27
ENDBRANCH   8  23
TORSDOF 5
ENDMDL
MODEL 9
REMARK VINA RESULT:      -6.7      3.102      4.852
REMARK  Name = 
REMARK  6 active torsions:
REMARK  status: ('A' for Active; 'I' for Inactive)
REMARK    1  A    between atoms: C_1  and  C_2
REMARK    2  A    between atoms: C_7  and  N_8
REMARK    3  A    between atoms: C_9  and  C_11
REMARK    4  A    between atoms: C_14  and  C_15
REMARK    5  A    between atoms: C_19  and  C_20
REMARK    6  A    between atoms: N_22  and  C_23
REMARK                            x       y       z     vdW  Elec       q    Type
REMARK                         _______ _______ _______ _____ _____    ______ ____
ROOT
ATOM      1  C   UNL     1      -4.585  16.556  23.673  0.00  0.00    +0.000 C 
ATOM      2  C   UNL     1      -3.531  15.504  23.504  0.00  0.00    +0.000 A 
ATOM      3  C   UNL     1      -2.520  15.353  24.544  0.00  0.00    +0.000 A 
ATOM      4  C   UNL     1      -1.539  14.437  24.443  0.00  0.00    +0.000 A 
ATOM      5  C   UNL     1      -1.469  13.594  23.300  0.00  0.00    +0.000 A 
ATOM      6  N   UNL     1      -0.597  12.674  22.974  0.00  0.00    +0.000 NA
ATOM      7  C   UNL     1      -1.027  12.150  21.792  0.00  0.00    +0.000 A 
ATOM      8  C   UNL     1      -2.173  12.792  21.333  0.00  0.00    +0.000 A 
ATOM      9  N   UNL     1      -2.454  13.730  22.329  0.00  0.00    +0.000 N 
ATOM     10  C   UNL     1      -3.474  14.687  22.432  0.00  0.00    +0.000 A 
ENDROOT
BRANCH   7  11
ATOM     11  N   UNL     1      -0.384  11.081  21.199  0.00  0.00    +0.000 N 
ATOM     12  C   UNL     1       0.523  11.204  20.152  0.00  0.00    +0.000 C 
ATOM     13  O   UNL     1       0.895  12.231  19.593  0.00  0.00    +0.000 OA
ATOM     14  H   UNL     1      -0.504  10.186  21.647  0.00  0.00    +0.000 HD
BRANCH  12  15
ATOM     15  C   UNL     1       1.121   9.917  19.678  0.00  0.00    +0.000 A 
ATOM     16  C   UNL     1       1.284   8.817  20.530  0.00  0.00    +0.000 A 
ATOM     17  C   UNL     1       1.868   7.637  20.055  0.00  0.00    +0.000 A 
ATOM     18  C   UNL     1       2.279   7.536  18.721  0.00  0.00    +0.000 A 
ATOM     19  C   UNL     1       2.080   8.617  17.854  0.00  0.00    +0.000 A 
ATOM     20  C   UNL     1       1.501   9.799  18.330  0.00  0.00    +0.000 A 
BRANCH  18  21
ATOM     21  C   UNL     1       2.899   6.330  18.248  0.00  0.00    +0.000 C 
ATOM     22  N   UNL     1       3.409   5.365  17.855  0.00  0.00    +0.000 NA
ENDBRANCH  18  21
ENDBRANCH  12  15
ENDBRANCH   7  11
BRANCH   8  23
ATOM     23  C   UNL     1      -3.009  12.585  20.176  0.00  0.00    +0.000 C 
ATOM     24  O   UNL     1      -2.559  12.214  19.095  0.00  0.00    +0.000 OA
ATOM     25  N   UNL     1      -4.375  12.805  20.335  0.00  0.00    +0.000 N 
ATOM     26  H   UNL     1      -4.745  12.765  21.276  0.00  0.00    +0.000 HD
BRANCH  25  27
ATOM     27  C   UNL     1      -5.268  12.525  19.221  0.00  0.00    +0.000 C 
ATOM     28  C   UNL     1      -5.987  11.178  19.311  0.00  0.00    +0.000 C 
ATOM     29  C   UNL     1      -7.039  11.282  18.210  0.00  0.00    +0.000 C 
ATOM     30  C   UNL     1      -7.393  12.771  18.122  0.00  0.00    +0.000 C 
ATOM     31  C   UNL     1      -6.445  13.487  19.088  0.00  0.00    +0.000 C 
ENDBRANCH  25  27
ENDBRANCH   8  23
TORSDOF 5
ENDMDL
