MODEL 1
REMARK VINA RESULT:      -9.5      0.000      0.000
REMARK  Name = 
REMARK  10 active torsions:
REMARK  status: ('A' for Active; 'I' for Inactive)
REMARK    1  A    between atoms: C_1  and  O_2
REMARK    2  A    between atoms: O_2  and  C_3
REMARK    3  A    between atoms: C_7  and  C_8
REMARK    4  A    between atoms: C_8  and  N_9
REMARK    5  A    between atoms: C_10  and  C_12
REMARK    6  A    between atoms: C_14  and  C_15
REMARK    7  A    between atoms: C_18  and  O_19
REMARK    8  A    between atoms: O_19  and  C_20
REMARK    9  A    between atoms: C_21  and  O_22
REMARK   10  A    between atoms: O_22  and  C_23
REMARK                            x       y       z     vdW  Elec       q    Type
REMARK                         _______ _______ _______ _____ _____    ______ ____
ROOT
ATOM      1  C   UNL     1       4.141   3.851  18.365  0.00  0.00    +0.000 A 
ATOM      2  C   UNL     1       3.381   4.325  17.323  0.00  0.00    +0.000 A 
ATOM      3  C   UNL     1       2.428   5.088  17.851  0.00  0.00    +0.000 A 
ATOM      4  N   UNL     1       1.492   4.271  18.288  0.00  0.00    +0.000 NA
ATOM      5  C   UNL     1       1.893   3.558  19.332  0.00  0.00    +0.000 A 
ATOM      6  C   UNL     1       0.855   3.389  20.245  0.00  0.00    +0.000 A 
ATOM      7  C   UNL     1       1.075   2.866  21.496  0.00  0.00    +0.000 A 
ATOM      8  C   UNL     1       2.357   2.423  21.777  0.00  0.00    +0.000 A 
ATOM      9  C   UNL     1       3.436   2.609  20.841  0.00  0.00    +0.000 A 
ATOM     10  C   UNL     1       3.290   3.271  19.539  0.00  0.00    +0.000 A 
ENDROOT
BRANCH   3  11
ATOM     11  C   UNL     1       2.585   6.239  18.853  0.00  0.00    +0.000 A 
ATOM     12  C   UNL     1       2.215   6.244  20.220  0.00  0.00    +0.000 A 
ATOM     13  C   UNL     1       1.570   7.358  20.777  0.00  0.00    +0.000 A 
ATOM     14  C   UNL     1       1.311   8.486  19.996  0.00  0.00    +0.000 A 
ATOM     15  C   UNL     1       1.811   8.533  18.686  0.00  0.00    +0.000 A 
ATOM     16  C   UNL     1       2.536   7.454  18.183  0.00  0.00    +0.000 A 
BRANCH  14  17
ATOM     17  O   UNL     1       0.516   9.417  20.611  0.00  0.00    +0.000 OA
ATOM     18  C   UNL     1       0.029   9.060  21.897  0.00  0.00    +0.000 C 
ENDBRANCH  14  17
BRANCH  15  19
ATOM     19  O   UNL     1       1.439   9.554  17.849  0.00  0.00    +0.000 OA
ATOM     20  C   UNL     1       2.252  10.722  17.909  0.00  0.00    +0.000 C 
ENDBRANCH  15  19
ENDBRANCH   3  11
BRANCH   1  22
ATOM     21  N   UNL     1       5.720   5.176  16.758  0.00  0.00    +0.000 N 
ATOM     22  C   UNL     1       5.578   4.479  18.064  0.00  0.00    +0.000 C 
ATOM     23  O   UNL     1       6.508   4.359  18.851  0.00  0.00    +0.000 OA
ATOM     24  H   UNL     1       4.888   5.300  16.198  0.00  0.00    +0.000 HD
BRANCH  21  25
ATOM     25  C   UNL     1       6.957   5.265  15.901  0.00  0.00    +0.000 C 
BRANCH  25  30
ATOM     26  C   UNL     1       5.973   3.516  12.510  0.00  0.00    +0.000 A 
ATOM     27  C   UNL     1       6.917   4.027  11.625  0.00  0.00    +0.000 A 
ATOM     28  C   UNL     1       7.848   4.956  12.083  0.00  0.00    +0.000 A 
ATOM     29  C   UNL     1       7.850   5.399  13.433  0.00  0.00    +0.000 A 
ATOM     30  C   UNL     1       6.908   4.927  14.366  0.00  0.00    +0.000 A 
ATOM     31  C   UNL     1       5.961   3.965  13.858  0.00  0.00    +0.000 A 
BRANCH  26  33
ATOM     32  C   UNL     1       4.048   3.010  11.141  0.00  0.00    +0.000 C 
ATOM     33  O   UNL     1       5.159   2.589  11.913  0.00  0.00    +0.000 OA
ENDBRANCH  26  33
ENDBRANCH  25  30
ENDBRANCH  21  25
ENDBRANCH   1  22
TORSDOF 7
ENDMDL
MODEL 2
REMARK VINA RESULT:      -8.5      2.462      8.665
REMARK  Name = 
REMARK  10 active torsions:
REMARK  status: ('A' for Active; 'I' for Inactive)
REMARK    1  A    between atoms: C_1  and  O_2
REMARK    2  A    between atoms: O_2  and  C_3
REMARK    3  A    between atoms: C_7  and  C_8
REMARK    4  A    between atoms: C_8  and  N_9
REMARK    5  A    between atoms: C_10  and  C_12
REMARK    6  A    between atoms: C_14  and  C_15
REMARK    7  A    between atoms: C_18  and  O_19
REMARK    8  A    between atoms: O_19  and  C_20
REMARK    9  A    between atoms: C_21  and  O_22
REMARK   10  A    between atoms: O_22  and  C_23
REMARK                            x       y       z     vdW  Elec       q    Type
REMARK                         _______ _______ _______ _____ _____    ______ ____
ROOT
ATOM      1  C   UNL     1       2.464   5.943  19.436  0.00  0.00    +0.000 A 
ATOM      2  C   UNL     1       3.701   6.053  20.024  0.00  0.00    +0.000 A 
ATOM      3  C   UNL     1       4.527   5.258  19.348  0.00  0.00    +0.000 A 
ATOM      4  N   UNL     1       4.318   4.036  19.792  0.00  0.00    +0.000 NA
ATOM      5  C   UNL     1       3.127   3.569  19.442  0.00  0.00    +0.000 A 
ATOM      6  C   UNL     1       3.196   2.212  19.137  0.00  0.00    +0.000 A 
ATOM      7  C   UNL     1       2.143   1.551  18.553  0.00  0.00    +0.000 A 
ATOM      8  C   UNL     1       0.973   2.268  18.369  0.00  0.00    +0.000 A 
ATOM      9  C   UNL     1       0.902   3.675  18.669  0.00  0.00    +0.000 A 
ATOM     10  C   UNL     1       2.029   4.465  19.180  0.00  0.00    +0.000 A 
ENDROOT
BRANCH   3  11
ATOM     11  C   UNL     1       4.753   5.200  17.831  0.00  0.00    +0.000 A 
ATOM     12  C   UNL     1       4.777   4.046  17.011  0.00  0.00    +0.000 A 
ATOM     13  C   UNL     1       5.754   3.904  16.015  0.00  0.00    +0.000 A 
ATOM     14  C   UNL     1       6.697   4.911  15.804  0.00  0.00    +0.000 A 
ATOM     15  C   UNL     1       6.578   6.112  16.519  0.00  0.00    +0.000 A 
ATOM     16  C   UNL     1       5.539   6.272  17.434  0.00  0.00    +0.000 A 
BRANCH  14  17
ATOM     17  O   UNL     1       7.699   4.562  14.936  0.00  0.00    +0.000 OA
ATOM     18  C   UNL     1       7.495   4.927  13.579  0.00  0.00    +0.000 C 
ENDBRANCH  14  17
BRANCH  15  19
ATOM     19  O   UNL     1       7.575   7.052  16.448  0.00  0.00    +0.000 OA
ATOM     20  C   UNL     1       7.760   7.838  17.620  0.00  0.00    +0.000 C 
ENDBRANCH  15  19
ENDBRANCH   3  11
BRANCH   1  22
ATOM     21  N   UNL     1       1.717   8.398  19.932  0.00  0.00    +0.000 N 
ATOM     22  C   UNL     1       2.192   7.427  18.911  0.00  0.00    +0.000 C 
ATOM     23  O   UNL     1       2.337   7.726  17.734  0.00  0.00    +0.000 OA
ATOM     24  H   UNL     1       1.696   8.096  20.895  0.00  0.00    +0.000 HD
BRANCH  21  25
ATOM     25  C   UNL     1       0.783   9.561  19.719  0.00  0.00    +0.000 C 
BRANCH  25  30
ATOM     26  C   UNL     1      -1.623  11.915  21.769  0.00  0.00    +0.000 A 
ATOM     27  C   UNL     1      -1.569  11.359  23.044  0.00  0.00    +0.000 A 
ATOM     28  C   UNL     1      -0.803  10.216  23.258  0.00  0.00    +0.000 A 
ATOM     29  C   UNL     1      -0.081   9.600  22.201  0.00  0.00    +0.000 A 
ATOM     30  C   UNL     1      -0.112  10.110  20.890  0.00  0.00    +0.000 A 
ATOM     31  C   UNL     1      -0.914  11.295  20.705  0.00  0.00    +0.000 A 
BRANCH  26  33
ATOM     32  C   UNL     1      -3.546  13.108  20.926  0.00  0.00    +0.000 C 
ATOM     33  O   UNL     1      -2.386  13.053  21.737  0.00  0.00    +0.000 OA
ENDBRANCH  26  33
ENDBRANCH  25  30
ENDBRANCH  21  25
ENDBRANCH   1  22
TORSDOF 7
ENDMDL
MODEL 3
REMARK VINA RESULT:      -8.2      2.351      7.371
REMARK  Name = 
REMARK  10 active torsions:
REMARK  status: ('A' for Active; 'I' for Inactive)
REMARK    1  A    between atoms: C_1  and  O_2
REMARK    2  A    between atoms: O_2  and  C_3
REMARK    3  A    between atoms: C_7  and  C_8
REMARK    4  A    between atoms: C_8  and  N_9
REMARK    5  A    between atoms: C_10  and  C_12
REMARK    6  A    between atoms: C_14  and  C_15
REMARK    7  A    between atoms: C_18  and  O_19
REMARK    8  A    between atoms: O_19  and  C_20
REMARK    9  A    between atoms: C_21  and  O_22
REMARK   10  A    between atoms: O_22  and  C_23
REMARK                            x       y       z     vdW  Elec       q    Type
REMARK                         _______ _______ _______ _____ _____    ______ ____
ROOT
ATOM      1  C   UNL     1       2.339   5.639  19.983  0.00  0.00    +0.000 A 
ATOM      2  C   UNL     1       3.654   5.687  20.380  0.00  0.00    +0.000 A 
ATOM      3  C   UNL     1       4.364   5.038  19.460  0.00  0.00    +0.000 A 
ATOM      4  N   UNL     1       4.231   3.754  19.721  0.00  0.00    +0.000 NA
ATOM      5  C   UNL     1       3.001   3.316  19.489  0.00  0.00    +0.000 A 
ATOM      6  C   UNL     1       3.025   2.031  18.955  0.00  0.00    +0.000 A 
ATOM      7  C   UNL     1       1.894   1.444  18.440  0.00  0.00    +0.000 A 
ATOM      8  C   UNL     1       0.708   2.147  18.564  0.00  0.00    +0.000 A 
ATOM      9  C   UNL     1       0.681   3.483  19.103  0.00  0.00    +0.000 A 
ATOM     10  C   UNL     1       1.873   4.211  19.555  0.00  0.00    +0.000 A 
ENDROOT
BRANCH   3  11
ATOM     11  C   UNL     1       4.345   5.237  17.939  0.00  0.00    +0.000 A 
ATOM     12  C   UNL     1       4.255   4.233  16.943  0.00  0.00    +0.000 A 
ATOM     13  C   UNL     1       5.063   4.296  15.798  0.00  0.00    +0.000 A 
ATOM     14  C   UNL     1       5.945   5.362  15.615  0.00  0.00    +0.000 A 
ATOM     15  C   UNL     1       5.924   6.425  16.530  0.00  0.00    +0.000 A 
ATOM     16  C   UNL     1       5.041   6.391  17.609  0.00  0.00    +0.000 A 
BRANCH  14  17
ATOM     17  O   UNL     1       6.800   5.200  14.556  0.00  0.00    +0.000 OA
ATOM     18  C   UNL     1       6.523   4.100  13.701  0.00  0.00    +0.000 C 
ENDBRANCH  14  17
BRANCH  15  19
ATOM     19  O   UNL     1       6.882   7.404  16.463  0.00  0.00    +0.000 OA
ATOM     20  C   UNL     1       7.638   7.604  17.653  0.00  0.00    +0.000 C 
ENDBRANCH  15  19
ENDBRANCH   3  11
BRANCH   1  22
ATOM     21  N   UNL     1       1.942   7.639  18.348  0.00  0.00    +0.000 N 
ATOM     22  C   UNL     1       1.983   7.180  19.762  0.00  0.00    +0.000 C 
ATOM     23  O   UNL     1       1.793   7.935  20.706  0.00  0.00    +0.000 OA
ATOM     24  H   UNL     1       2.034   6.942  17.625  0.00  0.00    +0.000 HD
BRANCH  21  25
ATOM     25  C   UNL     1       2.304   9.004  17.823  0.00  0.00    +0.000 C 
BRANCH  25  30
ATOM     26  C   UNL     1      -0.738  11.351  18.702  0.00  0.00    +0.000 A 
ATOM     27  C   UNL     1      -0.140  12.607  18.755  0.00  0.00    +0.000 A 
ATOM     28  C   UNL     1       1.233  12.718  18.551  0.00  0.00    +0.000 A 
ATOM     29  C   UNL     1       2.039  11.576  18.297  0.00  0.00    +0.000 A 
ATOM     30  C   UNL     1       1.489  10.281  18.248  0.00  0.00    +0.000 A 
ATOM     31  C   UNL     1       0.066  10.204  18.462  0.00  0.00    +0.000 A 
BRANCH  26  33
ATOM     32  C   UNL     1      -2.961  11.462  17.766  0.00  0.00    +0.000 C 
ATOM     33  O   UNL     1      -2.094  11.419  18.885  0.00  0.00    +0.000 OA
ENDBRANCH  26  33
ENDBRANCH  25  30
ENDBRANCH  21  25
ENDBRANCH   1  22
TORSDOF 7
ENDMDL
MODEL 4
REMARK VINA RESULT:      -8.1      2.248      7.468
REMARK  Name = 
REMARK  10 active torsions:
REMARK  status: ('A' for Active; 'I' for Inactive)
REMARK    1  A    between atoms: C_1  and  O_2
REMARK    2  A    between atoms: O_2  and  C_3
REMARK    3  A    between atoms: C_7  and  C_8
REMARK    4  A    between atoms: C_8  and  N_9
REMARK    5  A    between atoms: C_10  and  C_12
REMARK    6  A    between atoms: C_14  and  C_15
REMARK    7  A    between atoms: C_18  and  O_19
REMARK    8  A    between atoms: O_19  and  C_20
REMARK    9  A    between atoms: C_21  and  O_22
REMARK   10  A    between atoms: O_22  and  C_23
REMARK                            x       y       z     vdW  Elec       q    Type
REMARK                         _______ _______ _______ _____ _____    ______ ____
ROOT
ATOM      1  C   UNL     1       2.361   5.626  19.951  0.00  0.00    +0.000 A 
ATOM      2  C   UNL     1       3.671   5.663  20.368  0.00  0.00    +0.000 A 
ATOM      3  C   UNL     1       4.384   4.989  19.469  0.00  0.00    +0.000 A 
ATOM      4  N   UNL     1       4.230   3.712  19.750  0.00  0.00    +0.000 NA
ATOM      5  C   UNL     1       2.998   3.287  19.506  0.00  0.00    +0.000 A 
ATOM      6  C   UNL     1       3.011   1.992  18.994  0.00  0.00    +0.000 A 
ATOM      7  C   UNL     1       1.880   1.413  18.472  0.00  0.00    +0.000 A 
ATOM      8  C   UNL     1       0.702   2.135  18.566  0.00  0.00    +0.000 A 
ATOM      9  C   UNL     1       0.686   3.480  19.082  0.00  0.00    +0.000 A 
ATOM     10  C   UNL     1       1.881   4.198  19.540  0.00  0.00    +0.000 A 
ENDROOT
BRANCH   3  11
ATOM     11  C   UNL     1       4.392   5.162  17.945  0.00  0.00    +0.000 A 
ATOM     12  C   UNL     1       4.219   4.154  16.965  0.00  0.00    +0.000 A 
ATOM     13  C   UNL     1       5.035   4.125  15.825  0.00  0.00    +0.000 A 
ATOM     14  C   UNL     1       6.009   5.106  15.630  0.00  0.00    +0.000 A 
ATOM     15  C   UNL     1       6.076   6.182  16.527  0.00  0.00    +0.000 A 
ATOM     16  C   UNL     1       5.189   6.245  17.600  0.00  0.00    +0.000 A 
BRANCH  14  17
ATOM     17  O   UNL     1       6.852   4.850  14.580  0.00  0.00    +0.000 OA
ATOM     18  C   UNL     1       6.355   3.960  13.591  0.00  0.00    +0.000 C 
ENDBRANCH  14  17
BRANCH  15  19
ATOM     19  O   UNL     1       7.118   7.072  16.451  0.00  0.00    +0.000 OA
ATOM     20  C   UNL     1       7.656   7.494  17.699  0.00  0.00    +0.000 C 
ENDBRANCH  15  19
ENDBRANCH   3  11
BRANCH   1  22
ATOM     21  N   UNL     1       2.011   7.603  18.278  0.00  0.00    +0.000 N 
ATOM     22  C   UNL     1       2.031   7.169  19.700  0.00  0.00    +0.000 C 
ATOM     23  O   UNL     1       1.841   7.943  20.628  0.00  0.00    +0.000 OA
ATOM     24  H   UNL     1       2.101   6.892  17.567  0.00  0.00    +0.000 HD
BRANCH  21  25
ATOM     25  C   UNL     1       2.399   8.953  17.732  0.00  0.00    +0.000 C 
BRANCH  25  30
ATOM     26  C   UNL     1       1.500  12.699  18.566  0.00  0.00    +0.000 A 
ATOM     27  C   UNL     1       0.161  12.609  18.935  0.00  0.00    +0.000 A 
ATOM     28  C   UNL     1      -0.478  11.373  18.887  0.00  0.00    +0.000 A 
ATOM     29  C   UNL     1       0.204  10.202  18.463  0.00  0.00    +0.000 A 
ATOM     30  C   UNL     1       1.554  10.238  18.065  0.00  0.00    +0.000 A 
ATOM     31  C   UNL     1       2.184  11.533  18.128  0.00  0.00    +0.000 A 
BRANCH  26  33
ATOM     32  C   UNL     1       3.385  14.203  18.692  0.00  0.00    +0.000 C 
ATOM     33  O   UNL     1       1.987  13.972  18.706  0.00  0.00    +0.000 OA
ENDBRANCH  26  33
ENDBRANCH  25  30
ENDBRANCH  21  25
ENDBRANCH   1  22
TORSDOF 7
ENDMDL
MODEL 5
REMARK VINA RESULT:      -8.1      2.541      8.653
REMARK  Name = 
REMARK  10 active torsions:
REMARK  status: ('A' for Active; 'I' for Inactive)
REMARK    1  A    between atoms: C_1  and  O_2
REMARK    2  A    between atoms: O_2  and  C_3
REMARK    3  A    between atoms: C_7  and  C_8
REMARK    4  A    between atoms: C_8  and  N_9
REMARK    5  A    between atoms: C_10  and  C_12
REMARK    6  A    between atoms: C_14  and  C_15
REMARK    7  A    between atoms: C_18  and  O_19
REMARK    8  A    between atoms: O_19  and  C_20
REMARK    9  A    between atoms: C_21  and  O_22
REMARK   10  A    between atoms: O_22  and  C_23
REMARK                            x       y       z     vdW  Elec       q    Type
REMARK                         _______ _______ _______ _____ _____    ______ ____
ROOT
ATOM      1  C   UNL     1       2.473   6.051  19.409  0.00  0.00    +0.000 A 
ATOM      2  C   UNL     1       3.707   6.161  20.005  0.00  0.00    +0.000 A 
ATOM      3  C   UNL     1       4.535   5.360  19.338  0.00  0.00    +0.000 A 
ATOM      4  N   UNL     1       4.319   4.141  19.788  0.00  0.00    +0.000 NA
ATOM      5  C   UNL     1       3.129   3.675  19.433  0.00  0.00    +0.000 A 
ATOM      6  C   UNL     1       3.196   2.317  19.136  0.00  0.00    +0.000 A 
ATOM      7  C   UNL     1       2.145   1.655  18.548  0.00  0.00    +0.000 A 
ATOM      8  C   UNL     1       0.978   2.376  18.353  0.00  0.00    +0.000 A 
ATOM      9  C   UNL     1       0.909   3.784  18.645  0.00  0.00    +0.000 A 
ATOM     10  C   UNL     1       2.036   4.574  19.159  0.00  0.00    +0.000 A 
ENDROOT
BRANCH   3  11
ATOM     11  C   UNL     1       4.770   5.293  17.824  0.00  0.00    +0.000 A 
ATOM     12  C   UNL     1       4.783   4.135  17.007  0.00  0.00    +0.000 A 
ATOM     13  C   UNL     1       5.765   3.975  16.019  0.00  0.00    +0.000 A 
ATOM     14  C   UNL     1       6.724   4.968  15.811  0.00  0.00    +0.000 A 
ATOM     15  C   UNL     1       6.618   6.173  16.520  0.00  0.00    +0.000 A 
ATOM     16  C   UNL     1       5.575   6.352  17.427  0.00  0.00    +0.000 A 
BRANCH  14  17
ATOM     17  O   UNL     1       7.726   4.599  14.950  0.00  0.00    +0.000 OA
ATOM     18  C   UNL     1       7.493   4.875  13.577  0.00  0.00    +0.000 C 
ENDBRANCH  14  17
BRANCH  15  19
ATOM     19  O   UNL     1       7.629   7.098  16.452  0.00  0.00    +0.000 OA
ATOM     20  C   UNL     1       7.754   7.952  17.584  0.00  0.00    +0.000 C 
ENDBRANCH  15  19
ENDBRANCH   3  11
BRANCH   1  22
ATOM     21  N   UNL     1       1.564   8.464  19.838  0.00  0.00    +0.000 N 
ATOM     22  C   UNL     1       2.210   7.533  18.875  0.00  0.00    +0.000 C 
ATOM     23  O   UNL     1       2.494   7.861  17.731  0.00  0.00    +0.000 OA
ATOM     24  H   UNL     1       1.430   8.142  20.786  0.00  0.00    +0.000 HD
BRANCH  21  25
ATOM     25  C   UNL     1       0.616   9.592  19.520  0.00  0.00    +0.000 C 
BRANCH  25  30
ATOM     26  C   UNL     1      -1.139  11.508  22.483  0.00  0.00    +0.000 A 
ATOM     27  C   UNL     1      -0.569  12.775  22.399  0.00  0.00    +0.000 A 
ATOM     28  C   UNL     1       0.400  13.023  21.430  0.00  0.00    +0.000 A 
ATOM     29  C   UNL     1       0.826  12.010  20.531  0.00  0.00    +0.000 A 
ATOM     30  C   UNL     1       0.295  10.707  20.582  0.00  0.00    +0.000 A 
ATOM     31  C   UNL     1      -0.707  10.486  21.595  0.00  0.00    +0.000 A 
BRANCH  26  33
ATOM     32  C   UNL     1      -3.208  12.320  23.427  0.00  0.00    +0.000 C 
ATOM     33  O   UNL     1      -2.098  11.441  23.459  0.00  0.00    +0.000 OA
ENDBRANCH  26  33
ENDBRANCH  25  30
ENDBRANCH  21  25
ENDBRANCH   1  22
TORSDOF 7
ENDMDL
MODEL 6
REMARK VINA RESULT:      -7.9      2.531      8.104
REMARK  Name = 
REMARK  10 active torsions:
REMARK  status: ('A' for Active; 'I' for Inactive)
REMARK    1  A    between atoms: C_1  and  O_2
REMARK    2  A    between atoms: O_2  and  C_3
REMARK    3  A    between atoms: C_7  and  C_8
REMARK    4  A    between atoms: C_8  and  N_9
REMARK    5  A    between atoms: C_10  and  C_12
REMARK    6  A    between atoms: C_14  and  C_15
REMARK    7  A    between atoms: C_18  and  O_19
REMARK    8  A    between atoms: O_19  and  C_20
REMARK    9  A    between atoms: C_21  and  O_22
REMARK   10  A    between atoms: O_22  and  C_23
REMARK                            x       y       z     vdW  Elec       q    Type
REMARK                         _______ _______ _______ _____ _____    ______ ____
ROOT
ATOM      1  C   UNL     1       2.377   5.890  19.699  0.00  0.00    +0.000 A 
ATOM      2  C   UNL     1       3.658   5.962  20.194  0.00  0.00    +0.000 A 
ATOM      3  C   UNL     1       4.420   5.199  19.414  0.00  0.00    +0.000 A 
ATOM      4  N   UNL     1       4.234   3.957  19.810  0.00  0.00    +0.000 NA
ATOM      5  C   UNL     1       3.016   3.515  19.529  0.00  0.00    +0.000 A 
ATOM      6  C   UNL     1       3.048   2.177  19.149  0.00  0.00    +0.000 A 
ATOM      7  C   UNL     1       1.946   1.553  18.615  0.00  0.00    +0.000 A 
ATOM      8  C   UNL     1       0.772   2.286  18.560  0.00  0.00    +0.000 A 
ATOM      9  C   UNL     1       0.739   3.675  18.939  0.00  0.00    +0.000 A 
ATOM     10  C   UNL     1       1.909   4.431  19.401  0.00  0.00    +0.000 A 
ENDROOT
BRANCH   3  11
ATOM     11  C   UNL     1       4.527   5.220  17.884  0.00  0.00    +0.000 A 
ATOM     12  C   UNL     1       4.344   4.132  16.996  0.00  0.00    +0.000 A 
ATOM     13  C   UNL     1       5.222   3.942  15.918  0.00  0.00    +0.000 A 
ATOM     14  C   UNL     1       6.268   4.838  15.694  0.00  0.00    +0.000 A 
ATOM     15  C   UNL     1       6.355   5.991  16.487  0.00  0.00    +0.000 A 
ATOM     16  C   UNL     1       5.413   6.213  17.490  0.00  0.00    +0.000 A 
BRANCH  14  17
ATOM     17  O   UNL     1       7.151   4.429  14.728  0.00  0.00    +0.000 OA
ATOM     18  C   UNL     1       6.574   4.010  13.500  0.00  0.00    +0.000 C 
ENDBRANCH  14  17
BRANCH  15  19
ATOM     19  O   UNL     1       7.457   6.804  16.393  0.00  0.00    +0.000 OA
ATOM     20  C   UNL     1       7.672   7.674  17.499  0.00  0.00    +0.000 C 
ENDBRANCH  15  19
ENDBRANCH   3  11
BRANCH   1  22
ATOM     21  N   UNL     1       1.527   8.277  20.343  0.00  0.00    +0.000 N 
ATOM     22  C   UNL     1       2.080   7.402  19.276  0.00  0.00    +0.000 C 
ATOM     23  O   UNL     1       2.267   7.795  18.132  0.00  0.00    +0.000 OA
ATOM     24  H   UNL     1       1.473   7.901  21.279  0.00  0.00    +0.000 HD
BRANCH  21  25
ATOM     25  C   UNL     1       0.565   9.424  20.174  0.00  0.00    +0.000 C 
BRANCH  25  30
ATOM     26  C   UNL     1       1.155  13.305  20.525  0.00  0.00    +0.000 A 
ATOM     27  C   UNL     1       1.735  13.631  19.303  0.00  0.00    +0.000 A 
ATOM     28  C   UNL     1       1.979  12.622  18.374  0.00  0.00    +0.000 A 
ATOM     29  C   UNL     1       1.655  11.267  18.649  0.00  0.00    +0.000 A 
ATOM     30  C   UNL     1       1.081  10.880  19.874  0.00  0.00    +0.000 A 
ATOM     31  C   UNL     1       0.841  11.949  20.811  0.00  0.00    +0.000 A 
BRANCH  26  33
ATOM     32  C   UNL     1      -0.050  14.395  22.312  0.00  0.00    +0.000 C 
ATOM     33  O   UNL     1       0.948  14.412  21.306  0.00  0.00    +0.000 OA
ENDBRANCH  26  33
ENDBRANCH  25  30
ENDBRANCH  21  25
ENDBRANCH   1  22
TORSDOF 7
ENDMDL
MODEL 7
REMARK VINA RESULT:      -7.9      2.397      7.649
REMARK  Name = 
REMARK  10 active torsions:
REMARK  status: ('A' for Active; 'I' for Inactive)
REMARK    1  A    between atoms: C_1  and  O_2
REMARK    2  A    between atoms: O_2  and  C_3
REMARK    3  A    between atoms: C_7  and  C_8
REMARK    4  A    between atoms: C_8  and  N_9
REMARK    5  A    between atoms: C_10  and  C_12
REMARK    6  A    between atoms: C_14  and  C_15
REMARK    7  A    between atoms: C_18  and  O_19
REMARK    8  A    between atoms: O_19  and  C_20
REMARK    9  A    between atoms: C_21  and  O_22
REMARK   10  A    between atoms: O_22  and  C_23
REMARK                            x       y       z     vdW  Elec       q    Type
REMARK                         _______ _______ _______ _____ _____    ______ ____
ROOT
ATOM      1  C   UNL     1       2.244   5.622  20.161  0.00  0.00    +0.000 A 
ATOM      2  C   UNL     1       3.569   5.660  20.525  0.00  0.00    +0.000 A 
ATOM      3  C   UNL     1       4.255   5.044  19.566  0.00  0.00    +0.000 A 
ATOM      4  N   UNL     1       4.132   3.752  19.788  0.00  0.00    +0.000 NA
ATOM      5  C   UNL     1       2.896   3.319  19.572  0.00  0.00    +0.000 A 
ATOM      6  C   UNL     1       2.908   2.052  18.995  0.00  0.00    +0.000 A 
ATOM      7  C   UNL     1       1.765   1.480  18.491  0.00  0.00    +0.000 A 
ATOM      8  C   UNL     1       0.581   2.177  18.669  0.00  0.00    +0.000 A 
ATOM      9  C   UNL     1       0.567   3.493  19.252  0.00  0.00    +0.000 A 
ATOM     10  C   UNL     1       1.769   4.209  19.698  0.00  0.00    +0.000 A 
ENDROOT
BRANCH   3  11
ATOM     11  C   UNL     1       4.197   5.294  18.053  0.00  0.00    +0.000 A 
ATOM     12  C   UNL     1       4.131   4.322  17.025  0.00  0.00    +0.000 A 
ATOM     13  C   UNL     1       4.912   4.459  15.868  0.00  0.00    +0.000 A 
ATOM     14  C   UNL     1       5.742   5.569  15.706  0.00  0.00    +0.000 A 
ATOM     15  C   UNL     1       5.693   6.598  16.657  0.00  0.00    +0.000 A 
ATOM     16  C   UNL     1       4.836   6.488  17.751  0.00  0.00    +0.000 A 
BRANCH  14  17
ATOM     17  O   UNL     1       6.582   5.481  14.625  0.00  0.00    +0.000 OA
ATOM     18  C   UNL     1       6.539   4.256  13.908  0.00  0.00    +0.000 C 
ENDBRANCH  14  17
BRANCH  15  19
ATOM     19  O   UNL     1       6.607   7.620  16.607  0.00  0.00    +0.000 OA
ATOM     20  C   UNL     1       7.647   7.560  17.576  0.00  0.00    +0.000 C 
ENDBRANCH  15  19
ENDBRANCH   3  11
BRANCH   1  22
ATOM     21  N   UNL     1       1.621   7.907  21.267  0.00  0.00    +0.000 N 
ATOM     22  C   UNL     1       1.880   7.169  20.002  0.00  0.00    +0.000 C 
ATOM     23  O   UNL     1       1.790   7.696  18.901  0.00  0.00    +0.000 OA
ATOM     24  H   UNL     1       1.790   7.424  22.136  0.00  0.00    +0.000 HD
BRANCH  21  25
ATOM     25  C   UNL     1       0.668   9.057  21.472  0.00  0.00    +0.000 C 
BRANCH  25  30
ATOM     26  C   UNL     1       0.960  12.325  19.289  0.00  0.00    +0.000 A 
ATOM     27  C   UNL     1      -0.154  12.231  18.461  0.00  0.00    +0.000 A 
ATOM     28  C   UNL     1      -0.985  11.118  18.559  0.00  0.00    +0.000 A 
ATOM     29  C   UNL     1      -0.716  10.072  19.482  0.00  0.00    +0.000 A 
ATOM     30  C   UNL     1       0.405  10.108  20.332  0.00  0.00    +0.000 A 
ATOM     31  C   UNL     1       1.242  11.275  20.204  0.00  0.00    +0.000 A 
BRANCH  26  33
ATOM     32  C   UNL     1       2.844  13.497  18.335  0.00  0.00    +0.000 C 
ATOM     33  O   UNL     1       1.648  13.494  19.094  0.00  0.00    +0.000 OA
ENDBRANCH  26  33
ENDBRANCH  25  30
ENDBRANCH  21  25
ENDBRANCH   1  22
TORSDOF 7
ENDMDL
MODEL 8
REMARK VINA RESULT:      -7.9      2.490      7.888
REMARK  Name = 
REMARK  10 active torsions:
REMARK  status: ('A' for Active; 'I' for Inactive)
REMARK    1  A    between atoms: C_1  and  O_2
REMARK    2  A    between atoms: O_2  and  C_3
REMARK    3  A    between atoms: C_7  and  C_8
REMARK    4  A    between atoms: C_8  and  N_9
REMARK    5  A    between atoms: C_10  and  C_12
REMARK    6  A    between atoms: C_14  and  C_15
REMARK    7  A    between atoms: C_18  and  O_19
REMARK    8  A    between atoms: O_19  and  C_20
REMARK    9  A    between atoms: C_21  and  O_22
REMARK   10  A    between atoms: O_22  and  C_23
REMARK                            x       y       z     vdW  Elec       q    Type
REMARK                         _______ _______ _______ _____ _____    ______ ____
ROOT
ATOM      1  C   UNL     1       2.370   6.022  19.529  0.00  0.00    +0.000 A 
ATOM      2  C   UNL     1       3.612   6.183  20.097  0.00  0.00    +0.000 A 
ATOM      3  C   UNL     1       4.466   5.454  19.382  0.00  0.00    +0.000 A 
ATOM      4  N   UNL     1       4.332   4.210  19.793  0.00  0.00    +0.000 NA
ATOM      5  C   UNL     1       3.162   3.688  19.451  0.00  0.00    +0.000 A 
ATOM      6  C   UNL     1       3.298   2.347  19.105  0.00  0.00    +0.000 A 
ATOM      7  C   UNL     1       2.271   1.646  18.521  0.00  0.00    +0.000 A 
ATOM      8  C   UNL     1       1.060   2.303  18.380  0.00  0.00    +0.000 A 
ATOM      9  C   UNL     1       0.919   3.695  18.724  0.00  0.00    +0.000 A 
ATOM     10  C   UNL     1       2.012   4.531  19.237  0.00  0.00    +0.000 A 
ENDROOT
BRANCH   3  11
ATOM     11  C   UNL     1       4.663   5.452  17.860  0.00  0.00    +0.000 A 
ATOM     12  C   UNL     1       4.540   4.350  16.980  0.00  0.00    +0.000 A 
ATOM     13  C   UNL     1       5.481   4.149  15.959  0.00  0.00    +0.000 A 
ATOM     14  C   UNL     1       6.534   5.048  15.784  0.00  0.00    +0.000 A 
ATOM     15  C   UNL     1       6.567   6.214  16.562  0.00  0.00    +0.000 A 
ATOM     16  C   UNL     1       5.566   6.445  17.504  0.00  0.00    +0.000 A 
BRANCH  14  17
ATOM     17  O   UNL     1       7.475   4.631  14.879  0.00  0.00    +0.000 OA
ATOM     18  C   UNL     1       6.993   4.337  13.576  0.00  0.00    +0.000 C 
ENDBRANCH  14  17
BRANCH  15  19
ATOM     19  O   UNL     1       7.667   7.033  16.522  0.00  0.00    +0.000 OA
ATOM     20  C   UNL     1       7.740   8.012  17.552  0.00  0.00    +0.000 C 
ENDBRANCH  15  19
ENDBRANCH   3  11
BRANCH   1  22
ATOM     21  N   UNL     1       1.428   8.393  20.095  0.00  0.00    +0.000 N 
ATOM     22  C   UNL     1       2.008   7.503  19.054  0.00  0.00    +0.000 C 
ATOM     23  O   UNL     1       2.170   7.862  17.896  0.00  0.00    +0.000 OA
ATOM     24  H   UNL     1       1.397   8.050  21.044  0.00  0.00    +0.000 HD
BRANCH  21  25
ATOM     25  C   UNL     1       0.419   9.494  19.894  0.00  0.00    +0.000 C 
BRANCH  25  30
ATOM     26  C   UNL     1       2.229  12.856  18.918  0.00  0.00    +0.000 A 
ATOM     27  C   UNL     1       1.926  13.682  19.996  0.00  0.00    +0.000 A 
ATOM     28  C   UNL     1       1.117  13.196  21.021  0.00  0.00    +0.000 A 
ATOM     29  C   UNL     1       0.588  11.878  20.986  0.00  0.00    +0.000 A 
ATOM     30  C   UNL     1       0.850  11.006  19.913  0.00  0.00    +0.000 A 
ATOM     31  C   UNL     1       1.692  11.541  18.872  0.00  0.00    +0.000 A 
BRANCH  26  33
ATOM     32  C   UNL     1       3.130  14.882  17.963  0.00  0.00    +0.000 C 
ATOM     33  O   UNL     1       3.063  13.469  18.020  0.00  0.00    +0.000 OA
ENDBRANCH  26  33
ENDBRANCH  25  30
ENDBRANCH  21  25
ENDBRANCH   1  22
TORSDOF 7
ENDMDL
MODEL 9
REMARK VINA RESULT:      -7.9      3.558      7.043
REMARK  Name = 
REMARK  10 active torsions:
REMARK  status: ('A' for Active; 'I' for Inactive)
REMARK    1  A    between atoms: C_1  and  O_2
REMARK    2  A    between atoms: O_2  and  C_3
REMARK    3  A    between atoms: C_7  and  C_8
REMARK    4  A    between atoms: C_8  and  N_9
REMARK    5  A    between atoms: C_10  and  C_12
REMARK    6  A    between atoms: C_14  and  C_15
REMARK    7  A    between atoms: C_18  and  O_19
REMARK    8  A    between atoms: O_19  and  C_20
REMARK    9  A    between atoms: C_21  and  O_22
REMARK   10  A    between atoms: O_22  and  C_23
REMARK                            x       y       z     vdW  Elec       q    Type
REMARK                         _______ _______ _______ _____ _____    ______ ____
ROOT
ATOM      1  C   UNL     1       0.409   9.911  18.988  0.00  0.00    +0.000 A 
ATOM      2  C   UNL     1      -0.081  10.951  18.234  0.00  0.00    +0.000 A 
ATOM      3  C   UNL     1       0.064  12.059  18.957  0.00  0.00    +0.000 A 
ATOM      4  N   UNL     1      -0.937  12.081  19.813  0.00  0.00    +0.000 NA
ATOM      5  C   UNL     1      -0.836  11.130  20.733  0.00  0.00    +0.000 A 
ATOM      6  C   UNL     1      -1.272  11.590  21.972  0.00  0.00    +0.000 A 
ATOM      7  C   UNL     1      -1.074  10.862  23.120  0.00  0.00    +0.000 A 
ATOM      8  C   UNL     1      -0.508   9.605  22.979  0.00  0.00    +0.000 A 
ATOM      9  C   UNL     1      -0.043   9.132  21.701  0.00  0.00    +0.000 A 
ATOM     10  C   UNL     1      -0.114   9.913  20.459  0.00  0.00    +0.000 A 
ENDROOT
BRANCH   3  11
ATOM     11  C   UNL     1       1.327  12.570  19.661  0.00  0.00    +0.000 A 
ATOM     12  C   UNL     1       1.423  13.111  20.967  0.00  0.00    +0.000 A 
ATOM     13  C   UNL     1       2.205  14.251  21.206  0.00  0.00    +0.000 A 
ATOM     14  C   UNL     1       2.919  14.848  20.165  0.00  0.00    +0.000 A 
ATOM     15  C   UNL     1       2.937  14.223  18.910  0.00  0.00    +0.000 A 
ATOM     16  C   UNL     1       2.233  13.035  18.718  0.00  0.00    +0.000 A 
BRANCH  14  17
ATOM     17  O   UNL     1       3.483  16.052  20.499  0.00  0.00    +0.000 OA
ATOM     18  C   UNL     1       4.659  15.984  21.293  0.00  0.00    +0.000 C 
ENDBRANCH  14  17
BRANCH  15  19
ATOM     19  O   UNL     1       3.497  14.865  17.835  0.00  0.00    +0.000 OA
ATOM     20  C   UNL     1       4.916  14.799  17.752  0.00  0.00    +0.000 C 
ENDBRANCH  15  19
ENDBRANCH   3  11
BRANCH   1  22
ATOM     21  N   UNL     1       1.851   7.912  18.120  0.00  0.00    +0.000 N 
ATOM     22  C   UNL     1       1.629   9.382  18.103  0.00  0.00    +0.000 C 
ATOM     23  O   UNL     1       2.350  10.151  17.482  0.00  0.00    +0.000 OA
ATOM     24  H   UNL     1       1.168   7.338  18.593  0.00  0.00    +0.000 HD
BRANCH  21  25
ATOM     25  C   UNL     1       3.167   7.187  18.004  0.00  0.00    +0.000 C 
BRANCH  25  30
ATOM     26  C   UNL     1       2.440   3.376  18.694  0.00  0.00    +0.000 A 
ATOM     27  C   UNL     1       3.429   2.743  17.946  0.00  0.00    +0.000 A 
ATOM     28  C   UNL     1       4.309   3.513  17.189  0.00  0.00    +0.000 A 
ATOM     29  C   UNL     1       4.214   4.930  17.157  0.00  0.00    +0.000 A 
ATOM     30  C   UNL     1       3.225   5.620  17.882  0.00  0.00    +0.000 A 
ATOM     31  C   UNL     1       2.333   4.792  18.655  0.00  0.00    +0.000 A 
BRANCH  26  33
ATOM     32  C   UNL     1       1.465   2.686  20.792  0.00  0.00    +0.000 C 
ATOM     33  O   UNL     1       1.686   2.482  19.408  0.00  0.00    +0.000 OA
ENDBRANCH  26  33
ENDBRANCH  25  30
ENDBRANCH  21  25
ENDBRANCH   1  22
TORSDOF 7
ENDMDL
