MODEL 1
REMARK VINA RESULT:      -8.0      0.000      0.000
REMARK  Name = 
REMARK  8 active torsions:
REMARK  status: ('A' for Active; 'I' for Inactive)
REMARK    1  A    between atoms: C_1  and  C_2
REMARK    2  A    between atoms: C_2  and  C_3
REMARK    3  A    between atoms: C_3  and  C_4
REMARK    4  A    between atoms: C_4  and  N_5
REMARK    5  A    between atoms: C_6  and  C_7
REMARK    6  A    between atoms: C_10  and  O_11
REMARK    7  A    between atoms: C_12  and  C_13
REMARK    8  A    between atoms: C_13  and  O_15
REMARK                            x       y       z     vdW  Elec       q    Type
REMARK                         _______ _______ _______ _____ _____    ______ ____
ROOT
ATOM      1  N   UNL     1       2.210   6.671  19.829  0.00  0.00    +0.000 N 
ATOM      2  C   UNL     1       2.840   6.754  18.585  0.00  0.00    +0.000 A 
ATOM      3  C   UNL     1       2.607   8.041  18.120  0.00  0.00    +0.000 A 
ATOM      4  C   UNL     1       1.769   8.712  19.032  0.00  0.00    +0.000 A 
ATOM      5  C   UNL     1       1.556   7.861  20.087  0.00  0.00    +0.000 A 
ATOM      6  C   UNL     1       0.749   8.156  21.296  0.00  0.00    +0.000 C 
ATOM      7  C   UNL     1       0.105   9.548  21.283  0.00  0.00    +0.000 C 
ATOM      8  C   UNL     1       0.315  10.494  20.089  0.00  0.00    +0.000 C 
ATOM      9  C   UNL     1       1.189  10.063  18.909  0.00  0.00    +0.000 C 
ENDROOT
BRANCH   2  10
ATOM     10  C   UNL     1       3.608   5.696  17.907  0.00  0.00    +0.000 A 
ATOM     11  C   UNL     1       2.970   4.550  17.412  0.00  0.00    +0.000 A 
ATOM     12  C   UNL     1       3.701   3.543  16.768  0.00  0.00    +0.000 A 
ATOM     13  C   UNL     1       5.070   3.706  16.560  0.00  0.00    +0.000 A 
ATOM     14  C   UNL     1       5.725   4.850  17.022  0.00  0.00    +0.000 A 
ATOM     15  C   UNL     1       4.994   5.790  17.754  0.00  0.00    +0.000 A 
BRANCH  13  16
ATOM     16  O   UNL     1       5.778   2.730  15.909  0.00  0.00    +0.000 OA
ATOM     17  H   UNL     1       5.267   2.457  15.122  0.00  0.00    +0.000 HD
ENDBRANCH  13  16
BRANCH  14  18
ATOM     18  C   UNL     1       7.161   5.188  16.773  0.00  0.00    +0.000 C 
ATOM     19  O   UNL     1       7.514   6.246  16.285  0.00  0.00    +0.000 OA
BRANCH  18  20
ATOM     20  O   UNL     1       8.031   4.206  17.087  0.00  0.00    +0.000 OA
ATOM     21  H   UNL     1       7.687   3.315  16.860  0.00  0.00    +0.000 HD
ENDBRANCH  18  20
ENDBRANCH  14  18
ENDBRANCH   2  10
BRANCH   1  22
ATOM     22  C   UNL     1       2.223   5.538  20.751  0.00  0.00    +0.000 C 
BRANCH  22  23
ATOM     23  C   UNL     1       1.092   4.533  20.553  0.00  0.00    +0.000 C 
BRANCH  23  25
ATOM     24  C   UNL     1       3.022   2.960  20.750  0.00  0.00    +0.000 C 
ATOM     25  C   UNL     1       1.511   3.102  20.869  0.00  0.00    +0.000 C 
ENDBRANCH  23  25
ENDBRANCH  22  23
ENDBRANCH   1  22
TORSDOF 7
ENDMDL
MODEL 2
REMARK VINA RESULT:      -7.5      1.258      2.333
REMARK  Name = 
REMARK  8 active torsions:
REMARK  status: ('A' for Active; 'I' for Inactive)
REMARK    1  A    between atoms: C_1  and  C_2
REMARK    2  A    between atoms: C_2  and  C_3
REMARK    3  A    between atoms: C_3  and  C_4
REMARK    4  A    between atoms: C_4  and  N_5
REMARK    5  A    between atoms: C_6  and  C_7
REMARK    6  A    between atoms: C_10  and  O_11
REMARK    7  A    between atoms: C_12  and  C_13
REMARK    8  A    between atoms: C_13  and  O_15
REMARK                            x       y       z     vdW  Elec       q    Type
REMARK                         _______ _______ _______ _____ _____    ______ ____
ROOT
ATOM      1  N   UNL     1       2.114   7.374  19.712  0.00  0.00    +0.000 N 
ATOM      2  C   UNL     1       2.618   7.351  18.410  0.00  0.00    +0.000 A 
ATOM      3  C   UNL     1       2.208   8.536  17.816  0.00  0.00    +0.000 A 
ATOM      4  C   UNL     1       1.387   9.240  18.719  0.00  0.00    +0.000 A 
ATOM      5  C   UNL     1       1.360   8.520  19.886  0.00  0.00    +0.000 A 
ATOM      6  C   UNL     1       0.636   8.896  21.126  0.00  0.00    +0.000 C 
ATOM      7  C   UNL     1      -0.152  10.205  21.007  0.00  0.00    +0.000 C 
ATOM      8  C   UNL     1      -0.151  11.001  19.690  0.00  0.00    +0.000 C 
ATOM      9  C   UNL     1       0.657  10.502  18.490  0.00  0.00    +0.000 C 
ENDROOT
BRANCH   2  10
ATOM     10  C   UNL     1       3.432   6.291  17.793  0.00  0.00    +0.000 A 
ATOM     11  C   UNL     1       4.656   6.591  17.177  0.00  0.00    +0.000 A 
ATOM     12  C   UNL     1       5.430   5.583  16.588  0.00  0.00    +0.000 A 
ATOM     13  C   UNL     1       5.013   4.254  16.667  0.00  0.00    +0.000 A 
ATOM     14  C   UNL     1       3.809   3.926  17.296  0.00  0.00    +0.000 A 
ATOM     15  C   UNL     1       3.005   4.960  17.781  0.00  0.00    +0.000 A 
BRANCH  13  16
ATOM     16  O   UNL     1       5.783   3.267  16.110  0.00  0.00    +0.000 OA
ATOM     17  H   UNL     1       5.196   2.667  15.612  0.00  0.00    +0.000 HD
ENDBRANCH  13  16
BRANCH  14  18
ATOM     18  C   UNL     1       3.305   2.538  17.533  0.00  0.00    +0.000 C 
ATOM     19  O   UNL     1       2.141   2.222  17.366  0.00  0.00    +0.000 OA
BRANCH  18  20
ATOM     20  O   UNL     1       4.234   1.674  17.994  0.00  0.00    +0.000 OA
ATOM     21  H   UNL     1       4.842   1.368  17.286  0.00  0.00    +0.000 HD
ENDBRANCH  18  20
ENDBRANCH  14  18
ENDBRANCH   2  10
BRANCH   1  22
ATOM     22  C   UNL     1       2.329   6.381  20.760  0.00  0.00    +0.000 C 
BRANCH  22  23
ATOM     23  C   UNL     1       1.406   5.167  20.698  0.00  0.00    +0.000 C 
BRANCH  23  25
ATOM     24  C   UNL     1       1.311   2.673  20.775  0.00  0.00    +0.000 C 
ATOM     25  C   UNL     1       2.045   3.909  21.275  0.00  0.00    +0.000 C 
ENDBRANCH  23  25
ENDBRANCH  22  23
ENDBRANCH   1  22
TORSDOF 7
ENDMDL
MODEL 3
REMARK VINA RESULT:      -7.3      2.241      4.999
REMARK  Name = 
REMARK  8 active torsions:
REMARK  status: ('A' for Active; 'I' for Inactive)
REMARK    1  A    between atoms: C_1  and  C_2
REMARK    2  A    between atoms: C_2  and  C_3
REMARK    3  A    between atoms: C_3  and  C_4
REMARK    4  A    between atoms: C_4  and  N_5
REMARK    5  A    between atoms: C_6  and  C_7
REMARK    6  A    between atoms: C_10  and  O_11
REMARK    7  A    between atoms: C_12  and  C_13
REMARK    8  A    between atoms: C_13  and  O_15
REMARK                            x       y       z     vdW  Elec       q    Type
REMARK                         _______ _______ _______ _____ _____    ______ ____
ROOT
ATOM      1  N   UNL     1       3.869   4.992  18.119  0.00  0.00    +0.000 N 
ATOM      2  C   UNL     1       4.267   4.108  17.114  0.00  0.00    +0.000 A 
ATOM      3  C   UNL     1       3.558   2.935  17.328  0.00  0.00    +0.000 A 
ATOM      4  C   UNL     1       2.797   3.070  18.506  0.00  0.00    +0.000 A 
ATOM      5  C   UNL     1       2.985   4.349  18.965  0.00  0.00    +0.000 A 
ATOM      6  C   UNL     1       2.357   4.944  20.170  0.00  0.00    +0.000 C 
ATOM      7  C   UNL     1       1.451   3.974  20.937  0.00  0.00    +0.000 C 
ATOM      8  C   UNL     1       1.262   2.528  20.445  0.00  0.00    +0.000 C 
ATOM      9  C   UNL     1       1.961   2.051  19.170  0.00  0.00    +0.000 C 
ENDROOT
BRANCH   2  10
ATOM     10  C   UNL     1       5.233   4.370  16.033  0.00  0.00    +0.000 A 
ATOM     11  C   UNL     1       6.406   5.098  16.279  0.00  0.00    +0.000 A 
ATOM     12  C   UNL     1       7.324   5.349  15.251  0.00  0.00    +0.000 A 
ATOM     13  C   UNL     1       7.105   4.816  13.981  0.00  0.00    +0.000 A 
ATOM     14  C   UNL     1       5.956   4.066  13.717  0.00  0.00    +0.000 A 
ATOM     15  C   UNL     1       5.004   3.921  14.730  0.00  0.00    +0.000 A 
BRANCH  13  16
ATOM     16  O   UNL     1       8.017   5.043  12.984  0.00  0.00    +0.000 OA
ATOM     17  H   UNL     1       8.778   5.518  13.370  0.00  0.00    +0.000 HD
ENDBRANCH  13  16
BRANCH  14  18
ATOM     18  C   UNL     1       5.658   3.361  12.432  0.00  0.00    +0.000 C 
ATOM     19  O   UNL     1       4.581   3.443  11.870  0.00  0.00    +0.000 OA
BRANCH  18  20
ATOM     20  O   UNL     1       6.662   2.587  11.969  0.00  0.00    +0.000 OA
ATOM     21  H   UNL     1       7.085   2.966  11.168  0.00  0.00    +0.000 HD
ENDBRANCH  18  20
ENDBRANCH  14  18
ENDBRANCH   2  10
BRANCH   1  22
ATOM     22  C   UNL     1       4.282   6.383  18.287  0.00  0.00    +0.000 C 
BRANCH  22  23
ATOM     23  C   UNL     1       3.438   7.403  17.529  0.00  0.00    +0.000 C 
BRANCH  23  25
ATOM     24  C   UNL     1       1.890   9.346  17.783  0.00  0.00    +0.000 C 
ATOM     25  C   UNL     1       2.351   8.031  18.394  0.00  0.00    +0.000 C 
ENDBRANCH  23  25
ENDBRANCH  22  23
ENDBRANCH   1  22
TORSDOF 7
ENDMDL
MODEL 4
REMARK VINA RESULT:      -7.1      3.391      7.128
REMARK  Name = 
REMARK  8 active torsions:
REMARK  status: ('A' for Active; 'I' for Inactive)
REMARK    1  A    between atoms: C_1  and  C_2
REMARK    2  A    between atoms: C_2  and  C_3
REMARK    3  A    between atoms: C_3  and  C_4
REMARK    4  A    between atoms: C_4  and  N_5
REMARK    5  A    between atoms: C_6  and  C_7
REMARK    6  A    between atoms: C_10  and  O_11
REMARK    7  A    between atoms: C_12  and  C_13
REMARK    8  A    between atoms: C_13  and  O_15
REMARK                            x       y       z     vdW  Elec       q    Type
REMARK                         _______ _______ _______ _____ _____    ______ ____
ROOT
ATOM      1  N   UNL     1       6.196   5.296  15.791  0.00  0.00    +0.000 N 
ATOM      2  C   UNL     1       5.115   4.500  16.175  0.00  0.00    +0.000 A 
ATOM      3  C   UNL     1       4.894   3.616  15.128  0.00  0.00    +0.000 A 
ATOM      4  C   UNL     1       5.779   3.925  14.076  0.00  0.00    +0.000 A 
ATOM      5  C   UNL     1       6.585   4.946  14.512  0.00  0.00    +0.000 A 
ATOM      6  C   UNL     1       7.683   5.579  13.741  0.00  0.00    +0.000 C 
ATOM      7  C   UNL     1       7.855   5.008  12.328  0.00  0.00    +0.000 C 
ATOM      8  C   UNL     1       6.933   3.885  11.823  0.00  0.00    +0.000 C 
ATOM      9  C   UNL     1       5.846   3.312  12.736  0.00  0.00    +0.000 C 
ENDROOT
BRANCH   2  10
ATOM     10  C   UNL     1       4.365   4.572  17.441  0.00  0.00    +0.000 A 
ATOM     11  C   UNL     1       3.419   5.583  17.659  0.00  0.00    +0.000 A 
ATOM     12  C   UNL     1       2.707   5.653  18.864  0.00  0.00    +0.000 A 
ATOM     13  C   UNL     1       2.894   4.671  19.837  0.00  0.00    +0.000 A 
ATOM     14  C   UNL     1       3.813   3.639  19.633  0.00  0.00    +0.000 A 
ATOM     15  C   UNL     1       4.587   3.652  18.470  0.00  0.00    +0.000 A 
BRANCH  13  16
ATOM     16  O   UNL     1       2.179   4.729  21.004  0.00  0.00    +0.000 OA
ATOM     17  H   UNL     1       1.281   4.385  20.829  0.00  0.00    +0.000 HD
ENDBRANCH  13  16
BRANCH  14  18
ATOM     18  C   UNL     1       4.029   2.477  20.550  0.00  0.00    +0.000 C 
ATOM     19  O   UNL     1       3.337   2.276  21.532  0.00  0.00    +0.000 OA
BRANCH  18  20
ATOM     20  O   UNL     1       5.082   1.697  20.230  0.00  0.00    +0.000 OA
ATOM     21  H   UNL     1       5.132   0.891  20.789  0.00  0.00    +0.000 HD
ENDBRANCH  18  20
ENDBRANCH  14  18
ENDBRANCH   2  10
BRANCH   1  22
ATOM     22  C   UNL     1       6.853   6.334  16.580  0.00  0.00    +0.000 C 
BRANCH  22  23
ATOM     23  C   UNL     1       7.571   5.836  17.832  0.00  0.00    +0.000 C 
BRANCH  23  25
ATOM     24  C   UNL     1       8.086   8.278  17.921  0.00  0.00    +0.000 C 
ATOM     25  C   UNL     1       8.100   6.971  18.701  0.00  0.00    +0.000 C 
ENDBRANCH  23  25
ENDBRANCH  22  23
ENDBRANCH   1  22
TORSDOF 7
ENDMDL
MODEL 5
REMARK VINA RESULT:      -7.1      3.522      6.474
REMARK  Name = 
REMARK  8 active torsions:
REMARK  status: ('A' for Active; 'I' for Inactive)
REMARK    1  A    between atoms: C_1  and  C_2
REMARK    2  A    between atoms: C_2  and  C_3
REMARK    3  A    between atoms: C_3  and  C_4
REMARK    4  A    between atoms: C_4  and  N_5
REMARK    5  A    between atoms: C_6  and  C_7
REMARK    6  A    between atoms: C_10  and  O_11
REMARK    7  A    between atoms: C_12  and  C_13
REMARK    8  A    between atoms: C_13  and  O_15
REMARK                            x       y       z     vdW  Elec       q    Type
REMARK                         _______ _______ _______ _____ _____    ______ ____
ROOT
ATOM      1  N   UNL     1       3.194   5.448  17.614  0.00  0.00    +0.000 N 
ATOM      2  C   UNL     1       3.375   6.760  18.060  0.00  0.00    +0.000 A 
ATOM      3  C   UNL     1       4.600   7.174  17.558  0.00  0.00    +0.000 A 
ATOM      4  C   UNL     1       5.204   6.095  16.881  0.00  0.00    +0.000 A 
ATOM      5  C   UNL     1       4.315   5.052  16.908  0.00  0.00    +0.000 A 
ATOM      6  C   UNL     1       4.519   3.716  16.296  0.00  0.00    +0.000 C 
ATOM      7  C   UNL     1       5.881   3.553  15.611  0.00  0.00    +0.000 C 
ATOM      8  C   UNL     1       6.895   4.709  15.605  0.00  0.00    +0.000 C 
ATOM      9  C   UNL     1       6.545   6.045  16.266  0.00  0.00    +0.000 C 
ENDROOT
BRANCH   2  10
ATOM     10  C   UNL     1       2.448   7.551  18.886  0.00  0.00    +0.000 A 
ATOM     11  C   UNL     1       2.099   7.132  20.179  0.00  0.00    +0.000 A 
ATOM     12  C   UNL     1       1.216   7.884  20.964  0.00  0.00    +0.000 A 
ATOM     13  C   UNL     1       0.722   9.097  20.483  0.00  0.00    +0.000 A 
ATOM     14  C   UNL     1       1.074   9.549  19.209  0.00  0.00    +0.000 A 
ATOM     15  C   UNL     1       1.871   8.730  18.405  0.00  0.00    +0.000 A 
BRANCH  13  16
ATOM     16  O   UNL     1      -0.123   9.842  21.263  0.00  0.00    +0.000 OA
ATOM     17  H   UNL     1       0.387  10.182  22.024  0.00  0.00    +0.000 HD
ENDBRANCH  13  16
BRANCH  14  18
ATOM     18  C   UNL     1       0.695  10.872  18.623  0.00  0.00    +0.000 C 
ATOM     19  O   UNL     1      -0.431  11.330  18.703  0.00  0.00    +0.000 OA
BRANCH  18  20
ATOM     20  O   UNL     1       1.688  11.497  17.957  0.00  0.00    +0.000 OA
ATOM     21  H   UNL     1       1.370  12.288  17.470  0.00  0.00    +0.000 HD
ENDBRANCH  18  20
ENDBRANCH  14  18
ENDBRANCH   2  10
BRANCH   1  22
ATOM     22  C   UNL     1       2.026   4.598  17.823  0.00  0.00    +0.000 C 
BRANCH  22  23
ATOM     23  C   UNL     1       2.158   3.588  18.960  0.00  0.00    +0.000 C 
BRANCH  23  25
ATOM     24  C   UNL     1       1.438   3.171  21.314  0.00  0.00    +0.000 C 
ATOM     25  C   UNL     1       0.991   3.644  19.939  0.00  0.00    +0.000 C 
ENDBRANCH  23  25
ENDBRANCH  22  23
ENDBRANCH   1  22
TORSDOF 7
ENDMDL
MODEL 6
REMARK VINA RESULT:      -7.1      3.279      5.156
REMARK  Name = 
REMARK  8 active torsions:
REMARK  status: ('A' for Active; 'I' for Inactive)
REMARK    1  A    between atoms: C_1  and  C_2
REMARK    2  A    between atoms: C_2  and  C_3
REMARK    3  A    between atoms: C_3  and  C_4
REMARK    4  A    between atoms: C_4  and  N_5
REMARK    5  A    between atoms: C_6  and  C_7
REMARK    6  A    between atoms: C_10  and  O_11
REMARK    7  A    between atoms: C_12  and  C_13
REMARK    8  A    between atoms: C_13  and  O_15
REMARK                            x       y       z     vdW  Elec       q    Type
REMARK                         _______ _______ _______ _____ _____    ______ ____
ROOT
ATOM      1  N   UNL     1       4.394   4.954  17.929  0.00  0.00    +0.000 N 
ATOM      2  C   UNL     1       4.277   4.278  16.712  0.00  0.00    +0.000 A 
ATOM      3  C   UNL     1       3.125   3.509  16.807  0.00  0.00    +0.000 A 
ATOM      4  C   UNL     1       2.589   3.647  18.103  0.00  0.00    +0.000 A 
ATOM      5  C   UNL     1       3.371   4.557  18.769  0.00  0.00    +0.000 A 
ATOM      6  C   UNL     1       3.166   5.029  20.160  0.00  0.00    +0.000 C 
ATOM      7  C   UNL     1       1.968   4.379  20.862  0.00  0.00    +0.000 C 
ATOM      8  C   UNL     1       1.107   3.335  20.131  0.00  0.00    +0.000 C 
ATOM      9  C   UNL     1       1.425   2.951  18.684  0.00  0.00    +0.000 C 
ENDROOT
BRANCH   2  10
ATOM     10  C   UNL     1       5.183   4.369  15.555  0.00  0.00    +0.000 A 
ATOM     11  C   UNL     1       6.426   5.008  15.664  0.00  0.00    +0.000 A 
ATOM     12  C   UNL     1       7.287   5.097  14.563  0.00  0.00    +0.000 A 
ATOM     13  C   UNL     1       6.935   4.491  13.357  0.00  0.00    +0.000 A 
ATOM     14  C   UNL     1       5.712   3.827  13.229  0.00  0.00    +0.000 A 
ATOM     15  C   UNL     1       4.826   3.844  14.310  0.00  0.00    +0.000 A 
BRANCH  13  16
ATOM     16  O   UNL     1       7.790   4.560  12.289  0.00  0.00    +0.000 OA
ATOM     17  H   UNL     1       8.704   4.493  12.626  0.00  0.00    +0.000 HD
ENDBRANCH  13  16
BRANCH  14  18
ATOM     18  C   UNL     1       5.267   3.055  12.028  0.00  0.00    +0.000 C 
ATOM     19  O   UNL     1       4.257   3.331  11.405  0.00  0.00    +0.000 OA
BRANCH  18  20
ATOM     20  O   UNL     1       6.046   1.999  11.718  0.00  0.00    +0.000 OA
ATOM     21  H   UNL     1       6.824   2.255  11.176  0.00  0.00    +0.000 HD
ENDBRANCH  18  20
ENDBRANCH  14  18
ENDBRANCH   2  10
BRANCH   1  22
ATOM     22  C   UNL     1       5.408   5.938  18.297  0.00  0.00    +0.000 C 
BRANCH  22  23
ATOM     23  C   UNL     1       6.560   5.395  19.137  0.00  0.00    +0.000 C 
BRANCH  23  25
ATOM     24  C   UNL     1       7.649   7.278  17.911  0.00  0.00    +0.000 C 
ATOM     25  C   UNL     1       7.856   6.171  18.934  0.00  0.00    +0.000 C 
ENDBRANCH  23  25
ENDBRANCH  22  23
ENDBRANCH   1  22
TORSDOF 7
ENDMDL
MODEL 7
REMARK VINA RESULT:      -7.1      3.740      6.521
REMARK  Name = 
REMARK  8 active torsions:
REMARK  status: ('A' for Active; 'I' for Inactive)
REMARK    1  A    between atoms: C_1  and  C_2
REMARK    2  A    between atoms: C_2  and  C_3
REMARK    3  A    between atoms: C_3  and  C_4
REMARK    4  A    between atoms: C_4  and  N_5
REMARK    5  A    between atoms: C_6  and  C_7
REMARK    6  A    between atoms: C_10  and  O_11
REMARK    7  A    between atoms: C_12  and  C_13
REMARK    8  A    between atoms: C_13  and  O_15
REMARK                            x       y       z     vdW  Elec       q    Type
REMARK                         _______ _______ _______ _____ _____    ______ ____
ROOT
ATOM      1  N   UNL     1       2.770   5.848  17.974  0.00  0.00    +0.000 N 
ATOM      2  C   UNL     1       2.913   7.237  18.015  0.00  0.00    +0.000 A 
ATOM      3  C   UNL     1       4.110   7.521  17.373  0.00  0.00    +0.000 A 
ATOM      4  C   UNL     1       4.736   6.310  17.018  0.00  0.00    +0.000 A 
ATOM      5  C   UNL     1       3.886   5.295  17.376  0.00  0.00    +0.000 A 
ATOM      6  C   UNL     1       4.124   3.845  17.170  0.00  0.00    +0.000 C 
ATOM      7  C   UNL     1       5.474   3.528  16.517  0.00  0.00    +0.000 C 
ATOM      8  C   UNL     1       6.445   4.660  16.142  0.00  0.00    +0.000 C 
ATOM      9  C   UNL     1       6.062   6.120  16.399  0.00  0.00    +0.000 C 
ENDROOT
BRANCH   2  10
ATOM     10  C   UNL     1       1.978   8.209  18.607  0.00  0.00    +0.000 A 
ATOM     11  C   UNL     1       1.193   9.038  17.794  0.00  0.00    +0.000 A 
ATOM     12  C   UNL     1       0.305   9.964  18.357  0.00  0.00    +0.000 A 
ATOM     13  C   UNL     1       0.151  10.022  19.742  0.00  0.00    +0.000 A 
ATOM     14  C   UNL     1       0.904   9.189  20.574  0.00  0.00    +0.000 A 
ATOM     15  C   UNL     1       1.859   8.350  19.993  0.00  0.00    +0.000 A 
BRANCH  13  16
ATOM     16  O   UNL     1      -0.736  10.911  20.289  0.00  0.00    +0.000 OA
ATOM     17  H   UNL     1      -0.226  11.602  20.755  0.00  0.00    +0.000 HD
ENDBRANCH  13  16
BRANCH  14  18
ATOM     18  C   UNL     1       0.757   9.085  22.059  0.00  0.00    +0.000 C 
ATOM     19  O   UNL     1      -0.325   8.990  22.609  0.00  0.00    +0.000 OA
BRANCH  18  20
ATOM     20  O   UNL     1       1.917   9.151  22.744  0.00  0.00    +0.000 OA
ATOM     21  H   UNL     1       2.566   8.477  22.446  0.00  0.00    +0.000 HD
ENDBRANCH  18  20
ENDBRANCH  14  18
ENDBRANCH   2  10
BRANCH   1  22
ATOM     22  C   UNL     1       1.639   5.063  18.460  0.00  0.00    +0.000 C 
BRANCH  22  23
ATOM     23  C   UNL     1       1.737   4.623  19.918  0.00  0.00    +0.000 C 
BRANCH  23  25
ATOM     24  C   UNL     1       1.486   2.750  21.550  0.00  0.00    +0.000 C 
ATOM     25  C   UNL     1       1.106   3.258  20.167  0.00  0.00    +0.000 C 
ENDBRANCH  23  25
ENDBRANCH  22  23
ENDBRANCH   1  22
TORSDOF 7
ENDMDL
MODEL 8
REMARK VINA RESULT:      -7.0      1.997      4.897
REMARK  Name = 
REMARK  8 active torsions:
REMARK  status: ('A' for Active; 'I' for Inactive)
REMARK    1  A    between atoms: C_1  and  C_2
REMARK    2  A    between atoms: C_2  and  C_3
REMARK    3  A    between atoms: C_3  and  C_4
REMARK    4  A    between atoms: C_4  and  N_5
REMARK    5  A    between atoms: C_6  and  C_7
REMARK    6  A    between atoms: C_10  and  O_11
REMARK    7  A    between atoms: C_12  and  C_13
REMARK    8  A    between atoms: C_13  and  O_15
REMARK                            x       y       z     vdW  Elec       q    Type
REMARK                         _______ _______ _______ _____ _____    ______ ____
ROOT
ATOM      1  N   UNL     1       3.289   4.745  18.188  0.00  0.00    +0.000 N 
ATOM      2  C   UNL     1       4.479   4.112  17.823  0.00  0.00    +0.000 A 
ATOM      3  C   UNL     1       4.637   3.050  18.703  0.00  0.00    +0.000 A 
ATOM      4  C   UNL     1       3.596   3.086  19.653  0.00  0.00    +0.000 A 
ATOM      5  C   UNL     1       2.766   4.121  19.305  0.00  0.00    +0.000 A 
ATOM      6  C   UNL     1       1.523   4.517  20.011  0.00  0.00    +0.000 C 
ATOM      7  C   UNL     1       1.217   3.663  21.247  0.00  0.00    +0.000 C 
ATOM      8  C   UNL     1       2.161   2.520  21.660  0.00  0.00    +0.000 C 
ATOM      9  C   UNL     1       3.407   2.211  20.826  0.00  0.00    +0.000 C 
ENDROOT
BRANCH   2  10
ATOM     10  C   UNL     1       5.381   4.484  16.720  0.00  0.00    +0.000 A 
ATOM     11  C   UNL     1       6.499   5.300  16.949  0.00  0.00    +0.000 A 
ATOM     12  C   UNL     1       7.355   5.655  15.899  0.00  0.00    +0.000 A 
ATOM     13  C   UNL     1       7.133   5.144  14.620  0.00  0.00    +0.000 A 
ATOM     14  C   UNL     1       6.041   4.310  14.371  0.00  0.00    +0.000 A 
ATOM     15  C   UNL     1       5.142   4.056  15.411  0.00  0.00    +0.000 A 
BRANCH  13  16
ATOM     16  O   UNL     1       7.986   5.475  13.601  0.00  0.00    +0.000 OA
ATOM     17  H   UNL     1       7.740   6.361  13.273  0.00  0.00    +0.000 HD
ENDBRANCH  13  16
BRANCH  14  18
ATOM     18  C   UNL     1       5.754   3.620  13.075  0.00  0.00    +0.000 C 
ATOM     19  O   UNL     1       4.665   3.663  12.533  0.00  0.00    +0.000 OA
BRANCH  18  20
ATOM     20  O   UNL     1       6.786   2.907  12.578  0.00  0.00    +0.000 OA
ATOM     21  H   UNL     1       6.571   2.494  11.714  0.00  0.00    +0.000 HD
ENDBRANCH  18  20
ENDBRANCH  14  18
ENDBRANCH   2  10
BRANCH   1  22
ATOM     22  C   UNL     1       2.652   5.878  17.522  0.00  0.00    +0.000 C 
BRANCH  22  23
ATOM     23  C   UNL     1       3.198   7.248  17.916  0.00  0.00    +0.000 C 
BRANCH  23  25
ATOM     24  C   UNL     1       1.792   9.311  17.876  0.00  0.00    +0.000 C 
ATOM     25  C   UNL     1       2.187   8.087  18.689  0.00  0.00    +0.000 C 
ENDBRANCH  23  25
ENDBRANCH  22  23
ENDBRANCH   1  22
TORSDOF 7
ENDMDL
MODEL 9
REMARK VINA RESULT:      -6.9      1.313      1.812
REMARK  Name = 
REMARK  8 active torsions:
REMARK  status: ('A' for Active; 'I' for Inactive)
REMARK    1  A    between atoms: C_1  and  C_2
REMARK    2  A    between atoms: C_2  and  C_3
REMARK    3  A    between atoms: C_3  and  C_4
REMARK    4  A    between atoms: C_4  and  N_5
REMARK    5  A    between atoms: C_6  and  C_7
REMARK    6  A    between atoms: C_10  and  O_11
REMARK    7  A    between atoms: C_12  and  C_13
REMARK    8  A    between atoms: C_13  and  O_15
REMARK                            x       y       z     vdW  Elec       q    Type
REMARK                         _______ _______ _______ _____ _____    ______ ____
ROOT
ATOM      1  N   UNL     1       2.781   6.953  19.390  0.00  0.00    +0.000 N 
ATOM      2  C   UNL     1       3.368   7.362  18.190  0.00  0.00    +0.000 A 
ATOM      3  C   UNL     1       2.769   8.570  17.860  0.00  0.00    +0.000 A 
ATOM      4  C   UNL     1       1.764   8.854  18.805  0.00  0.00    +0.000 A 
ATOM      5  C   UNL     1       1.802   7.860  19.749  0.00  0.00    +0.000 A 
ATOM      6  C   UNL     1       0.935   7.763  20.948  0.00  0.00    +0.000 C 
ATOM      7  C   UNL     1      -0.091   8.897  21.061  0.00  0.00    +0.000 C 
ATOM      8  C   UNL     1      -0.160   9.997  19.988  0.00  0.00    +0.000 C 
ATOM      9  C   UNL     1       0.812   9.982  18.806  0.00  0.00    +0.000 C 
ENDROOT
BRANCH   2  10
ATOM     10  C   UNL     1       4.419   6.662  17.433  0.00  0.00    +0.000 A 
ATOM     11  C   UNL     1       4.413   6.657  16.030  0.00  0.00    +0.000 A 
ATOM     12  C   UNL     1       5.412   5.990  15.310  0.00  0.00    +0.000 A 
ATOM     13  C   UNL     1       6.463   5.375  15.990  0.00  0.00    +0.000 A 
ATOM     14  C   UNL     1       6.506   5.387  17.386  0.00  0.00    +0.000 A 
ATOM     15  C   UNL     1       5.442   5.967  18.083  0.00  0.00    +0.000 A 
BRANCH  13  16
ATOM     16  O   UNL     1       7.451   4.744  15.282  0.00  0.00    +0.000 OA
ATOM     17  H   UNL     1       7.247   4.831  14.330  0.00  0.00    +0.000 HD
ENDBRANCH  13  16
BRANCH  14  18
ATOM     18  C   UNL     1       7.625   4.855  18.224  0.00  0.00    +0.000 C 
ATOM     19  O   UNL     1       8.449   4.065  17.798  0.00  0.00    +0.000 OA
BRANCH  18  20
ATOM     20  O   UNL     1       7.622   5.282  19.503  0.00  0.00    +0.000 OA
ATOM     21  H   UNL     1       8.236   4.767  20.070  0.00  0.00    +0.000 HD
ENDBRANCH  18  20
ENDBRANCH  14  18
ENDBRANCH   2  10
BRANCH   1  22
ATOM     22  C   UNL     1       3.120   5.773  20.181  0.00  0.00    +0.000 C 
BRANCH  22  23
ATOM     23  C   UNL     1       2.135   4.613  20.065  0.00  0.00    +0.000 C 
BRANCH  23  25
ATOM     24  C   UNL     1       1.833   4.029  17.656  0.00  0.00    +0.000 C 
ATOM     25  C   UNL     1       2.506   3.630  18.961  0.00  0.00    +0.000 C 
ENDBRANCH  23  25
ENDBRANCH  22  23
ENDBRANCH   1  22
TORSDOF 7
ENDMDL
