MODEL 1
REMARK VINA RESULT:      -7.2      0.000      0.000
REMARK  Name = 
REMARK  10 active torsions:
REMARK  status: ('A' for Active; 'I' for Inactive)
REMARK    1  A    between atoms: C_1  and  C_2
REMARK    2  A    between atoms: C_2  and  C_3
REMARK    3  A    between atoms: C_2  and  C_4
REMARK    4  A    between atoms: C_2  and  C_5
REMARK    5  A    between atoms: C_8  and  C_9
REMARK    6  A    between atoms: C_12  and  C_13
REMARK    7  A    between atoms: C_16  and  C_17
REMARK    8  A    between atoms: C_17  and  C_18
REMARK    9  A    between atoms: C_17  and  C_19
REMARK   10  A    between atoms: C_17  and  C_20
REMARK                            x       y       z     vdW  Elec       q    Type
REMARK                         _______ _______ _______ _____ _____    ______ ____
ROOT
ATOM      1  C   UNL     1       0.306   8.740  20.215  0.00  0.00    +0.000 C 
ATOM      2  O   UNL     1       0.349   8.946  21.639  0.00  0.00    +0.000 OA
ATOM      3  O   UNL     1       1.314  10.022  21.932  0.00  0.00    +0.000 OA
ATOM      4  C   UNL     1       0.898  11.209  21.233  0.00  0.00    +0.000 C 
ATOM      5  O   UNL     1       0.925  10.965  19.817  0.00  0.00    +0.000 OA
ATOM      6  O   UNL     1      -0.096   9.942  19.536  0.00  0.00    +0.000 OA
ENDROOT
BRANCH   1  10
ATOM      7  C   UNL     1       3.593   6.692  18.214  0.00  0.00    +0.000 A 
ATOM      8  C   UNL     1       3.161   6.289  19.491  0.00  0.00    +0.000 A 
ATOM      9  C   UNL     1       2.143   6.972  20.169  0.00  0.00    +0.000 A 
ATOM     10  C   UNL     1       1.540   8.098  19.603  0.00  0.00    +0.000 A 
ATOM     11  C   UNL     1       2.031   8.559  18.374  0.00  0.00    +0.000 A 
ATOM     12  C   UNL     1       3.047   7.878  17.701  0.00  0.00    +0.000 A 
BRANCH   7  14
ATOM     13  C   UNL     1       4.986   6.570  16.071  0.00  0.00    +0.000 C 
ATOM     14  C   UNL     1       4.616   5.877  17.405  0.00  0.00    +0.000 C 
ATOM     15  C   UNL     1       4.022   4.492  17.101  0.00  0.00    +0.000 C 
ATOM     16  C   UNL     1       5.947   5.690  18.172  0.00  0.00    +0.000 C 
ENDBRANCH   7  14
ENDBRANCH   1  10
BRANCH   4  17
ATOM     17  C   UNL     1      -0.416  11.816  21.708  0.00  0.00    +0.000 A 
ATOM     18  C   UNL     1      -1.107  12.757  20.939  0.00  0.00    +0.000 A 
ATOM     19  C   UNL     1      -2.357  13.241  21.347  0.00  0.00    +0.000 A 
ATOM     20  C   UNL     1      -2.966  12.795  22.532  0.00  0.00    +0.000 A 
ATOM     21  C   UNL     1      -2.250  11.870  23.310  0.00  0.00    +0.000 A 
ATOM     22  C   UNL     1      -1.007  11.381  22.902  0.00  0.00    +0.000 A 
BRANCH  20  23
ATOM     23  C   UNL     1      -4.373  13.238  22.967  0.00  0.00    +0.000 C 
ATOM     24  C   UNL     1      -5.480  12.840  21.966  0.00  0.00    +0.000 C 
ATOM     25  C   UNL     1      -4.716  12.576  24.321  0.00  0.00    +0.000 C 
ATOM     26  C   UNL     1      -4.429  14.771  23.130  0.00  0.00    +0.000 C 
ENDBRANCH  20  23
ENDBRANCH   4  17
TORSDOF 4
ENDMDL
MODEL 2
REMARK VINA RESULT:      -7.2      1.187      1.956
REMARK  Name = 
REMARK  10 active torsions:
REMARK  status: ('A' for Active; 'I' for Inactive)
REMARK    1  A    between atoms: C_1  and  C_2
REMARK    2  A    between atoms: C_2  and  C_3
REMARK    3  A    between atoms: C_2  and  C_4
REMARK    4  A    between atoms: C_2  and  C_5
REMARK    5  A    between atoms: C_8  and  C_9
REMARK    6  A    between atoms: C_12  and  C_13
REMARK    7  A    between atoms: C_16  and  C_17
REMARK    8  A    between atoms: C_17  and  C_18
REMARK    9  A    between atoms: C_17  and  C_19
REMARK   10  A    between atoms: C_17  and  C_20
REMARK                            x       y       z     vdW  Elec       q    Type
REMARK                         _______ _______ _______ _____ _____    ______ ____
ROOT
ATOM      1  C   UNL     1       0.093  10.011  19.791  0.00  0.00    +0.000 C 
ATOM      2  O   UNL     1      -0.932   9.527  20.679  0.00  0.00    +0.000 OA
ATOM      3  O   UNL     1      -0.357   9.374  22.028  0.00  0.00    +0.000 OA
ATOM      4  C   UNL     1       0.156  10.650  22.451  0.00  0.00    +0.000 C 
ATOM      5  O   UNL     1       1.211  11.059  21.565  0.00  0.00    +0.000 OA
ATOM      6  O   UNL     1       0.602  11.278  20.243  0.00  0.00    +0.000 OA
ENDROOT
BRANCH   1  10
ATOM      7  C   UNL     1       2.970   6.975  18.568  0.00  0.00    +0.000 A 
ATOM      8  C   UNL     1       2.350   6.914  19.828  0.00  0.00    +0.000 A 
ATOM      9  C   UNL     1       1.465   7.913  20.258  0.00  0.00    +0.000 A 
ATOM     10  C   UNL     1       1.191   9.018  19.448  0.00  0.00    +0.000 A 
ATOM     11  C   UNL     1       1.879   9.130  18.232  0.00  0.00    +0.000 A 
ATOM     12  C   UNL     1       2.762   8.135  17.808  0.00  0.00    +0.000 A 
BRANCH   7  14
ATOM     13  C   UNL     1       4.829   5.298  19.101  0.00  0.00    +0.000 C 
ATOM     14  C   UNL     1       3.841   5.825  18.032  0.00  0.00    +0.000 C 
ATOM     15  C   UNL     1       4.638   6.327  16.817  0.00  0.00    +0.000 C 
ATOM     16  C   UNL     1       2.991   4.605  17.600  0.00  0.00    +0.000 C 
ENDBRANCH   7  14
ENDBRANCH   1  10
BRANCH   4  17
ATOM     17  C   UNL     1      -0.893  11.732  22.669  0.00  0.00    +0.000 A 
ATOM     18  C   UNL     1      -2.152  11.433  23.202  0.00  0.00    +0.000 A 
ATOM     19  C   UNL     1      -3.075  12.450  23.478  0.00  0.00    +0.000 A 
ATOM     20  C   UNL     1      -2.772  13.801  23.243  0.00  0.00    +0.000 A 
ATOM     21  C   UNL     1      -1.516  14.087  22.681  0.00  0.00    +0.000 A 
ATOM     22  C   UNL     1      -0.592  13.076  22.411  0.00  0.00    +0.000 A 
BRANCH  20  23
ATOM     23  C   UNL     1      -3.726  14.949  23.613  0.00  0.00    +0.000 C 
ATOM     24  C   UNL     1      -3.703  16.117  22.602  0.00  0.00    +0.000 C 
ATOM     25  C   UNL     1      -5.174  14.409  23.660  0.00  0.00    +0.000 C 
ATOM     26  C   UNL     1      -3.362  15.529  24.995  0.00  0.00    +0.000 C 
ENDBRANCH  20  23
ENDBRANCH   4  17
TORSDOF 4
ENDMDL
MODEL 3
REMARK VINA RESULT:      -7.1      0.140      1.208
REMARK  Name = 
REMARK  10 active torsions:
REMARK  status: ('A' for Active; 'I' for Inactive)
REMARK    1  A    between atoms: C_1  and  C_2
REMARK    2  A    between atoms: C_2  and  C_3
REMARK    3  A    between atoms: C_2  and  C_4
REMARK    4  A    between atoms: C_2  and  C_5
REMARK    5  A    between atoms: C_8  and  C_9
REMARK    6  A    between atoms: C_12  and  C_13
REMARK    7  A    between atoms: C_16  and  C_17
REMARK    8  A    between atoms: C_17  and  C_18
REMARK    9  A    between atoms: C_17  and  C_19
REMARK   10  A    between atoms: C_17  and  C_20
REMARK                            x       y       z     vdW  Elec       q    Type
REMARK                         _______ _______ _______ _____ _____    ______ ____
ROOT
ATOM      1  C   UNL     1       0.235   8.808  20.147  0.00  0.00    +0.000 C 
ATOM      2  O   UNL     1       0.246   9.005  21.573  0.00  0.00    +0.000 OA
ATOM      3  O   UNL     1       1.211  10.072  21.896  0.00  0.00    +0.000 OA
ATOM      4  C   UNL     1       0.820  11.267  21.195  0.00  0.00    +0.000 C 
ATOM      5  O   UNL     1       0.881  11.031  19.778  0.00  0.00    +0.000 OA
ATOM      6  O   UNL     1      -0.141  10.018  19.467  0.00  0.00    +0.000 OA
ENDROOT
BRANCH   1  10
ATOM      7  C   UNL     1       3.553   6.731  18.231  0.00  0.00    +0.000 A 
ATOM      8  C   UNL     1       3.129   6.375  19.523  0.00  0.00    +0.000 A 
ATOM      9  C   UNL     1       2.100   7.069  20.174  0.00  0.00    +0.000 A 
ATOM     10  C   UNL     1       1.480   8.161  19.562  0.00  0.00    +0.000 A 
ATOM     11  C   UNL     1       1.963   8.579  18.314  0.00  0.00    +0.000 A 
ATOM     12  C   UNL     1       2.989   7.886  17.669  0.00  0.00    +0.000 A 
BRANCH   7  14
ATOM     13  C   UNL     1       5.866   5.636  18.289  0.00  0.00    +0.000 C 
ATOM     14  C   UNL     1       4.589   5.899  17.455  0.00  0.00    +0.000 C 
ATOM     15  C   UNL     1       4.977   6.655  16.173  0.00  0.00    +0.000 C 
ATOM     16  C   UNL     1       4.040   4.506  17.064  0.00  0.00    +0.000 C 
ENDBRANCH   7  14
ENDBRANCH   1  10
BRANCH   4  17
ATOM     17  C   UNL     1      -0.500  11.880  21.642  0.00  0.00    +0.000 A 
ATOM     18  C   UNL     1      -1.237  12.722  20.802  0.00  0.00    +0.000 A 
ATOM     19  C   UNL     1      -2.491  13.208  21.194  0.00  0.00    +0.000 A 
ATOM     20  C   UNL     1      -3.060  12.864  22.431  0.00  0.00    +0.000 A 
ATOM     21  C   UNL     1      -2.298  12.040  23.278  0.00  0.00    +0.000 A 
ATOM     22  C   UNL     1      -1.051  11.549  22.887  0.00  0.00    +0.000 A 
BRANCH  20  23
ATOM     23  C   UNL     1      -4.469  13.308  22.857  0.00  0.00    +0.000 C 
ATOM     24  C   UNL     1      -4.622  14.843  22.963  0.00  0.00    +0.000 C 
ATOM     25  C   UNL     1      -5.494  12.814  21.812  0.00  0.00    +0.000 C 
ATOM     26  C   UNL     1      -4.829  12.714  24.234  0.00  0.00    +0.000 C 
ENDBRANCH  20  23
ENDBRANCH   4  17
TORSDOF 4
ENDMDL
MODEL 4
REMARK VINA RESULT:      -7.1      0.197      1.221
REMARK  Name = 
REMARK  10 active torsions:
REMARK  status: ('A' for Active; 'I' for Inactive)
REMARK    1  A    between atoms: C_1  and  C_2
REMARK    2  A    between atoms: C_2  and  C_3
REMARK    3  A    between atoms: C_2  and  C_4
REMARK    4  A    between atoms: C_2  and  C_5
REMARK    5  A    between atoms: C_8  and  C_9
REMARK    6  A    between atoms: C_12  and  C_13
REMARK    7  A    between atoms: C_16  and  C_17
REMARK    8  A    between atoms: C_17  and  C_18
REMARK    9  A    between atoms: C_17  and  C_19
REMARK   10  A    between atoms: C_17  and  C_20
REMARK                            x       y       z     vdW  Elec       q    Type
REMARK                         _______ _______ _______ _____ _____    ______ ____
ROOT
ATOM      1  C   UNL     1       0.327   8.833  19.945  0.00  0.00    +0.000 C 
ATOM      2  O   UNL     1       0.274   8.908  21.381  0.00  0.00    +0.000 OA
ATOM      3  O   UNL     1       1.262   9.902  21.840  0.00  0.00    +0.000 OA
ATOM      4  C   UNL     1       0.952  11.167  21.227  0.00  0.00    +0.000 C 
ATOM      5  O   UNL     1       1.073  11.050  19.800  0.00  0.00    +0.000 OA
ATOM      6  O   UNL     1       0.031  10.111  19.355  0.00  0.00    +0.000 OA
ENDROOT
BRANCH   1  10
ATOM      7  C   UNL     1       3.651   6.758  18.037  0.00  0.00    +0.000 A 
ATOM      8  C   UNL     1       3.219   6.396  19.326  0.00  0.00    +0.000 A 
ATOM      9  C   UNL     1       2.188   7.090  19.974  0.00  0.00    +0.000 A 
ATOM     10  C   UNL     1       1.573   8.186  19.363  0.00  0.00    +0.000 A 
ATOM     11  C   UNL     1       2.063   8.607  18.119  0.00  0.00    +0.000 A 
ATOM     12  C   UNL     1       3.092   7.916  17.477  0.00  0.00    +0.000 A 
BRANCH   7  14
ATOM     13  C   UNL     1       4.166   4.509  16.929  0.00  0.00    +0.000 C 
ATOM     14  C   UNL     1       4.689   5.927  17.263  0.00  0.00    +0.000 C 
ATOM     15  C   UNL     1       5.963   5.803  18.115  0.00  0.00    +0.000 C 
ATOM     16  C   UNL     1       5.059   6.576  15.907  0.00  0.00    +0.000 C 
ENDBRANCH   7  14
ENDBRANCH   1  10
BRANCH   4  17
ATOM     17  C   UNL     1      -0.365  11.795  21.665  0.00  0.00    +0.000 A 
ATOM     18  C   UNL     1      -1.019  12.746  20.874  0.00  0.00    +0.000 A 
ATOM     19  C   UNL     1      -2.273  13.249  21.247  0.00  0.00    +0.000 A 
ATOM     20  C   UNL     1      -2.921  12.816  22.415  0.00  0.00    +0.000 A 
ATOM     21  C   UNL     1      -2.241  11.882  23.216  0.00  0.00    +0.000 A 
ATOM     22  C   UNL     1      -0.996  11.373  22.843  0.00  0.00    +0.000 A 
BRANCH  20  23
ATOM     23  C   UNL     1      -4.332  13.283  22.811  0.00  0.00    +0.000 C 
ATOM     24  C   UNL     1      -4.795  12.743  24.183  0.00  0.00    +0.000 C 
ATOM     25  C   UNL     1      -4.350  14.826  22.893  0.00  0.00    +0.000 C 
ATOM     26  C   UNL     1      -5.366  12.824  21.763  0.00  0.00    +0.000 C 
ENDBRANCH  20  23
ENDBRANCH   4  17
TORSDOF 4
ENDMDL
MODEL 5
REMARK VINA RESULT:      -7.1      0.390      1.576
REMARK  Name = 
REMARK  10 active torsions:
REMARK  status: ('A' for Active; 'I' for Inactive)
REMARK    1  A    between atoms: C_1  and  C_2
REMARK    2  A    between atoms: C_2  and  C_3
REMARK    3  A    between atoms: C_2  and  C_4
REMARK    4  A    between atoms: C_2  and  C_5
REMARK    5  A    between atoms: C_8  and  C_9
REMARK    6  A    between atoms: C_12  and  C_13
REMARK    7  A    between atoms: C_16  and  C_17
REMARK    8  A    between atoms: C_17  and  C_18
REMARK    9  A    between atoms: C_17  and  C_19
REMARK   10  A    between atoms: C_17  and  C_20
REMARK                            x       y       z     vdW  Elec       q    Type
REMARK                         _______ _______ _______ _____ _____    ______ ____
ROOT
ATOM      1  C   UNL     1       0.494   8.410  20.123  0.00  0.00    +0.000 C 
ATOM      2  O   UNL     1       0.523   8.574  21.553  0.00  0.00    +0.000 OA
ATOM      3  O   UNL     1       1.446   9.675  21.884  0.00  0.00    +0.000 OA
ATOM      4  C   UNL     1       0.990  10.867  21.219  0.00  0.00    +0.000 C 
ATOM      5  O   UNL     1       1.034  10.667  19.796  0.00  0.00    +0.000 OA
ATOM      6  O   UNL     1       0.053   9.618  19.479  0.00  0.00    +0.000 OA
ENDROOT
BRANCH   1  10
ATOM      7  C   UNL     1       3.863   6.535  18.091  0.00  0.00    +0.000 A 
ATOM      8  C   UNL     1       3.462   6.106  19.369  0.00  0.00    +0.000 A 
ATOM      9  C   UNL     1       2.416   6.736  20.058  0.00  0.00    +0.000 A 
ATOM     10  C   UNL     1       1.754   7.832  19.500  0.00  0.00    +0.000 A 
ATOM     11  C   UNL     1       2.212   8.321  18.268  0.00  0.00    +0.000 A 
ATOM     12  C   UNL     1       3.255   7.694  17.585  0.00  0.00    +0.000 A 
BRANCH   7  14
ATOM     13  C   UNL     1       6.270   5.670  18.018  0.00  0.00    +0.000 C 
ATOM     14  C   UNL     1       4.919   5.774  17.270  0.00  0.00    +0.000 C 
ATOM     15  C   UNL     1       5.140   6.508  15.938  0.00  0.00    +0.000 C 
ATOM     16  C   UNL     1       4.484   4.319  16.970  0.00  0.00    +0.000 C 
ENDBRANCH   7  14
ENDBRANCH   1  10
BRANCH   4  17
ATOM     17  C   UNL     1      -0.347  11.411  21.705  0.00  0.00    +0.000 A 
ATOM     18  C   UNL     1      -0.900  11.007  22.924  0.00  0.00    +0.000 A 
ATOM     19  C   UNL     1      -2.087  11.581  23.399  0.00  0.00    +0.000 A 
ATOM     20  C   UNL     1      -2.757  12.584  22.680  0.00  0.00    +0.000 A 
ATOM     21  C   UNL     1      -2.207  12.962  21.444  0.00  0.00    +0.000 A 
ATOM     22  C   UNL     1      -1.021  12.396  20.972  0.00  0.00    +0.000 A 
BRANCH  20  23
ATOM     23  C   UNL     1      -4.014  13.295  23.210  0.00  0.00    +0.000 C 
ATOM     24  C   UNL     1      -3.801  14.803  23.472  0.00  0.00    +0.000 C 
ATOM     25  C   UNL     1      -5.148  13.164  22.168  0.00  0.00    +0.000 C 
ATOM     26  C   UNL     1      -4.475  12.658  24.537  0.00  0.00    +0.000 C 
ENDBRANCH  20  23
ENDBRANCH   4  17
TORSDOF 4
ENDMDL
MODEL 6
REMARK VINA RESULT:      -7.1      1.173      1.727
REMARK  Name = 
REMARK  10 active torsions:
REMARK  status: ('A' for Active; 'I' for Inactive)
REMARK    1  A    between atoms: C_1  and  C_2
REMARK    2  A    between atoms: C_2  and  C_3
REMARK    3  A    between atoms: C_2  and  C_4
REMARK    4  A    between atoms: C_2  and  C_5
REMARK    5  A    between atoms: C_8  and  C_9
REMARK    6  A    between atoms: C_12  and  C_13
REMARK    7  A    between atoms: C_16  and  C_17
REMARK    8  A    between atoms: C_17  and  C_18
REMARK    9  A    between atoms: C_17  and  C_19
REMARK   10  A    between atoms: C_17  and  C_20
REMARK                            x       y       z     vdW  Elec       q    Type
REMARK                         _______ _______ _______ _____ _____    ______ ____
ROOT
ATOM      1  C   UNL     1       0.370  10.037  19.597  0.00  0.00    +0.000 C 
ATOM      2  O   UNL     1      -0.782   9.601  20.344  0.00  0.00    +0.000 OA
ATOM      3  O   UNL     1      -0.365   9.310  21.728  0.00  0.00    +0.000 OA
ATOM      4  C   UNL     1       0.215  10.502  22.289  0.00  0.00    +0.000 C 
ATOM      5  O   UNL     1       1.389  10.860  21.540  0.00  0.00    +0.000 OA
ATOM      6  O   UNL     1       0.942  11.218  20.184  0.00  0.00    +0.000 OA
ENDROOT
BRANCH   1  10
ATOM      7  C   UNL     1       3.048   6.780  18.495  0.00  0.00    +0.000 A 
ATOM      8  C   UNL     1       2.437   6.814  19.761  0.00  0.00    +0.000 A 
ATOM      9  C   UNL     1       1.617   7.883  20.150  0.00  0.00    +0.000 A 
ATOM     10  C   UNL     1       1.403   8.965  19.293  0.00  0.00    +0.000 A 
ATOM     11  C   UNL     1       2.085   8.979  18.068  0.00  0.00    +0.000 A 
ATOM     12  C   UNL     1       2.902   7.915  17.684  0.00  0.00    +0.000 A 
BRANCH   7  14
ATOM     13  C   UNL     1       4.672   5.870  16.739  0.00  0.00    +0.000 C 
ATOM     14  C   UNL     1       3.842   5.556  18.007  0.00  0.00    +0.000 C 
ATOM     15  C   UNL     1       2.860   4.416  17.693  0.00  0.00    +0.000 C 
ATOM     16  C   UNL     1       4.856   5.061  19.068  0.00  0.00    +0.000 C 
ENDBRANCH   7  14
ENDBRANCH   1  10
BRANCH   4  17
ATOM     17  C   UNL     1      -0.749  11.665  22.479  0.00  0.00    +0.000 A 
ATOM     18  C   UNL     1      -1.975  11.499  23.133  0.00  0.00    +0.000 A 
ATOM     19  C   UNL     1      -2.812  12.596  23.379  0.00  0.00    +0.000 A 
ATOM     20  C   UNL     1      -2.452  13.897  22.991  0.00  0.00    +0.000 A 
ATOM     21  C   UNL     1      -1.231  14.047  22.311  0.00  0.00    +0.000 A 
ATOM     22  C   UNL     1      -0.392  12.957  22.071  0.00  0.00    +0.000 A 
BRANCH  20  23
ATOM     23  C   UNL     1      -3.305  15.133  23.320  0.00  0.00    +0.000 C 
ATOM     24  C   UNL     1      -4.708  15.100  22.674  0.00  0.00    +0.000 C 
ATOM     25  C   UNL     1      -3.504  15.220  24.850  0.00  0.00    +0.000 C 
ATOM     26  C   UNL     1      -2.604  16.418  22.832  0.00  0.00    +0.000 C 
ENDBRANCH  20  23
ENDBRANCH   4  17
TORSDOF 4
ENDMDL
MODEL 7
REMARK VINA RESULT:      -7.0      1.102      1.589
REMARK  Name = 
REMARK  10 active torsions:
REMARK  status: ('A' for Active; 'I' for Inactive)
REMARK    1  A    between atoms: C_1  and  C_2
REMARK    2  A    between atoms: C_2  and  C_3
REMARK    3  A    between atoms: C_2  and  C_4
REMARK    4  A    between atoms: C_2  and  C_5
REMARK    5  A    between atoms: C_8  and  C_9
REMARK    6  A    between atoms: C_12  and  C_13
REMARK    7  A    between atoms: C_16  and  C_17
REMARK    8  A    between atoms: C_17  and  C_18
REMARK    9  A    between atoms: C_17  and  C_19
REMARK   10  A    between atoms: C_17  and  C_20
REMARK                            x       y       z     vdW  Elec       q    Type
REMARK                         _______ _______ _______ _____ _____    ______ ____
ROOT
ATOM      1  C   UNL     1       0.386  10.064  19.685  0.00  0.00    +0.000 C 
ATOM      2  O   UNL     1      -0.807   9.627  20.362  0.00  0.00    +0.000 OA
ATOM      3  O   UNL     1      -0.457   9.252  21.744  0.00  0.00    +0.000 OA
ATOM      4  C   UNL     1       0.135  10.394  22.389  0.00  0.00    +0.000 C 
ATOM      5  O   UNL     1       1.349  10.753  21.708  0.00  0.00    +0.000 OA
ATOM      6  O   UNL     1       0.969  11.194  20.356  0.00  0.00    +0.000 OA
ENDROOT
BRANCH   1  10
ATOM      7  C   UNL     1       3.002   6.772  18.538  0.00  0.00    +0.000 A 
ATOM      8  C   UNL     1       2.392   6.801  19.805  0.00  0.00    +0.000 A 
ATOM      9  C   UNL     1       1.593   7.879  20.208  0.00  0.00    +0.000 A 
ATOM     10  C   UNL     1       1.399   8.977  19.366  0.00  0.00    +0.000 A 
ATOM     11  C   UNL     1       2.080   8.995  18.140  0.00  0.00    +0.000 A 
ATOM     12  C   UNL     1       2.877   7.920  17.742  0.00  0.00    +0.000 A 
BRANCH   7  14
ATOM     13  C   UNL     1       4.629   5.862  16.785  0.00  0.00    +0.000 C 
ATOM     14  C   UNL     1       3.773   5.539  18.033  0.00  0.00    +0.000 C 
ATOM     15  C   UNL     1       2.767   4.433  17.678  0.00  0.00    +0.000 C 
ATOM     16  C   UNL     1       4.757   4.994  19.096  0.00  0.00    +0.000 C 
ENDBRANCH   7  14
ENDBRANCH   1  10
BRANCH   4  17
ATOM     17  C   UNL     1      -0.801  11.576  22.603  0.00  0.00    +0.000 A 
ATOM     18  C   UNL     1      -0.482  12.855  22.134  0.00  0.00    +0.000 A 
ATOM     19  C   UNL     1      -1.392  13.913  22.260  0.00  0.00    +0.000 A 
ATOM     20  C   UNL     1      -2.654  13.732  22.849  0.00  0.00    +0.000 A 
ATOM     21  C   UNL     1      -2.952  12.450  23.342  0.00  0.00    +0.000 A 
ATOM     22  C   UNL     1      -2.050  11.392  23.211  0.00  0.00    +0.000 A 
BRANCH  20  23
ATOM     23  C   UNL     1      -3.708  14.848  22.928  0.00  0.00    +0.000 C 
ATOM     24  C   UNL     1      -3.311  16.124  22.152  0.00  0.00    +0.000 C 
ATOM     25  C   UNL     1      -5.035  14.336  22.323  0.00  0.00    +0.000 C 
ATOM     26  C   UNL     1      -3.952  15.259  24.395  0.00  0.00    +0.000 C 
ENDBRANCH  20  23
ENDBRANCH   4  17
TORSDOF 4
ENDMDL
MODEL 8
REMARK VINA RESULT:      -7.0      1.364      9.375
REMARK  Name = 
REMARK  10 active torsions:
REMARK  status: ('A' for Active; 'I' for Inactive)
REMARK    1  A    between atoms: C_1  and  C_2
REMARK    2  A    between atoms: C_2  and  C_3
REMARK    3  A    between atoms: C_2  and  C_4
REMARK    4  A    between atoms: C_2  and  C_5
REMARK    5  A    between atoms: C_8  and  C_9
REMARK    6  A    between atoms: C_12  and  C_13
REMARK    7  A    between atoms: C_16  and  C_17
REMARK    8  A    between atoms: C_17  and  C_18
REMARK    9  A    between atoms: C_17  and  C_19
REMARK   10  A    between atoms: C_17  and  C_20
REMARK                            x       y       z     vdW  Elec       q    Type
REMARK                         _______ _______ _______ _____ _____    ______ ____
ROOT
ATOM      1  C   UNL     1       0.144  10.686  22.057  0.00  0.00    +0.000 C 
ATOM      2  O   UNL     1      -0.504   9.539  21.477  0.00  0.00    +0.000 OA
ATOM      3  O   UNL     1      -0.948   9.884  20.114  0.00  0.00    +0.000 OA
ATOM      4  C   UNL     1       0.202  10.290  19.350  0.00  0.00    +0.000 C 
ATOM      5  O   UNL     1       0.776  11.469  19.940  0.00  0.00    +0.000 OA
ATOM      6  O   UNL     1       1.279  11.084  21.268  0.00  0.00    +0.000 OA
ENDROOT
BRANCH   1  10
ATOM      7  C   UNL     1      -2.260  14.052  23.429  0.00  0.00    +0.000 A 
ATOM      8  C   UNL     1      -2.756  12.737  23.494  0.00  0.00    +0.000 A 
ATOM      9  C   UNL     1      -2.017  11.651  23.005  0.00  0.00    +0.000 A 
ATOM     10  C   UNL     1      -0.767  11.849  22.413  0.00  0.00    +0.000 A 
ATOM     11  C   UNL     1      -0.311  13.166  22.261  0.00  0.00    +0.000 A 
ATOM     12  C   UNL     1      -1.050  14.246  22.746  0.00  0.00    +0.000 A 
BRANCH   7  14
ATOM     13  C   UNL     1      -2.631  15.405  25.570  0.00  0.00    +0.000 C 
ATOM     14  C   UNL     1      -3.001  15.235  24.076  0.00  0.00    +0.000 C 
ATOM     15  C   UNL     1      -4.516  14.997  23.961  0.00  0.00    +0.000 C 
ATOM     16  C   UNL     1      -2.655  16.581  23.395  0.00  0.00    +0.000 C 
ENDBRANCH   7  14
ENDBRANCH   1  10
BRANCH   4  17
ATOM     17  C   UNL     1       1.227   9.195  19.087  0.00  0.00    +0.000 A 
ATOM     18  C   UNL     1       1.424   8.146  19.992  0.00  0.00    +0.000 A 
ATOM     19  C   UNL     1       2.306   7.099  19.696  0.00  0.00    +0.000 A 
ATOM     20  C   UNL     1       3.014   7.055  18.484  0.00  0.00    +0.000 A 
ATOM     21  C   UNL     1       2.829   8.127  17.595  0.00  0.00    +0.000 A 
ATOM     22  C   UNL     1       1.946   9.169  17.885  0.00  0.00    +0.000 A 
BRANCH  20  23
ATOM     23  C   UNL     1       3.925   5.880  18.090  0.00  0.00    +0.000 C 
ATOM     24  C   UNL     1       4.835   5.395  19.241  0.00  0.00    +0.000 C 
ATOM     25  C   UNL     1       3.048   4.682  17.660  0.00  0.00    +0.000 C 
ATOM     26  C   UNL     1       4.841   6.277  16.915  0.00  0.00    +0.000 C 
ENDBRANCH  20  23
ENDBRANCH   4  17
TORSDOF 4
ENDMDL
MODEL 9
REMARK VINA RESULT:      -7.0      0.408      1.303
REMARK  Name = 
REMARK  10 active torsions:
REMARK  status: ('A' for Active; 'I' for Inactive)
REMARK    1  A    between atoms: C_1  and  C_2
REMARK    2  A    between atoms: C_2  and  C_3
REMARK    3  A    between atoms: C_2  and  C_4
REMARK    4  A    between atoms: C_2  and  C_5
REMARK    5  A    between atoms: C_8  and  C_9
REMARK    6  A    between atoms: C_12  and  C_13
REMARK    7  A    between atoms: C_16  and  C_17
REMARK    8  A    between atoms: C_17  and  C_18
REMARK    9  A    between atoms: C_17  and  C_19
REMARK   10  A    between atoms: C_17  and  C_20
REMARK                            x       y       z     vdW  Elec       q    Type
REMARK                         _______ _______ _______ _____ _____    ______ ____
ROOT
ATOM      1  C   UNL     1       0.425   8.517  19.910  0.00  0.00    +0.000 C 
ATOM      2  O   UNL     1       0.322   8.513  21.346  0.00  0.00    +0.000 OA
ATOM      3  O   UNL     1       1.276   9.496  21.892  0.00  0.00    +0.000 OA
ATOM      4  C   UNL     1       0.965  10.788  21.338  0.00  0.00    +0.000 C 
ATOM      5  O   UNL     1       1.138  10.750  19.912  0.00  0.00    +0.000 OA
ATOM      6  O   UNL     1       0.127   9.821  19.381  0.00  0.00    +0.000 OA
ENDROOT
BRANCH   1  10
ATOM      7  C   UNL     1       3.847   6.597  18.015  0.00  0.00    +0.000 A 
ATOM      8  C   UNL     1       3.386   6.170  19.274  0.00  0.00    +0.000 A 
ATOM      9  C   UNL     1       2.322   6.814  19.920  0.00  0.00    +0.000 A 
ATOM     10  C   UNL     1       1.701   7.922  19.339  0.00  0.00    +0.000 A 
ATOM     11  C   UNL     1       2.218   8.408  18.130  0.00  0.00    +0.000 A 
ATOM     12  C   UNL     1       3.280   7.767  17.489  0.00  0.00    +0.000 A 
BRANCH   7  14
ATOM     13  C   UNL     1       5.195   6.441  15.844  0.00  0.00    +0.000 C 
ATOM     14  C   UNL     1       4.926   5.822  17.238  0.00  0.00    +0.000 C 
ATOM     15  C   UNL     1       4.463   4.367  17.058  0.00  0.00    +0.000 C 
ATOM     16  C   UNL     1       6.287   5.823  17.975  0.00  0.00    +0.000 C 
ENDBRANCH   7  14
ENDBRANCH   1  10
BRANCH   4  17
ATOM     17  C   UNL     1      -0.376  11.371  21.762  0.00  0.00    +0.000 A 
ATOM     18  C   UNL     1      -1.014  10.958  22.937  0.00  0.00    +0.000 A 
ATOM     19  C   UNL     1      -2.203  11.566  23.360  0.00  0.00    +0.000 A 
ATOM     20  C   UNL     1      -2.793  12.612  22.632  0.00  0.00    +0.000 A 
ATOM     21  C   UNL     1      -2.158  13.000  21.440  0.00  0.00    +0.000 A 
ATOM     22  C   UNL     1      -0.969  12.401  21.020  0.00  0.00    +0.000 A 
BRANCH  20  23
ATOM     23  C   UNL     1      -4.050  13.358  23.110  0.00  0.00    +0.000 C 
ATOM     24  C   UNL     1      -4.633  12.797  24.427  0.00  0.00    +0.000 C 
ATOM     25  C   UNL     1      -3.694  14.842  23.360  0.00  0.00    +0.000 C 
ATOM     26  C   UNL     1      -5.161  13.281  22.044  0.00  0.00    +0.000 C 
ENDBRANCH  20  23
ENDBRANCH   4  17
TORSDOF 4
ENDMDL
