MODEL 1
REMARK VINA RESULT:      -8.7      0.000      0.000
REMARK  Name = 
REMARK  3 active torsions:
REMARK  status: ('A' for Active; 'I' for Inactive)
REMARK    1  A    between atoms: C_1  and  N_2
REMARK    2  A    between atoms: C_4  and  C_5
REMARK    3  A    between atoms: C_14  and  C_15
REMARK                            x       y       z     vdW  Elec       q    Type
REMARK                         _______ _______ _______ _____ _____    ______ ____
ROOT
ATOM      1  C   UNL     1       1.667   2.664  21.637  0.00  0.00    +0.000 C 
ATOM      2  N   UNL     1       2.268   3.640  20.759  0.00  0.00    +0.000 N 
ATOM      3  C   UNL     1       3.328   3.444  19.931  0.00  0.00    +0.000 A 
ATOM      4  C   UNL     1       3.537   4.640  19.271  0.00  0.00    +0.000 A 
ATOM      5  C   UNL     1       2.511   5.512  19.782  0.00  0.00    +0.000 A 
ATOM      6  N   UNL     1       1.767   4.883  20.710  0.00  0.00    +0.000 NA
ENDROOT
BRANCH   4   7
ATOM      7  C   UNL     1       4.619   4.842  18.310  0.00  0.00    +0.000 A 
ATOM      8  C   UNL     1       5.820   5.450  18.702  0.00  0.00    +0.000 A 
ATOM      9  C   UNL     1       6.844   5.732  17.791  0.00  0.00    +0.000 A 
ATOM     10  C   UNL     1       6.664   5.306  16.476  0.00  0.00    +0.000 A 
ATOM     11  N   UNL     1       7.501   5.408  15.384  0.00  0.00    +0.000 N 
ATOM     12  C   UNL     1       6.932   4.805  14.293  0.00  0.00    +0.000 A 
ATOM     13  C   UNL     1       5.695   4.335  14.671  0.00  0.00    +0.000 A 
ATOM     14  C   UNL     1       5.511   4.652  16.046  0.00  0.00    +0.000 A 
ATOM     15  C   UNL     1       4.469   4.437  16.971  0.00  0.00    +0.000 A 
ATOM     16  H   UNL     1       8.412   5.846  15.403  0.00  0.00    +0.000 HD
ENDBRANCH   4   7
BRANCH   5  17
ATOM     17  C   UNL     1       2.235   6.911  19.441  0.00  0.00    +0.000 A 
ATOM     18  C   UNL     1       1.690   7.788  20.380  0.00  0.00    +0.000 A 
ATOM     19  C   UNL     1       1.315   9.053  19.964  0.00  0.00    +0.000 A 
ATOM     20  N   UNL     1       1.495   9.514  18.708  0.00  0.00    +0.000 NA
ATOM     21  C   UNL     1       2.088   8.673  17.835  0.00  0.00    +0.000 A 
ATOM     22  C   UNL     1       2.470   7.378  18.147  0.00  0.00    +0.000 A 
ENDBRANCH   5  17
TORSDOF 2
ENDMDL
MODEL 2
REMARK VINA RESULT:      -8.4      0.152      1.036
REMARK  Name = 
REMARK  3 active torsions:
REMARK  status: ('A' for Active; 'I' for Inactive)
REMARK    1  A    between atoms: C_1  and  N_2
REMARK    2  A    between atoms: C_4  and  C_5
REMARK    3  A    between atoms: C_14  and  C_15
REMARK                            x       y       z     vdW  Elec       q    Type
REMARK                         _______ _______ _______ _____ _____    ______ ____
ROOT
ATOM      1  C   UNL     1       1.955   2.661  21.770  0.00  0.00    +0.000 C 
ATOM      2  N   UNL     1       2.479   3.627  20.834  0.00  0.00    +0.000 N 
ATOM      3  C   UNL     1       3.531   3.453  19.991  0.00  0.00    +0.000 A 
ATOM      4  C   UNL     1       3.655   4.626  19.271  0.00  0.00    +0.000 A 
ATOM      5  C   UNL     1       2.590   5.461  19.765  0.00  0.00    +0.000 A 
ATOM      6  N   UNL     1       1.904   4.835  20.739  0.00  0.00    +0.000 NA
ENDROOT
BRANCH   4   7
ATOM      7  C   UNL     1       4.703   4.844  18.276  0.00  0.00    +0.000 A 
ATOM      8  C   UNL     1       5.889   5.508  18.621  0.00  0.00    +0.000 A 
ATOM      9  C   UNL     1       6.878   5.804  17.675  0.00  0.00    +0.000 A 
ATOM     10  C   UNL     1       6.679   5.338  16.376  0.00  0.00    +0.000 A 
ATOM     11  N   UNL     1       7.483   5.444  15.260  0.00  0.00    +0.000 N 
ATOM     12  C   UNL     1       6.909   4.792  14.200  0.00  0.00    +0.000 A 
ATOM     13  C   UNL     1       5.701   4.286  14.623  0.00  0.00    +0.000 A 
ATOM     14  C   UNL     1       5.541   4.630  15.995  0.00  0.00    +0.000 A 
ATOM     15  C   UNL     1       4.534   4.400  16.952  0.00  0.00    +0.000 A 
ATOM     16  H   UNL     1       8.377   5.916  15.243  0.00  0.00    +0.000 HD
ENDBRANCH   4   7
BRANCH   5  17
ATOM     17  C   UNL     1       2.224   6.823  19.365  0.00  0.00    +0.000 A 
ATOM     18  C   UNL     1       2.467   7.284  18.070  0.00  0.00    +0.000 A 
ATOM     19  C   UNL     1       2.236   8.619  17.789  0.00  0.00    +0.000 A 
ATOM     20  N   UNL     1       1.736   9.498  18.681  0.00  0.00    +0.000 NA
ATOM     21  C   UNL     1       1.443   9.014  19.907  0.00  0.00    +0.000 A 
ATOM     22  C   UNL     1       1.667   7.703  20.294  0.00  0.00    +0.000 A 
ENDBRANCH   5  17
TORSDOF 2
ENDMDL
MODEL 3
REMARK VINA RESULT:      -8.2      2.180      6.169
REMARK  Name = 
REMARK  3 active torsions:
REMARK  status: ('A' for Active; 'I' for Inactive)
REMARK    1  A    between atoms: C_1  and  N_2
REMARK    2  A    between atoms: C_4  and  C_5
REMARK    3  A    between atoms: C_14  and  C_15
REMARK                            x       y       z     vdW  Elec       q    Type
REMARK                         _______ _______ _______ _____ _____    ______ ____
ROOT
ATOM      1  C   UNL     1       6.840   4.007  12.733  0.00  0.00    +0.000 C 
ATOM      2  N   UNL     1       6.412   4.414  14.051  0.00  0.00    +0.000 N 
ATOM      3  C   UNL     1       5.240   4.091  14.659  0.00  0.00    +0.000 A 
ATOM      4  C   UNL     1       5.273   4.678  15.910  0.00  0.00    +0.000 A 
ATOM      5  C   UNL     1       6.551   5.341  15.959  0.00  0.00    +0.000 A 
ATOM      6  N   UNL     1       7.214   5.186  14.798  0.00  0.00    +0.000 NA
ENDROOT
BRANCH   4   7
ATOM      7  C   UNL     1       4.168   4.587  16.862  0.00  0.00    +0.000 A 
ATOM      8  C   UNL     1       3.690   5.732  17.515  0.00  0.00    +0.000 A 
ATOM      9  C   UNL     1       2.689   5.669  18.491  0.00  0.00    +0.000 A 
ATOM     10  C   UNL     1       2.116   4.423  18.739  0.00  0.00    +0.000 A 
ATOM     11  N   UNL     1       1.102   4.065  19.604  0.00  0.00    +0.000 N 
ATOM     12  C   UNL     1       0.826   2.728  19.483  0.00  0.00    +0.000 A 
ATOM     13  C   UNL     1       1.696   2.203  18.553  0.00  0.00    +0.000 A 
ATOM     14  C   UNL     1       2.520   3.263  18.081  0.00  0.00    +0.000 A 
ATOM     15  C   UNL     1       3.573   3.344  17.148  0.00  0.00    +0.000 A 
ATOM     16  H   UNL     1       0.621   4.709  20.217  0.00  0.00    +0.000 HD
ENDBRANCH   4   7
BRANCH   5  17
ATOM     17  C   UNL     1       7.142   6.126  17.046  0.00  0.00    +0.000 A 
ATOM     18  C   UNL     1       7.359   7.498  16.909  0.00  0.00    +0.000 A 
ATOM     19  C   UNL     1       8.051   8.161  17.907  0.00  0.00    +0.000 A 
ATOM     20  N   UNL     1       8.485   7.569  19.039  0.00  0.00    +0.000 NA
ATOM     21  C   UNL     1       8.202   6.257  19.182  0.00  0.00    +0.000 A 
ATOM     22  C   UNL     1       7.544   5.499  18.227  0.00  0.00    +0.000 A 
ENDBRANCH   5  17
TORSDOF 2
ENDMDL
MODEL 4
REMARK VINA RESULT:      -8.1      1.674      6.301
REMARK  Name = 
REMARK  3 active torsions:
REMARK  status: ('A' for Active; 'I' for Inactive)
REMARK    1  A    between atoms: C_1  and  N_2
REMARK    2  A    between atoms: C_4  and  C_5
REMARK    3  A    between atoms: C_14  and  C_15
REMARK                            x       y       z     vdW  Elec       q    Type
REMARK                         _______ _______ _______ _____ _____    ______ ____
ROOT
ATOM      1  C   UNL     1       6.305   5.276  15.775  0.00  0.00    +0.000 C 
ATOM      2  N   UNL     1       5.192   5.480  16.673  0.00  0.00    +0.000 N 
ATOM      3  C   UNL     1       4.579   6.661  16.951  0.00  0.00    +0.000 A 
ATOM      4  C   UNL     1       3.559   6.373  17.838  0.00  0.00    +0.000 A 
ATOM      5  C   UNL     1       3.641   4.947  18.025  0.00  0.00    +0.000 A 
ATOM      6  N   UNL     1       4.666   4.431  17.321  0.00  0.00    +0.000 NA
ENDROOT
BRANCH   4   7
ATOM      7  C   UNL     1       2.684   7.397  18.405  0.00  0.00    +0.000 A 
ATOM      8  C   UNL     1       2.232   8.466  17.619  0.00  0.00    +0.000 A 
ATOM      9  C   UNL     1       1.459   9.506  18.149  0.00  0.00    +0.000 A 
ATOM     10  C   UNL     1       1.078   9.400  19.486  0.00  0.00    +0.000 A 
ATOM     11  N   UNL     1       0.300  10.237  20.260  0.00  0.00    +0.000 N 
ATOM     12  C   UNL     1       0.144   9.712  21.516  0.00  0.00    +0.000 A 
ATOM     13  C   UNL     1       0.858   8.537  21.570  0.00  0.00    +0.000 A 
ATOM     14  C   UNL     1       1.458   8.332  20.296  0.00  0.00    +0.000 A 
ATOM     15  C   UNL     1       2.288   7.331  19.753  0.00  0.00    +0.000 A 
ATOM     16  H   UNL     1      -0.111  11.100  19.930  0.00  0.00    +0.000 HD
ENDBRANCH   4   7
BRANCH   5  17
ATOM     17  C   UNL     1       2.806   4.076  18.857  0.00  0.00    +0.000 A 
ATOM     18  C   UNL     1       1.546   3.660  18.425  0.00  0.00    +0.000 A 
ATOM     19  C   UNL     1       0.742   2.960  19.308  0.00  0.00    +0.000 A 
ATOM     20  N   UNL     1       1.125   2.606  20.552  0.00  0.00    +0.000 NA
ATOM     21  C   UNL     1       2.375   2.958  20.923  0.00  0.00    +0.000 A 
ATOM     22  C   UNL     1       3.242   3.686  20.124  0.00  0.00    +0.000 A 
ENDBRANCH   5  17
TORSDOF 2
ENDMDL
MODEL 5
REMARK VINA RESULT:      -8.1      1.793      6.336
REMARK  Name = 
REMARK  3 active torsions:
REMARK  status: ('A' for Active; 'I' for Inactive)
REMARK    1  A    between atoms: C_1  and  N_2
REMARK    2  A    between atoms: C_4  and  C_5
REMARK    3  A    between atoms: C_14  and  C_15
REMARK                            x       y       z     vdW  Elec       q    Type
REMARK                         _______ _______ _______ _____ _____    ______ ____
ROOT
ATOM      1  C   UNL     1       6.317   5.423  15.917  0.00  0.00    +0.000 C 
ATOM      2  N   UNL     1       5.160   5.608  16.760  0.00  0.00    +0.000 N 
ATOM      3  C   UNL     1       4.563   6.789  17.073  0.00  0.00    +0.000 A 
ATOM      4  C   UNL     1       3.486   6.482  17.882  0.00  0.00    +0.000 A 
ATOM      5  C   UNL     1       3.519   5.046  17.989  0.00  0.00    +0.000 A 
ATOM      6  N   UNL     1       4.568   4.540  17.316  0.00  0.00    +0.000 NA
ENDROOT
BRANCH   4   7
ATOM      7  C   UNL     1       2.606   7.498  18.458  0.00  0.00    +0.000 A 
ATOM      8  C   UNL     1       2.122   8.553  17.672  0.00  0.00    +0.000 A 
ATOM      9  C   UNL     1       1.345   9.585  18.209  0.00  0.00    +0.000 A 
ATOM     10  C   UNL     1       0.993   9.486  19.554  0.00  0.00    +0.000 A 
ATOM     11  N   UNL     1       0.218  10.318  20.336  0.00  0.00    +0.000 N 
ATOM     12  C   UNL     1       0.096   9.803  21.600  0.00  0.00    +0.000 A 
ATOM     13  C   UNL     1       0.829   8.639  21.650  0.00  0.00    +0.000 A 
ATOM     14  C   UNL     1       1.406   8.431  20.366  0.00  0.00    +0.000 A 
ATOM     15  C   UNL     1       2.240   7.438  19.814  0.00  0.00    +0.000 A 
ATOM     16  H   UNL     1      -0.213  11.172  20.007  0.00  0.00    +0.000 HD
ENDBRANCH   4   7
BRANCH   5  17
ATOM     17  C   UNL     1       2.613   4.154  18.719  0.00  0.00    +0.000 A 
ATOM     18  C   UNL     1       2.851   3.821  20.053  0.00  0.00    +0.000 A 
ATOM     19  C   UNL     1       2.049   2.864  20.649  0.00  0.00    +0.000 A 
ATOM     20  N   UNL     1       1.008   2.268  20.032  0.00  0.00    +0.000 NA
ATOM     21  C   UNL     1       0.752   2.658  18.765  0.00  0.00    +0.000 A 
ATOM     22  C   UNL     1       1.516   3.584  18.073  0.00  0.00    +0.000 A 
ENDBRANCH   5  17
TORSDOF 2
ENDMDL
MODEL 6
REMARK VINA RESULT:      -8.0      2.195      6.185
REMARK  Name = 
REMARK  3 active torsions:
REMARK  status: ('A' for Active; 'I' for Inactive)
REMARK    1  A    between atoms: C_1  and  N_2
REMARK    2  A    between atoms: C_4  and  C_5
REMARK    3  A    between atoms: C_14  and  C_15
REMARK                            x       y       z     vdW  Elec       q    Type
REMARK                         _______ _______ _______ _____ _____    ______ ____
ROOT
ATOM      1  C   UNL     1       6.534   3.660  12.626  0.00  0.00    +0.000 C 
ATOM      2  N   UNL     1       6.194   4.082  13.965  0.00  0.00    +0.000 N 
ATOM      3  C   UNL     1       5.022   3.854  14.615  0.00  0.00    +0.000 A 
ATOM      4  C   UNL     1       5.155   4.416  15.870  0.00  0.00    +0.000 A 
ATOM      5  C   UNL     1       6.487   4.963  15.877  0.00  0.00    +0.000 A 
ATOM      6  N   UNL     1       7.090   4.768  14.690  0.00  0.00    +0.000 NA
ENDROOT
BRANCH   4   7
ATOM      7  C   UNL     1       4.083   4.408  16.864  0.00  0.00    +0.000 A 
ATOM      8  C   UNL     1       3.722   5.584  17.537  0.00  0.00    +0.000 A 
ATOM      9  C   UNL     1       2.757   5.595  18.551  0.00  0.00    +0.000 A 
ATOM     10  C   UNL     1       2.097   4.397  18.818  0.00  0.00    +0.000 A 
ATOM     11  N   UNL     1       1.092   4.115  19.720  0.00  0.00    +0.000 N 
ATOM     12  C   UNL     1       0.707   2.805  19.607  0.00  0.00    +0.000 A 
ATOM     13  C   UNL     1       1.496   2.218  18.644  0.00  0.00    +0.000 A 
ATOM     14  C   UNL     1       2.383   3.212  18.143  0.00  0.00    +0.000 A 
ATOM     15  C   UNL     1       3.403   3.215  17.170  0.00  0.00    +0.000 A 
ATOM     16  H   UNL     1       0.687   4.793  20.352  0.00  0.00    +0.000 HD
ENDBRANCH   4   7
BRANCH   5  17
ATOM     17  C   UNL     1       7.187   5.676  16.950  0.00  0.00    +0.000 A 
ATOM     18  C   UNL     1       7.594   5.013  18.109  0.00  0.00    +0.000 A 
ATOM     19  C   UNL     1       8.118   5.761  19.148  0.00  0.00    +0.000 A 
ATOM     20  N   UNL     1       8.311   7.095  19.090  0.00  0.00    +0.000 NA
ATOM     21  C   UNL     1       7.976   7.704  17.933  0.00  0.00    +0.000 A 
ATOM     22  C   UNL     1       7.415   7.049  16.849  0.00  0.00    +0.000 A 
ENDBRANCH   5  17
TORSDOF 2
ENDMDL
MODEL 7
REMARK VINA RESULT:      -8.0      1.097      5.607
REMARK  Name = 
REMARK  3 active torsions:
REMARK  status: ('A' for Active; 'I' for Inactive)
REMARK    1  A    between atoms: C_1  and  N_2
REMARK    2  A    between atoms: C_4  and  C_5
REMARK    3  A    between atoms: C_14  and  C_15
REMARK                            x       y       z     vdW  Elec       q    Type
REMARK                         _______ _______ _______ _____ _____    ______ ____
ROOT
ATOM      1  C   UNL     1       2.064   2.479  21.691  0.00  0.00    +0.000 C 
ATOM      2  N   UNL     1       2.540   3.548  20.845  0.00  0.00    +0.000 N 
ATOM      3  C   UNL     1       1.937   4.748  20.637  0.00  0.00    +0.000 A 
ATOM      4  C   UNL     1       2.758   5.455  19.779  0.00  0.00    +0.000 A 
ATOM      5  C   UNL     1       3.866   4.567  19.534  0.00  0.00    +0.000 A 
ATOM      6  N   UNL     1       3.693   3.398  20.177  0.00  0.00    +0.000 NA
ENDROOT
BRANCH   4   7
ATOM      7  C   UNL     1       2.433   6.792  19.286  0.00  0.00    +0.000 A 
ATOM      8  C   UNL     1       2.802   7.187  17.992  0.00  0.00    +0.000 A 
ATOM      9  C   UNL     1       2.578   8.484  17.518  0.00  0.00    +0.000 A 
ATOM     10  C   UNL     1       1.893   9.362  18.357  0.00  0.00    +0.000 A 
ATOM     11  N   UNL     1       1.503  10.669  18.151  0.00  0.00    +0.000 N 
ATOM     12  C   UNL     1       0.805  11.132  19.236  0.00  0.00    +0.000 A 
ATOM     13  C   UNL     1       0.771  10.124  20.173  0.00  0.00    +0.000 A 
ATOM     14  C   UNL     1       1.461   9.003  19.632  0.00  0.00    +0.000 A 
ATOM     15  C   UNL     1       1.754   7.710  20.108  0.00  0.00    +0.000 A 
ATOM     16  H   UNL     1       1.690  11.194  17.307  0.00  0.00    +0.000 HD
ENDBRANCH   4   7
BRANCH   5  17
ATOM     17  C   UNL     1       5.053   4.782  18.702  0.00  0.00    +0.000 A 
ATOM     18  C   UNL     1       5.088   4.357  17.373  0.00  0.00    +0.000 A 
ATOM     19  C   UNL     1       6.281   4.453  16.679  0.00  0.00    +0.000 A 
ATOM     20  N   UNL     1       7.408   4.988  17.194  0.00  0.00    +0.000 NA
ATOM     21  C   UNL     1       7.331   5.457  18.457  0.00  0.00    +0.000 A 
ATOM     22  C   UNL     1       6.193   5.377  19.244  0.00  0.00    +0.000 A 
ENDBRANCH   5  17
TORSDOF 2
ENDMDL
MODEL 8
REMARK VINA RESULT:      -7.9      1.098      5.458
REMARK  Name = 
REMARK  3 active torsions:
REMARK  status: ('A' for Active; 'I' for Inactive)
REMARK    1  A    between atoms: C_1  and  N_2
REMARK    2  A    between atoms: C_4  and  C_5
REMARK    3  A    between atoms: C_14  and  C_15
REMARK                            x       y       z     vdW  Elec       q    Type
REMARK                         _______ _______ _______ _____ _____    ______ ____
ROOT
ATOM      1  C   UNL     1       1.967   2.462  21.656  0.00  0.00    +0.000 C 
ATOM      2  N   UNL     1       2.488   3.514  20.816  0.00  0.00    +0.000 N 
ATOM      3  C   UNL     1       1.913   4.723  20.578  0.00  0.00    +0.000 A 
ATOM      4  C   UNL     1       2.774   5.408  19.741  0.00  0.00    +0.000 A 
ATOM      5  C   UNL     1       3.873   4.500  19.540  0.00  0.00    +0.000 A 
ATOM      6  N   UNL     1       3.660   3.339  20.187  0.00  0.00    +0.000 NA
ENDROOT
BRANCH   4   7
ATOM      7  C   UNL     1       2.488   6.746  19.227  0.00  0.00    +0.000 A 
ATOM      8  C   UNL     1       2.933   7.133  17.955  0.00  0.00    +0.000 A 
ATOM      9  C   UNL     1       2.747   8.431  17.465  0.00  0.00    +0.000 A 
ATOM     10  C   UNL     1       2.021   9.316  18.260  0.00  0.00    +0.000 A 
ATOM     11  N   UNL     1       1.654  10.626  18.028  0.00  0.00    +0.000 N 
ATOM     12  C   UNL     1       0.898  11.098  19.069  0.00  0.00    +0.000 A 
ATOM     13  C   UNL     1       0.802  10.093  20.006  0.00  0.00    +0.000 A 
ATOM     14  C   UNL     1       1.514   8.965  19.509  0.00  0.00    +0.000 A 
ATOM     15  C   UNL     1       1.769   7.671  20.005  0.00  0.00    +0.000 A 
ATOM     16  H   UNL     1       1.893  11.146  17.195  0.00  0.00    +0.000 HD
ENDBRANCH   4   7
BRANCH   5  17
ATOM     17  C   UNL     1       5.091   4.687  18.745  0.00  0.00    +0.000 A 
ATOM     18  C   UNL     1       6.199   5.352  19.270  0.00  0.00    +0.000 A 
ATOM     19  C   UNL     1       7.264   5.628  18.431  0.00  0.00    +0.000 A 
ATOM     20  N   UNL     1       7.321   5.242  17.139  0.00  0.00    +0.000 NA
ATOM     21  C   UNL     1       6.267   4.538  16.672  0.00  0.00    +0.000 A 
ATOM     22  C   UNL     1       5.143   4.240  17.424  0.00  0.00    +0.000 A 
ENDBRANCH   5  17
TORSDOF 2
ENDMDL
MODEL 9
REMARK VINA RESULT:      -7.8      1.786      6.261
REMARK  Name = 
REMARK  3 active torsions:
REMARK  status: ('A' for Active; 'I' for Inactive)
REMARK    1  A    between atoms: C_1  and  N_2
REMARK    2  A    between atoms: C_4  and  C_5
REMARK    3  A    between atoms: C_14  and  C_15
REMARK                            x       y       z     vdW  Elec       q    Type
REMARK                         _______ _______ _______ _____ _____    ______ ____
ROOT
ATOM      1  C   UNL     1       6.033   5.496  15.395  0.00  0.00    +0.000 C 
ATOM      2  N   UNL     1       5.008   5.601  16.407  0.00  0.00    +0.000 N 
ATOM      3  C   UNL     1       4.425   6.743  16.856  0.00  0.00    +0.000 A 
ATOM      4  C   UNL     1       3.491   6.361  17.800  0.00  0.00    +0.000 A 
ATOM      5  C   UNL     1       3.588   4.925  17.837  0.00  0.00    +0.000 A 
ATOM      6  N   UNL     1       4.543   4.489  16.995  0.00  0.00    +0.000 NA
ENDROOT
BRANCH   4   7
ATOM      7  C   UNL     1       2.672   7.317  18.543  0.00  0.00    +0.000 A 
ATOM      8  C   UNL     1       2.373   7.103  19.896  0.00  0.00    +0.000 A 
ATOM      9  C   UNL     1       1.527   7.955  20.616  0.00  0.00    +0.000 A 
ATOM     10  C   UNL     1       1.049   9.086  19.956  0.00  0.00    +0.000 A 
ATOM     11  N   UNL     1       0.240  10.108  20.411  0.00  0.00    +0.000 N 
ATOM     12  C   UNL     1       0.063  11.046  19.428  0.00  0.00    +0.000 A 
ATOM     13  C   UNL     1       0.737  10.611  18.309  0.00  0.00    +0.000 A 
ATOM     14  C   UNL     1       1.358   9.371  18.627  0.00  0.00    +0.000 A 
ATOM     15  C   UNL     1       2.162   8.464  17.909  0.00  0.00    +0.000 A 
ATOM     16  H   UNL     1      -0.142  10.159  21.346  0.00  0.00    +0.000 HD
ENDBRANCH   4   7
BRANCH   5  17
ATOM     17  C   UNL     1       2.832   3.969  18.651  0.00  0.00    +0.000 A 
ATOM     18  C   UNL     1       1.569   3.525  18.256  0.00  0.00    +0.000 A 
ATOM     19  C   UNL     1       0.840   2.740  19.130  0.00  0.00    +0.000 A 
ATOM     20  N   UNL     1       1.300   2.327  20.330  0.00  0.00    +0.000 NA
ATOM     21  C   UNL     1       2.552   2.710  20.661  0.00  0.00    +0.000 A 
ATOM     22  C   UNL     1       3.347   3.521  19.869  0.00  0.00    +0.000 A 
ENDBRANCH   5  17
TORSDOF 2
ENDMDL
