MODEL 1
REMARK VINA RESULT:      -9.2      0.000      0.000
REMARK  Name = 
REMARK  8 active torsions:
REMARK  status: ('A' for Active; 'I' for Inactive)
REMARK    1  A    between atoms: C_2  and  C_4
REMARK    2  A    between atoms: C_8  and  O_9
REMARK    3  A    between atoms: O_9  and  C_10
REMARK    4  A    between atoms: C_10  and  C_11
REMARK    5  A    between atoms: C_15  and  C_16
REMARK    6  A    between atoms: C_16  and  O_17
REMARK    7  A    between atoms: O_17  and  C_18
REMARK    8  A    between atoms: C_22  and  C_23
REMARK                            x       y       z     vdW  Elec       q    Type
REMARK                         _______ _______ _______ _____ _____    ______ ____
ROOT
ATOM      1  C   UNL     1       6.582   5.935  17.070  0.00  0.00    +0.000 A 
ATOM      2  C   UNL     1       7.092   5.126  18.098  0.00  0.00    +0.000 A 
ATOM      3  C   UNL     1       7.968   5.662  19.047  0.00  0.00    +0.000 A 
ATOM      4  C   UNL     1       8.346   7.004  18.974  0.00  0.00    +0.000 A 
ATOM      5  C   UNL     1       7.852   7.822  17.946  0.00  0.00    +0.000 A 
ATOM      6  C   UNL     1       6.967   7.284  17.000  0.00  0.00    +0.000 A 
ENDROOT
BRANCH   1   7
ATOM      7  C   UNL     1       5.600   5.382  16.079  0.00  0.00    +0.000 C 
BRANCH   7   8
ATOM      8  O   UNL     1       4.332   5.900  16.278  0.00  0.00    +0.000 OA
BRANCH   8  13
ATOM      9  C   UNL     1       2.251   4.174  18.792  0.00  0.00    +0.000 A 
ATOM     10  C   UNL     1       2.044   5.233  19.701  0.00  0.00    +0.000 A 
ATOM     11  C   UNL     1       2.595   6.490  19.473  0.00  0.00    +0.000 A 
ATOM     12  C   UNL     1       3.360   6.725  18.338  0.00  0.00    +0.000 A 
ATOM     13  C   UNL     1       3.593   5.696  17.405  0.00  0.00    +0.000 A 
ATOM     14  C   UNL     1       3.036   4.426  17.640  0.00  0.00    +0.000 A 
BRANCH   9  16
ATOM     15  N   UNL     1       0.568   2.781  19.800  0.00  0.00    +0.000 NA
ATOM     16  C   UNL     1       1.632   2.836  19.076  0.00  0.00    +0.000 C 
ATOM     17  N   UNL     1       2.180   1.623  18.571  0.00  0.00    +0.000 N 
ATOM     18  H   UNL     1       0.104   1.888  20.022  0.00  0.00    +0.000 HD
ATOM     19  H   UNL     1       1.726   0.723  18.786  0.00  0.00    +0.000 HD
ATOM     20  H   UNL     1       3.031   1.594  17.998  0.00  0.00    +0.000 HD
ENDBRANCH   9  16
ENDBRANCH   8  13
ENDBRANCH   7   8
ENDBRANCH   1   7
BRANCH   5  21
ATOM     21  C   UNL     1       8.285   9.254  17.846  0.00  0.00    +0.000 C 
BRANCH  21  22
ATOM     22  O   UNL     1       8.972   9.640  18.983  0.00  0.00    +0.000 OA
BRANCH  22  23
ATOM     23  C   UNL     1       9.658  10.808  19.111  0.00  0.00    +0.000 A 
ATOM     24  C   UNL     1       9.921  11.294  20.395  0.00  0.00    +0.000 A 
ATOM     25  C   UNL     1      10.629  12.483  20.563  0.00  0.00    +0.000 A 
ATOM     26  C   UNL     1      11.083  13.201  19.454  0.00  0.00    +0.000 A 
ATOM     27  C   UNL     1      10.836  12.745  18.137  0.00  0.00    +0.000 A 
ATOM     28  C   UNL     1      10.116  11.539  17.995  0.00  0.00    +0.000 A 
BRANCH  27  29
ATOM     29  C   UNL     1      11.318  13.510  16.918  0.00  0.00    +0.000 C 
ATOM     30  N   UNL     1      10.832  14.663  16.606  0.00  0.00    +0.000 NA
ATOM     31  N   UNL     1      12.333  12.991  16.062  0.00  0.00    +0.000 N 
ATOM     32  H   UNL     1      10.101  15.158  17.127  0.00  0.00    +0.000 HD
ATOM     33  H   UNL     1      12.796  12.088  16.200  0.00  0.00    +0.000 HD
ATOM     34  H   UNL     1      12.636  13.539  15.243  0.00  0.00    +0.000 HD
ENDBRANCH  27  29
ENDBRANCH  22  23
ENDBRANCH  21  22
ENDBRANCH   5  21
TORSDOF 8
ENDMDL
MODEL 2
REMARK VINA RESULT:      -8.7      4.913      7.858
REMARK  Name = 
REMARK  8 active torsions:
REMARK  status: ('A' for Active; 'I' for Inactive)
REMARK    1  A    between atoms: C_2  and  C_4
REMARK    2  A    between atoms: C_8  and  O_9
REMARK    3  A    between atoms: O_9  and  C_10
REMARK    4  A    between atoms: C_10  and  C_11
REMARK    5  A    between atoms: C_15  and  C_16
REMARK    6  A    between atoms: C_16  and  O_17
REMARK    7  A    between atoms: O_17  and  C_18
REMARK    8  A    between atoms: C_22  and  C_23
REMARK                            x       y       z     vdW  Elec       q    Type
REMARK                         _______ _______ _______ _____ _____    ______ ____
ROOT
ATOM      1  C   UNL     1       1.931   6.245  19.680  0.00  0.00    +0.000 A 
ATOM      2  C   UNL     1       1.471   5.515  20.788  0.00  0.00    +0.000 A 
ATOM      3  C   UNL     1       1.439   4.118  20.746  0.00  0.00    +0.000 A 
ATOM      4  C   UNL     1       1.859   3.440  19.599  0.00  0.00    +0.000 A 
ATOM      5  C   UNL     1       2.311   4.157  18.481  0.00  0.00    +0.000 A 
ATOM      6  C   UNL     1       2.350   5.559  18.529  0.00  0.00    +0.000 A 
ENDROOT
BRANCH   1   7
ATOM      7  C   UNL     1       2.019   7.742  19.735  0.00  0.00    +0.000 C 
BRANCH   7   8
ATOM      8  O   UNL     1       1.713   8.221  20.997  0.00  0.00    +0.000 OA
BRANCH   8  13
ATOM      9  C   UNL     1      -0.528  11.094  20.400  0.00  0.00    +0.000 A 
ATOM     10  C   UNL     1      -1.061  11.258  21.695  0.00  0.00    +0.000 A 
ATOM     11  C   UNL     1      -0.678  10.420  22.738  0.00  0.00    +0.000 A 
ATOM     12  C   UNL     1       0.244   9.404  22.518  0.00  0.00    +0.000 A 
ATOM     13  C   UNL     1       0.800   9.205  21.240  0.00  0.00    +0.000 A 
ATOM     14  C   UNL     1       0.408  10.052  20.188  0.00  0.00    +0.000 A 
BRANCH   9  16
ATOM     15  N   UNL     1      -1.942  12.836  19.529  0.00  0.00    +0.000 NA
ATOM     16  C   UNL     1      -0.966  12.027  19.307  0.00  0.00    +0.000 C 
ATOM     17  N   UNL     1      -0.337  12.048  18.029  0.00  0.00    +0.000 N 
ATOM     18  H   UNL     1      -2.279  13.496  18.814  0.00  0.00    +0.000 HD
ATOM     19  H   UNL     1      -0.664  12.703  17.304  0.00  0.00    +0.000 HD
ATOM     20  H   UNL     1       0.439  11.423  17.782  0.00  0.00    +0.000 HD
ENDBRANCH   9  16
ENDBRANCH   8  13
ENDBRANCH   7   8
ENDBRANCH   1   7
BRANCH   5  21
ATOM     21  C   UNL     1       2.728   3.432  17.236  0.00  0.00    +0.000 C 
BRANCH  21  22
ATOM     22  O   UNL     1       4.068   3.095  17.290  0.00  0.00    +0.000 OA
BRANCH  22  23
ATOM     23  C   UNL     1       5.092   3.961  17.063  0.00  0.00    +0.000 A 
ATOM     24  C   UNL     1       5.389   4.320  15.746  0.00  0.00    +0.000 A 
ATOM     25  C   UNL     1       6.427   5.212  15.478  0.00  0.00    +0.000 A 
ATOM     26  C   UNL     1       7.181   5.756  16.521  0.00  0.00    +0.000 A 
ATOM     27  C   UNL     1       6.915   5.416  17.869  0.00  0.00    +0.000 A 
ATOM     28  C   UNL     1       5.859   4.511  18.112  0.00  0.00    +0.000 A 
BRANCH  27  29
ATOM     29  C   UNL     1       7.723   5.994  19.016  0.00  0.00    +0.000 C 
ATOM     30  N   UNL     1       7.823   5.386  20.149  0.00  0.00    +0.000 NA
ATOM     31  N   UNL     1       8.413   7.236  18.895  0.00  0.00    +0.000 N 
ATOM     32  H   UNL     1       7.383   4.489  20.379  0.00  0.00    +0.000 HD
ATOM     33  H   UNL     1       8.411   7.815  18.050  0.00  0.00    +0.000 HD
ATOM     34  H   UNL     1       8.953   7.598  19.695  0.00  0.00    +0.000 HD
ENDBRANCH  27  29
ENDBRANCH  22  23
ENDBRANCH  21  22
ENDBRANCH   5  21
TORSDOF 8
ENDMDL
MODEL 3
REMARK VINA RESULT:      -8.5      4.932      8.557
REMARK  Name = 
REMARK  8 active torsions:
REMARK  status: ('A' for Active; 'I' for Inactive)
REMARK    1  A    between atoms: C_2  and  C_4
REMARK    2  A    between atoms: C_8  and  O_9
REMARK    3  A    between atoms: O_9  and  C_10
REMARK    4  A    between atoms: C_10  and  C_11
REMARK    5  A    between atoms: C_15  and  C_16
REMARK    6  A    between atoms: C_16  and  O_17
REMARK    7  A    between atoms: O_17  and  C_18
REMARK    8  A    between atoms: C_22  and  C_23
REMARK                            x       y       z     vdW  Elec       q    Type
REMARK                         _______ _______ _______ _____ _____    ______ ____
ROOT
ATOM      1  C   UNL     1       2.482   4.727  18.461  0.00  0.00    +0.000 A 
ATOM      2  C   UNL     1       2.101   4.562  19.803  0.00  0.00    +0.000 A 
ATOM      3  C   UNL     1       1.832   5.679  20.599  0.00  0.00    +0.000 A 
ATOM      4  C   UNL     1       1.947   6.965  20.068  0.00  0.00    +0.000 A 
ATOM      5  C   UNL     1       2.337   7.144  18.732  0.00  0.00    +0.000 A 
ATOM      6  C   UNL     1       2.599   6.022  17.932  0.00  0.00    +0.000 A 
ENDROOT
BRANCH   1   7
ATOM      7  C   UNL     1       2.722   3.533  17.584  0.00  0.00    +0.000 C 
BRANCH   7   8
ATOM      8  O   UNL     1       4.055   3.159  17.590  0.00  0.00    +0.000 OA
BRANCH   8  13
ATOM      9  C   UNL     1       6.966   5.404  17.927  0.00  0.00    +0.000 A 
ATOM     10  C   UNL     1       7.193   5.711  16.569  0.00  0.00    +0.000 A 
ATOM     11  C   UNL     1       6.389   5.171  15.570  0.00  0.00    +0.000 A 
ATOM     12  C   UNL     1       5.342   4.318  15.896  0.00  0.00    +0.000 A 
ATOM     13  C   UNL     1       5.081   3.986  17.239  0.00  0.00    +0.000 A 
ATOM     14  C   UNL     1       5.897   4.531  18.247  0.00  0.00    +0.000 A 
BRANCH   9  16
ATOM     15  N   UNL     1       8.331   7.196  18.775  0.00  0.00    +0.000 NA
ATOM     16  C   UNL     1       7.855   6.015  18.972  0.00  0.00    +0.000 C 
ATOM     17  N   UNL     1       8.191   5.334  20.177  0.00  0.00    +0.000 N 
ATOM     18  H   UNL     1       8.943   7.659  19.462  0.00  0.00    +0.000 HD
ATOM     19  H   UNL     1       8.803   5.786  20.872  0.00  0.00    +0.000 HD
ATOM     20  H   UNL     1       7.855   4.388  20.392  0.00  0.00    +0.000 HD
ENDBRANCH   9  16
ENDBRANCH   8  13
ENDBRANCH   7   8
ENDBRANCH   1   7
BRANCH   5  21
ATOM     21  C   UNL     1       2.496   8.526  18.170  0.00  0.00    +0.000 C 
BRANCH  21  22
ATOM     22  O   UNL     1       1.298   8.989  17.659  0.00  0.00    +0.000 OA
BRANCH  22  23
ATOM     23  C   UNL     1       0.446   9.819  18.318  0.00  0.00    +0.000 A 
ATOM     24  C   UNL     1       0.906  10.489  19.455  0.00  0.00    +0.000 A 
ATOM     25  C   UNL     1       0.062  11.353  20.150  0.00  0.00    +0.000 A 
ATOM     26  C   UNL     1      -1.251  11.561  19.720  0.00  0.00    +0.000 A 
ATOM     27  C   UNL     1      -1.758  10.900  18.575  0.00  0.00    +0.000 A 
ATOM     28  C   UNL     1      -0.882  10.030  17.890  0.00  0.00    +0.000 A 
BRANCH  27  29
ATOM     29  C   UNL     1      -3.181  11.110  18.092  0.00  0.00    +0.000 C 
ATOM     30  N   UNL     1      -3.759  10.271  17.301  0.00  0.00    +0.000 NA
ATOM     31  N   UNL     1      -3.949  12.243  18.492  0.00  0.00    +0.000 N 
ATOM     32  H   UNL     1      -3.332   9.415  16.934  0.00  0.00    +0.000 HD
ATOM     33  H   UNL     1      -3.604  12.980  19.114  0.00  0.00    +0.000 HD
ATOM     34  H   UNL     1      -4.912  12.353  18.144  0.00  0.00    +0.000 HD
ENDBRANCH  27  29
ENDBRANCH  22  23
ENDBRANCH  21  22
ENDBRANCH   5  21
TORSDOF 8
ENDMDL
MODEL 4
REMARK VINA RESULT:      -8.4      4.905      7.595
REMARK  Name = 
REMARK  8 active torsions:
REMARK  status: ('A' for Active; 'I' for Inactive)
REMARK    1  A    between atoms: C_2  and  C_4
REMARK    2  A    between atoms: C_8  and  O_9
REMARK    3  A    between atoms: O_9  and  C_10
REMARK    4  A    between atoms: C_10  and  C_11
REMARK    5  A    between atoms: C_15  and  C_16
REMARK    6  A    between atoms: C_16  and  O_17
REMARK    7  A    between atoms: O_17  and  C_18
REMARK    8  A    between atoms: C_22  and  C_23
REMARK                            x       y       z     vdW  Elec       q    Type
REMARK                         _______ _______ _______ _____ _____    ______ ____
ROOT
ATOM      1  C   UNL     1       2.252   7.034  18.746  0.00  0.00    +0.000 A 
ATOM      2  C   UNL     1       1.966   6.783  20.098  0.00  0.00    +0.000 A 
ATOM      3  C   UNL     1       1.940   5.471  20.579  0.00  0.00    +0.000 A 
ATOM      4  C   UNL     1       2.191   4.401  19.718  0.00  0.00    +0.000 A 
ATOM      5  C   UNL     1       2.468   4.637  18.363  0.00  0.00    +0.000 A 
ATOM      6  C   UNL     1       2.502   5.954  17.883  0.00  0.00    +0.000 A 
ENDROOT
BRANCH   1   7
ATOM      7  C   UNL     1       2.335   8.441  18.231  0.00  0.00    +0.000 C 
BRANCH   7   8
ATOM      8  O   UNL     1       1.122   9.097  18.351  0.00  0.00    +0.000 OA
BRANCH   8  13
ATOM      9  C   UNL     1      -0.066  10.851  21.375  0.00  0.00    +0.000 A 
ATOM     10  C   UNL     1       0.354  12.163  21.073  0.00  0.00    +0.000 A 
ATOM     11  C   UNL     1       1.022  12.446  19.885  0.00  0.00    +0.000 A 
ATOM     12  C   UNL     1       1.286  11.433  18.971  0.00  0.00    +0.000 A 
ATOM     13  C   UNL     1       0.885  10.109  19.233  0.00  0.00    +0.000 A 
ATOM     14  C   UNL     1       0.211   9.827  20.436  0.00  0.00    +0.000 A 
BRANCH   9  16
ATOM     15  N   UNL     1      -0.572   9.493  23.296  0.00  0.00    +0.000 NA
ATOM     16  C   UNL     1      -0.790  10.595  22.665  0.00  0.00    +0.000 C 
ATOM     17  N   UNL     1      -1.710  11.530  23.219  0.00  0.00    +0.000 N 
ATOM     18  H   UNL     1      -1.042   9.271  24.185  0.00  0.00    +0.000 HD
ATOM     19  H   UNL     1      -2.188  11.320  24.108  0.00  0.00    +0.000 HD
ATOM     20  H   UNL     1      -1.938  12.421  22.764  0.00  0.00    +0.000 HD
ENDBRANCH   9  16
ENDBRANCH   8  13
ENDBRANCH   7   8
ENDBRANCH   1   7
BRANCH   5  21
ATOM     21  C   UNL     1       2.702   3.487  17.429  0.00  0.00    +0.000 C 
BRANCH  21  22
ATOM     22  O   UNL     1       4.040   3.136  17.408  0.00  0.00    +0.000 OA
BRANCH  22  23
ATOM     23  C   UNL     1       5.058   3.989  17.115  0.00  0.00    +0.000 A 
ATOM     24  C   UNL     1       5.294   4.319  15.778  0.00  0.00    +0.000 A 
ATOM     25  C   UNL     1       6.324   5.197  15.443  0.00  0.00    +0.000 A 
ATOM     26  C   UNL     1       7.131   5.756  16.437  0.00  0.00    +0.000 A 
ATOM     27  C   UNL     1       6.928   5.446  17.803  0.00  0.00    +0.000 A 
ATOM     28  C   UNL     1       5.878   4.554  18.115  0.00  0.00    +0.000 A 
BRANCH  27  29
ATOM     29  C   UNL     1       7.794   6.040  18.898  0.00  0.00    +0.000 C 
ATOM     30  N   UNL     1       8.336   7.204  18.778  0.00  0.00    +0.000 NA
ATOM     31  N   UNL     1       8.046   5.341  20.115  0.00  0.00    +0.000 N 
ATOM     32  H   UNL     1       8.242   7.818  17.963  0.00  0.00    +0.000 HD
ATOM     33  H   UNL     1       7.675   4.410  20.331  0.00  0.00    +0.000 HD
ATOM     34  H   UNL     1       8.639   5.775  20.837  0.00  0.00    +0.000 HD
ENDBRANCH  27  29
ENDBRANCH  22  23
ENDBRANCH  21  22
ENDBRANCH   5  21
TORSDOF 8
ENDMDL
MODEL 5
REMARK VINA RESULT:      -8.4      4.887      7.572
REMARK  Name = 
REMARK  8 active torsions:
REMARK  status: ('A' for Active; 'I' for Inactive)
REMARK    1  A    between atoms: C_2  and  C_4
REMARK    2  A    between atoms: C_8  and  O_9
REMARK    3  A    between atoms: O_9  and  C_10
REMARK    4  A    between atoms: C_10  and  C_11
REMARK    5  A    between atoms: C_15  and  C_16
REMARK    6  A    between atoms: C_16  and  O_17
REMARK    7  A    between atoms: O_17  and  C_18
REMARK    8  A    between atoms: C_22  and  C_23
REMARK                            x       y       z     vdW  Elec       q    Type
REMARK                         _______ _______ _______ _____ _____    ______ ____
ROOT
ATOM      1  C   UNL     1       2.244   7.076  18.563  0.00  0.00    +0.000 A 
ATOM      2  C   UNL     1       1.992   6.989  19.942  0.00  0.00    +0.000 A 
ATOM      3  C   UNL     1       1.992   5.746  20.579  0.00  0.00    +0.000 A 
ATOM      4  C   UNL     1       2.236   4.581  19.848  0.00  0.00    +0.000 A 
ATOM      5  C   UNL     1       2.480   4.653  18.468  0.00  0.00    +0.000 A 
ATOM      6  C   UNL     1       2.487   5.903  17.832  0.00  0.00    +0.000 A 
ENDROOT
BRANCH   1   7
ATOM      7  C   UNL     1       2.299   8.412  17.880  0.00  0.00    +0.000 C 
BRANCH   7   8
ATOM      8  O   UNL     1       2.087   9.447  18.774  0.00  0.00    +0.000 OA
BRANCH   8  13
ATOM      9  C   UNL     1      -1.337  10.667  18.128  0.00  0.00    +0.000 A 
ATOM     10  C   UNL     1      -1.627  11.248  19.381  0.00  0.00    +0.000 A 
ATOM     11  C   UNL     1      -0.694  11.223  20.414  0.00  0.00    +0.000 A 
ATOM     12  C   UNL     1       0.546  10.625  20.225  0.00  0.00    +0.000 A 
ATOM     13  C   UNL     1       0.875  10.033  18.990  0.00  0.00    +0.000 A 
ATOM     14  C   UNL     1      -0.071  10.058  17.949  0.00  0.00    +0.000 A 
BRANCH   9  16
ATOM     15  N   UNL     1      -3.019  11.820  16.851  0.00  0.00    +0.000 NA
ATOM     16  C   UNL     1      -2.371  10.724  17.041  0.00  0.00    +0.000 C 
ATOM     17  N   UNL     1      -2.662   9.604  16.210  0.00  0.00    +0.000 N 
ATOM     18  H   UNL     1      -3.737  11.911  16.117  0.00  0.00    +0.000 HD
ATOM     19  H   UNL     1      -3.378   9.681  15.472  0.00  0.00    +0.000 HD
ATOM     20  H   UNL     1      -2.192   8.698  16.314  0.00  0.00    +0.000 HD
ENDBRANCH   9  16
ENDBRANCH   8  13
ENDBRANCH   7   8
ENDBRANCH   1   7
BRANCH   5  21
ATOM     21  C   UNL     1       2.706   3.400  17.675  0.00  0.00    +0.000 C 
BRANCH  21  22
ATOM     22  O   UNL     1       4.050   3.076  17.643  0.00  0.00    +0.000 OA
BRANCH  22  23
ATOM     23  C   UNL     1       5.045   3.938  17.296  0.00  0.00    +0.000 A 
ATOM     24  C   UNL     1       5.207   4.268  15.949  0.00  0.00    +0.000 A 
ATOM     25  C   UNL     1       6.210   5.155  15.560  0.00  0.00    +0.000 A 
ATOM     26  C   UNL     1       7.064   5.721  16.509  0.00  0.00    +0.000 A 
ATOM     27  C   UNL     1       6.936   5.410  17.884  0.00  0.00    +0.000 A 
ATOM     28  C   UNL     1       5.912   4.509  18.251  0.00  0.00    +0.000 A 
BRANCH  27  29
ATOM     29  C   UNL     1       7.854   6.012  18.932  0.00  0.00    +0.000 C 
ATOM     30  N   UNL     1       8.313   7.212  18.823  0.00  0.00    +0.000 NA
ATOM     31  N   UNL     1       8.250   5.280  20.090  0.00  0.00    +0.000 N 
ATOM     32  H   UNL     1       8.114   7.852  18.048  0.00  0.00    +0.000 HD
ATOM     33  H   UNL     1       7.955   4.319  20.292  0.00  0.00    +0.000 HD
ATOM     34  H   UNL     1       8.874   5.720  20.781  0.00  0.00    +0.000 HD
ENDBRANCH  27  29
ENDBRANCH  22  23
ENDBRANCH  21  22
ENDBRANCH   5  21
TORSDOF 8
ENDMDL
MODEL 6
REMARK VINA RESULT:      -8.4      4.891      7.582
REMARK  Name = 
REMARK  8 active torsions:
REMARK  status: ('A' for Active; 'I' for Inactive)
REMARK    1  A    between atoms: C_2  and  C_4
REMARK    2  A    between atoms: C_8  and  O_9
REMARK    3  A    between atoms: O_9  and  C_10
REMARK    4  A    between atoms: C_10  and  C_11
REMARK    5  A    between atoms: C_15  and  C_16
REMARK    6  A    between atoms: C_16  and  O_17
REMARK    7  A    between atoms: O_17  and  C_18
REMARK    8  A    between atoms: C_22  and  C_23
REMARK                            x       y       z     vdW  Elec       q    Type
REMARK                         _______ _______ _______ _____ _____    ______ ____
ROOT
ATOM      1  C   UNL     1       2.091   6.648  18.693  0.00  0.00    +0.000 A 
ATOM      2  C   UNL     1       1.951   6.479  20.080  0.00  0.00    +0.000 A 
ATOM      3  C   UNL     1       2.114   5.216  20.655  0.00  0.00    +0.000 A 
ATOM      4  C   UNL     1       2.410   4.111  19.852  0.00  0.00    +0.000 A 
ATOM      5  C   UNL     1       2.543   4.264  18.464  0.00  0.00    +0.000 A 
ATOM      6  C   UNL     1       2.386   5.535  17.890  0.00  0.00    +0.000 A 
ENDROOT
BRANCH   1   7
ATOM      7  C   UNL     1       1.969   8.010  18.074  0.00  0.00    +0.000 C 
BRANCH   7   8
ATOM      8  O   UNL     1       2.096   9.011  19.021  0.00  0.00    +0.000 OA
BRANCH   8  13
ATOM      9  C   UNL     1      -0.321  10.556  21.345  0.00  0.00    +0.000 A 
ATOM     10  C   UNL     1      -1.080  11.317  20.432  0.00  0.00    +0.000 A 
ATOM     11  C   UNL     1      -0.781  11.312  19.073  0.00  0.00    +0.000 A 
ATOM     12  C   UNL     1       0.275  10.549  18.591  0.00  0.00    +0.000 A 
ATOM     13  C   UNL     1       1.060   9.775  19.468  0.00  0.00    +0.000 A 
ATOM     14  C   UNL     1       0.756   9.785  20.841  0.00  0.00    +0.000 A 
BRANCH   9  16
ATOM     15  N   UNL     1      -1.219  11.652  23.290  0.00  0.00    +0.000 NA
ATOM     16  C   UNL     1      -0.685  10.587  22.802  0.00  0.00    +0.000 C 
ATOM     17  N   UNL     1      -0.459   9.477  23.665  0.00  0.00    +0.000 N 
ATOM     18  H   UNL     1      -1.488  11.723  24.282  0.00  0.00    +0.000 HD
ATOM     19  H   UNL     1      -0.723   9.535  24.660  0.00  0.00    +0.000 HD
ATOM     20  H   UNL     1      -0.027   8.603  23.344  0.00  0.00    +0.000 HD
ENDBRANCH   9  16
ENDBRANCH   8  13
ENDBRANCH   7   8
ENDBRANCH   1   7
BRANCH   5  21
ATOM     21  C   UNL     1       2.825   3.074  17.596  0.00  0.00    +0.000 C 
BRANCH  21  22
ATOM     22  O   UNL     1       4.185   2.832  17.523  0.00  0.00    +0.000 OA
BRANCH  22  23
ATOM     23  C   UNL     1       5.123   3.775  17.237  0.00  0.00    +0.000 A 
ATOM     24  C   UNL     1       5.295   4.170  15.908  0.00  0.00    +0.000 A 
ATOM     25  C   UNL     1       6.241   5.140  15.582  0.00  0.00    +0.000 A 
ATOM     26  C   UNL     1       7.028   5.727  16.576  0.00  0.00    +0.000 A 
ATOM     27  C   UNL     1       6.888   5.353  17.934  0.00  0.00    +0.000 A 
ATOM     28  C   UNL     1       5.922   4.368  18.237  0.00  0.00    +0.000 A 
BRANCH  27  29
ATOM     29  C   UNL     1       7.733   5.976  19.029  0.00  0.00    +0.000 C 
ATOM     30  N   UNL     1       7.878   5.410  20.179  0.00  0.00    +0.000 NA
ATOM     31  N   UNL     1       8.410   7.217  18.838  0.00  0.00    +0.000 N 
ATOM     32  H   UNL     1       7.454   4.519  20.457  0.00  0.00    +0.000 HD
ATOM     33  H   UNL     1       8.372   7.765  17.973  0.00  0.00    +0.000 HD
ATOM     34  H   UNL     1       8.975   7.610  19.605  0.00  0.00    +0.000 HD
ENDBRANCH  27  29
ENDBRANCH  22  23
ENDBRANCH  21  22
ENDBRANCH   5  21
TORSDOF 8
ENDMDL
MODEL 7
REMARK VINA RESULT:      -8.4      6.334      8.348
REMARK  Name = 
REMARK  8 active torsions:
REMARK  status: ('A' for Active; 'I' for Inactive)
REMARK    1  A    between atoms: C_2  and  C_4
REMARK    2  A    between atoms: C_8  and  O_9
REMARK    3  A    between atoms: O_9  and  C_10
REMARK    4  A    between atoms: C_10  and  C_11
REMARK    5  A    between atoms: C_15  and  C_16
REMARK    6  A    between atoms: C_16  and  O_17
REMARK    7  A    between atoms: O_17  and  C_18
REMARK    8  A    between atoms: C_22  and  C_23
REMARK                            x       y       z     vdW  Elec       q    Type
REMARK                         _______ _______ _______ _____ _____    ______ ____
ROOT
ATOM      1  C   UNL     1       2.732   5.688  18.767  0.00  0.00    +0.000 A 
ATOM      2  C   UNL     1       2.169   4.462  18.377  0.00  0.00    +0.000 A 
ATOM      3  C   UNL     1       2.824   3.652  17.446  0.00  0.00    +0.000 A 
ATOM      4  C   UNL     1       4.040   4.059  16.892  0.00  0.00    +0.000 A 
ATOM      5  C   UNL     1       4.609   5.287  17.266  0.00  0.00    +0.000 A 
ATOM      6  C   UNL     1       3.953   6.094  18.206  0.00  0.00    +0.000 A 
ENDROOT
BRANCH   1   7
ATOM      7  C   UNL     1       2.062   6.540  19.806  0.00  0.00    +0.000 C 
BRANCH   7   8
ATOM      8  O   UNL     1       2.259   7.888  19.560  0.00  0.00    +0.000 OA
BRANCH   8  13
ATOM      9  C   UNL     1      -0.081  10.121  21.340  0.00  0.00    +0.000 A 
ATOM     10  C   UNL     1      -0.648  10.801  20.241  0.00  0.00    +0.000 A 
ATOM     11  C   UNL     1      -0.248  10.517  18.939  0.00  0.00    +0.000 A 
ATOM     12  C   UNL     1       0.721   9.550  18.699  0.00  0.00    +0.000 A 
ATOM     13  C   UNL     1       1.313   8.848  19.766  0.00  0.00    +0.000 A 
ATOM     14  C   UNL     1       0.908   9.140  21.081  0.00  0.00    +0.000 A 
BRANCH   9  16
ATOM     15  N   UNL     1      -0.334   9.617  23.679  0.00  0.00    +0.000 NA
ATOM     16  C   UNL     1      -0.549  10.457  22.727  0.00  0.00    +0.000 C 
ATOM     17  N   UNL     1      -1.223  11.674  23.027  0.00  0.00    +0.000 N 
ATOM     18  H   UNL     1      -0.633   9.800  24.647  0.00  0.00    +0.000 HD
ATOM     19  H   UNL     1      -1.528  11.871  23.992  0.00  0.00    +0.000 HD
ATOM     20  H   UNL     1      -1.436  12.382  22.315  0.00  0.00    +0.000 HD
ENDBRANCH   9  16
ENDBRANCH   8  13
ENDBRANCH   7   8
ENDBRANCH   1   7
BRANCH   5  21
ATOM     21  C   UNL     1       5.896   5.742  16.646  0.00  0.00    +0.000 C 
BRANCH  21  22
ATOM     22  O   UNL     1       6.545   4.688  16.029  0.00  0.00    +0.000 OA
BRANCH  22  23
ATOM     23  C   UNL     1       6.737   4.578  14.687  0.00  0.00    +0.000 A 
ATOM     24  C   UNL     1       7.694   5.392  14.076  0.00  0.00    +0.000 A 
ATOM     25  C   UNL     1       7.923   5.299  12.705  0.00  0.00    +0.000 A 
ATOM     26  C   UNL     1       7.200   4.394  11.925  0.00  0.00    +0.000 A 
ATOM     27  C   UNL     1       6.219   3.552  12.503  0.00  0.00    +0.000 A 
ATOM     28  C   UNL     1       6.007   3.667  13.894  0.00  0.00    +0.000 A 
BRANCH  27  29
ATOM     29  C   UNL     1       5.421   2.563  11.674  0.00  0.00    +0.000 C 
ATOM     30  N   UNL     1       5.869   1.384  11.409  0.00  0.00    +0.000 NA
ATOM     31  N   UNL     1       4.135   2.890  11.151  0.00  0.00    +0.000 N 
ATOM     32  H   UNL     1       6.773   1.011  11.717  0.00  0.00    +0.000 HD
ATOM     33  H   UNL     1       3.671   3.793  11.290  0.00  0.00    +0.000 HD
ATOM     34  H   UNL     1       3.621   2.193  10.593  0.00  0.00    +0.000 HD
ENDBRANCH  27  29
ENDBRANCH  22  23
ENDBRANCH  21  22
ENDBRANCH   5  21
TORSDOF 8
ENDMDL
MODEL 8
REMARK VINA RESULT:      -8.4      4.901      7.571
REMARK  Name = 
REMARK  8 active torsions:
REMARK  status: ('A' for Active; 'I' for Inactive)
REMARK    1  A    between atoms: C_2  and  C_4
REMARK    2  A    between atoms: C_8  and  O_9
REMARK    3  A    between atoms: O_9  and  C_10
REMARK    4  A    between atoms: C_10  and  C_11
REMARK    5  A    between atoms: C_15  and  C_16
REMARK    6  A    between atoms: C_16  and  O_17
REMARK    7  A    between atoms: O_17  and  C_18
REMARK    8  A    between atoms: C_22  and  C_23
REMARK                            x       y       z     vdW  Elec       q    Type
REMARK                         _______ _______ _______ _____ _____    ______ ____
ROOT
ATOM      1  C   UNL     1       1.777   4.677  20.199  0.00  0.00    +0.000 A 
ATOM      2  C   UNL     1       0.604   3.905  20.228  0.00  0.00    +0.000 A 
ATOM      3  C   UNL     1       0.585   2.632  19.653  0.00  0.00    +0.000 A 
ATOM      4  C   UNL     1       1.731   2.121  19.039  0.00  0.00    +0.000 A 
ATOM      5  C   UNL     1       2.907   2.885  18.994  0.00  0.00    +0.000 A 
ATOM      6  C   UNL     1       2.926   4.159  19.579  0.00  0.00    +0.000 A 
ENDROOT
BRANCH   1   7
ATOM      7  C   UNL     1       1.822   6.023  20.861  0.00  0.00    +0.000 C 
BRANCH   7   8
ATOM      8  O   UNL     1       2.159   7.019  19.961  0.00  0.00    +0.000 OA
BRANCH   8  13
ATOM      9  C   UNL     1       0.411  10.047  21.147  0.00  0.00    +0.000 A 
ATOM     10  C   UNL     1       0.378  10.791  19.949  0.00  0.00    +0.000 A 
ATOM     11  C   UNL     1       0.933  10.286  18.777  0.00  0.00    +0.000 A 
ATOM     12  C   UNL     1       1.530   9.032  18.768  0.00  0.00    +0.000 A 
ATOM     13  C   UNL     1       1.587   8.256  19.942  0.00  0.00    +0.000 A 
ATOM     14  C   UNL     1       1.027   8.771  21.126  0.00  0.00    +0.000 A 
BRANCH   9  16
ATOM     15  N   UNL     1      -0.097   9.990  23.498  0.00  0.00    +0.000 NA
ATOM     16  C   UNL     1      -0.206  10.630  22.386  0.00  0.00    +0.000 C 
ATOM     17  N   UNL     1      -0.910  11.868  22.374  0.00  0.00    +0.000 N 
ATOM     18  H   UNL     1      -0.501  10.348  24.376  0.00  0.00    +0.000 HD
ATOM     19  H   UNL     1      -1.320  12.237  23.245  0.00  0.00    +0.000 HD
ATOM     20  H   UNL     1      -1.044  12.422  21.521  0.00  0.00    +0.000 HD
ENDBRANCH   9  16
ENDBRANCH   8  13
ENDBRANCH   7   8
ENDBRANCH   1   7
BRANCH   5  21
ATOM     21  C   UNL     1       4.127   2.353  18.304  0.00  0.00    +0.000 C 
BRANCH  21  22
ATOM     22  O   UNL     1       4.354   3.028  17.118  0.00  0.00    +0.000 OA
BRANCH  22  23
ATOM     23  C   UNL     1       5.287   4.004  16.951  0.00  0.00    +0.000 A 
ATOM     24  C   UNL     1       5.504   4.513  15.668  0.00  0.00    +0.000 A 
ATOM     25  C   UNL     1       6.446   5.520  15.463  0.00  0.00    +0.000 A 
ATOM     26  C   UNL     1       7.184   6.030  16.534  0.00  0.00    +0.000 A 
ATOM     27  C   UNL     1       6.997   5.540  17.849  0.00  0.00    +0.000 A 
ATOM     28  C   UNL     1       6.037   4.520  18.029  0.00  0.00    +0.000 A 
BRANCH  27  29
ATOM     29  C   UNL     1       7.789   6.078  19.026  0.00  0.00    +0.000 C 
ATOM     30  N   UNL     1       7.862   5.439  20.144  0.00  0.00    +0.000 NA
ATOM     31  N   UNL     1       8.492   7.317  18.952  0.00  0.00    +0.000 N 
ATOM     32  H   UNL     1       7.411   4.540  20.341  0.00  0.00    +0.000 HD
ATOM     33  H   UNL     1       8.510   7.919  18.123  0.00  0.00    +0.000 HD
ATOM     34  H   UNL     1       9.020   7.651  19.771  0.00  0.00    +0.000 HD
ENDBRANCH  27  29
ENDBRANCH  22  23
ENDBRANCH  21  22
ENDBRANCH   5  21
TORSDOF 8
ENDMDL
MODEL 9
REMARK VINA RESULT:      -8.3      1.346      2.045
REMARK  Name = 
REMARK  8 active torsions:
REMARK  status: ('A' for Active; 'I' for Inactive)
REMARK    1  A    between atoms: C_2  and  C_4
REMARK    2  A    between atoms: C_8  and  O_9
REMARK    3  A    between atoms: O_9  and  C_10
REMARK    4  A    between atoms: C_10  and  C_11
REMARK    5  A    between atoms: C_15  and  C_16
REMARK    6  A    between atoms: C_16  and  O_17
REMARK    7  A    between atoms: O_17  and  C_18
REMARK    8  A    between atoms: C_22  and  C_23
REMARK                            x       y       z     vdW  Elec       q    Type
REMARK                         _______ _______ _______ _____ _____    ______ ____
ROOT
ATOM      1  C   UNL     1       6.756   5.727  16.952  0.00  0.00    +0.000 A 
ATOM      2  C   UNL     1       7.256   4.947  18.006  0.00  0.00    +0.000 A 
ATOM      3  C   UNL     1       8.014   5.539  19.020  0.00  0.00    +0.000 A 
ATOM      4  C   UNL     1       8.284   6.909  18.988  0.00  0.00    +0.000 A 
ATOM      5  C   UNL     1       7.798   7.698  17.934  0.00  0.00    +0.000 A 
ATOM      6  C   UNL     1       7.031   7.103  16.922  0.00  0.00    +0.000 A 
ENDROOT
BRANCH   1   7
ATOM      7  C   UNL     1       5.897   5.110  15.887  0.00  0.00    +0.000 C 
BRANCH   7   8
ATOM      8  O   UNL     1       4.555   5.171  16.219  0.00  0.00    +0.000 OA
BRANCH   8  13
ATOM      9  C   UNL     1       2.511   4.018  19.070  0.00  0.00    +0.000 A 
ATOM     10  C   UNL     1       2.693   2.625  18.949  0.00  0.00    +0.000 A 
ATOM     11  C   UNL     1       3.478   2.091  17.932  0.00  0.00    +0.000 A 
ATOM     12  C   UNL     1       4.102   2.928  17.015  0.00  0.00    +0.000 A 
ATOM     13  C   UNL     1       3.947   4.325  17.099  0.00  0.00    +0.000 A 
ATOM     14  C   UNL     1       3.150   4.861  18.127  0.00  0.00    +0.000 A 
BRANCH   9  16
ATOM     15  N   UNL     1       0.552   3.957  20.465  0.00  0.00    +0.000 NA
ATOM     16  C   UNL     1       1.661   4.550  20.188  0.00  0.00    +0.000 C 
ATOM     17  N   UNL     1       2.038   5.689  20.955  0.00  0.00    +0.000 N 
ATOM     18  H   UNL     1      -0.067   4.281  21.223  0.00  0.00    +0.000 HD
ATOM     19  H   UNL     1       1.429   6.024  21.715  0.00  0.00    +0.000 HD
ATOM     20  H   UNL     1       2.902   6.214  20.780  0.00  0.00    +0.000 HD
ENDBRANCH   9  16
ENDBRANCH   8  13
ENDBRANCH   7   8
ENDBRANCH   1   7
BRANCH   5  21
ATOM     21  C   UNL     1       8.117   9.162  17.878  0.00  0.00    +0.000 C 
BRANCH  21  22
ATOM     22  O   UNL     1       9.006   9.510  18.880  0.00  0.00    +0.000 OA
BRANCH  22  23
ATOM     23  C   UNL     1       9.297  10.788  19.245  0.00  0.00    +0.000 A 
ATOM     24  C   UNL     1       9.810  11.020  20.524  0.00  0.00    +0.000 A 
ATOM     25  C   UNL     1      10.127  12.316  20.927  0.00  0.00    +0.000 A 
ATOM     26  C   UNL     1       9.936  13.396  20.062  0.00  0.00    +0.000 A 
ATOM     27  C   UNL     1       9.415  13.204  18.759  0.00  0.00    +0.000 A 
ATOM     28  C   UNL     1       9.102  11.882  18.376  0.00  0.00    +0.000 A 
BRANCH  27  29
ATOM     29  C   UNL     1       9.198  14.363  17.803  0.00  0.00    +0.000 C 
ATOM     30  N   UNL     1      10.185  15.032  17.313  0.00  0.00    +0.000 NA
ATOM     31  N   UNL     1       7.890  14.765  17.400  0.00  0.00    +0.000 N 
ATOM     32  H   UNL     1      11.175  14.856  17.512  0.00  0.00    +0.000 HD
ATOM     33  H   UNL     1       7.026  14.316  17.720  0.00  0.00    +0.000 HD
ATOM     34  H   UNL     1       7.780  15.556  16.749  0.00  0.00    +0.000 HD
ENDBRANCH  27  29
ENDBRANCH  22  23
ENDBRANCH  21  22
ENDBRANCH   5  21
TORSDOF 8
ENDMDL
