MODEL 1
REMARK VINA RESULT:      -6.0      0.000      0.000
REMARK  Name = 
REMARK  11 active torsions:
REMARK  status: ('A' for Active; 'I' for Inactive)
REMARK    1  A    between atoms: C_1  and  N_2
REMARK    2  A    between atoms: N_2  and  C_3
REMARK    3  A    between atoms: C_3  and  C_4
REMARK    4  A    between atoms: C_10  and  C_12
REMARK    5  A    between atoms: C_12  and  C_13
REMARK    6  A    between atoms: C_12  and  N_20
REMARK    7  A    between atoms: C_13  and  C_14
REMARK    8  A    between atoms: C_21  and  C_23
REMARK    9  A    between atoms: C_25  and  O_26
REMARK   10  A    between atoms: C_29  and  C_31
REMARK   11  A    between atoms: C_31  and  C_32
REMARK                            x       y       z     vdW  Elec       q    Type
REMARK                         _______ _______ _______ _____ _____    ______ ____
ROOT
ATOM      1  N   UNL     1      -4.779  12.263  21.473  0.00  0.00    +0.000 N 
ATOM      2  C   UNL     1      -4.435  12.570  20.169  0.00  0.00    +0.000 C 
ATOM      3  O   UNL     1      -3.872  13.617  19.856  0.00  0.00    +0.000 OA
ATOM      4  H   UNL     1      -5.448  11.522  21.641  0.00  0.00    +0.000 HD
ENDROOT
BRANCH   2   5
ATOM      5  C   UNL     1      -4.762  11.450  19.141  0.00  0.00    +0.000 C 
ATOM      6  C   UNL     1      -6.242  11.559  18.738  0.00  0.00    +0.000 C 
ATOM      7  C   UNL     1      -6.184  12.473  17.516  0.00  0.00    +0.000 C 
ATOM      8  C   UNL     1      -4.980  11.919  16.775  0.00  0.00    +0.000 C 
ATOM      9  N   UNL     1      -4.059  11.535  17.840  0.00  0.00    +0.000 N 
ATOM     10  C   UNL     1      -2.845  10.981  17.485  0.00  0.00    +0.000 C 
ATOM     11  O   UNL     1      -2.565  10.787  16.298  0.00  0.00    +0.000 OA
BRANCH   7  12
ATOM     12  O   UNL     1      -5.962  13.825  17.911  0.00  0.00    +0.000 OA
ATOM     13  H   UNL     1      -6.705  14.384  17.602  0.00  0.00    +0.000 HD
ENDBRANCH   7  12
BRANCH  10  14
ATOM     14  C   UNL     1      -1.834  10.663  18.570  0.00  0.00    +0.000 C 
BRANCH  14  15
ATOM     15  C   UNL     1      -1.028  11.850  19.046  0.00  0.00    +0.000 A 
ATOM     16  C   UNL     1      -0.417  11.850  20.311  0.00  0.00    +0.000 A 
ATOM     17  C   UNL     1       0.372  12.930  20.721  0.00  0.00    +0.000 A 
ATOM     18  C   UNL     1       0.564  14.016  19.870  0.00  0.00    +0.000 A 
ATOM     19  C   UNL     1      -0.035  14.026  18.611  0.00  0.00    +0.000 A 
ATOM     20  C   UNL     1      -0.827  12.950  18.204  0.00  0.00    +0.000 A 
ENDBRANCH  14  15
ENDBRANCH  10  14
ENDBRANCH   2   5
BRANCH   1  21
ATOM     21  C   UNL     1      -4.608  13.209  22.597  0.00  0.00    +0.000 C 
BRANCH  21  24
ATOM     22  C   UNL     1      -7.913  14.069  24.413  0.00  0.00    +0.000 C 
ATOM     23  N   UNL     1      -6.691  14.262  23.640  0.00  0.00    +0.000 N 
ATOM     24  C   UNL     1      -5.878  13.141  23.480  0.00  0.00    +0.000 C 
ATOM     25  O   UNL     1      -6.123  12.089  24.089  0.00  0.00    +0.000 OA
BRANCH  23  26
ATOM     26  C   UNL     1      -6.557  15.538  22.930  0.00  0.00    +0.000 C 
BRANCH  26  27
ATOM     27  C   UNL     1      -5.486  16.486  23.443  0.00  0.00    +0.000 A 
ATOM     28  C   UNL     1      -4.460  16.870  22.564  0.00  0.00    +0.000 A 
ATOM     29  C   UNL     1      -3.501  17.815  22.936  0.00  0.00    +0.000 A 
ATOM     30  C   UNL     1      -3.559  18.407  24.195  0.00  0.00    +0.000 A 
ATOM     31  C   UNL     1      -4.576  18.048  25.078  0.00  0.00    +0.000 A 
ATOM     32  C   UNL     1      -5.535  17.099  24.705  0.00  0.00    +0.000 A 
ENDBRANCH  26  27
ENDBRANCH  23  26
ENDBRANCH  21  24
BRANCH  21  33
ATOM     33  C   UNL     1      -3.392  12.806  23.454  0.00  0.00    +0.000 C 
BRANCH  33  34
ATOM     34  C   UNL     1      -2.536  13.934  24.007  0.00  0.00    +0.000 A 
ATOM     35  C   UNL     1      -1.473  14.516  23.300  0.00  0.00    +0.000 A 
ATOM     36  C   UNL     1      -0.716  15.549  23.852  0.00  0.00    +0.000 A 
ATOM     37  C   UNL     1      -1.019  16.034  25.118  0.00  0.00    +0.000 A 
ATOM     38  C   UNL     1      -2.072  15.474  25.837  0.00  0.00    +0.000 A 
ATOM     39  C   UNL     1      -2.821  14.428  25.290  0.00  0.00    +0.000 A 
ENDBRANCH  33  34
ENDBRANCH  21  33
ENDBRANCH   1  21
TORSDOF 10
ENDMDL
MODEL 2
REMARK VINA RESULT:      -5.8      8.704     13.284
REMARK  Name = 
REMARK  11 active torsions:
REMARK  status: ('A' for Active; 'I' for Inactive)
REMARK    1  A    between atoms: C_1  and  N_2
REMARK    2  A    between atoms: N_2  and  C_3
REMARK    3  A    between atoms: C_3  and  C_4
REMARK    4  A    between atoms: C_10  and  C_12
REMARK    5  A    between atoms: C_12  and  C_13
REMARK    6  A    between atoms: C_12  and  N_20
REMARK    7  A    between atoms: C_13  and  C_14
REMARK    8  A    between atoms: C_21  and  C_23
REMARK    9  A    between atoms: C_25  and  O_26
REMARK   10  A    between atoms: C_29  and  C_31
REMARK   11  A    between atoms: C_31  and  C_32
REMARK                            x       y       z     vdW  Elec       q    Type
REMARK                         _______ _______ _______ _____ _____    ______ ____
ROOT
ATOM      1  N   UNL     1       4.175   5.339  17.228  0.00  0.00    +0.000 N 
ATOM      2  C   UNL     1       3.557   6.477  17.715  0.00  0.00    +0.000 C 
ATOM      3  O   UNL     1       4.042   7.600  17.600  0.00  0.00    +0.000 OA
ATOM      4  H   UNL     1       3.866   4.434  17.561  0.00  0.00    +0.000 HD
ENDROOT
BRANCH   2   5
ATOM      5  C   UNL     1       2.167   6.222  18.362  0.00  0.00    +0.000 C 
ATOM      6  C   UNL     1       1.945   4.705  18.486  0.00  0.00    +0.000 C 
ATOM      7  C   UNL     1       2.495   4.404  19.878  0.00  0.00    +0.000 C 
ATOM      8  C   UNL     1       1.946   5.568  20.684  0.00  0.00    +0.000 C 
ATOM      9  N   UNL     1       2.001   6.694  19.757  0.00  0.00    +0.000 N 
ATOM     10  C   UNL     1       1.558   7.925  20.197  0.00  0.00    +0.000 C 
ATOM     11  O   UNL     1       1.095   8.058  21.335  0.00  0.00    +0.000 OA
BRANCH   7  12
ATOM     12  O   UNL     1       3.920   4.419  19.868  0.00  0.00    +0.000 OA
ATOM     13  H   UNL     1       4.240   4.572  18.954  0.00  0.00    +0.000 HD
ENDBRANCH   7  12
BRANCH  10  14
ATOM     14  C   UNL     1       1.695   9.129  19.284  0.00  0.00    +0.000 C 
BRANCH  14  15
ATOM     15  C   UNL     1       0.428   9.935  19.112  0.00  0.00    +0.000 A 
ATOM     16  C   UNL     1       0.066  10.921  20.044  0.00  0.00    +0.000 A 
ATOM     17  C   UNL     1      -1.080  11.700  19.848  0.00  0.00    +0.000 A 
ATOM     18  C   UNL     1      -1.869  11.506  18.717  0.00  0.00    +0.000 A 
ATOM     19  C   UNL     1      -1.518  10.533  17.783  0.00  0.00    +0.000 A 
ATOM     20  C   UNL     1      -0.378   9.752  17.981  0.00  0.00    +0.000 A 
ENDBRANCH  14  15
ENDBRANCH  10  14
ENDBRANCH   2   5
BRANCH   1  21
ATOM     21  C   UNL     1       5.526   5.349  16.628  0.00  0.00    +0.000 C 
BRANCH  21  24
ATOM     22  C   UNL     1       8.234   6.461  19.156  0.00  0.00    +0.000 C 
ATOM     23  N   UNL     1       7.357   6.500  17.992  0.00  0.00    +0.000 N 
ATOM     24  C   UNL     1       6.564   5.374  17.777  0.00  0.00    +0.000 C 
ATOM     25  O   UNL     1       6.717   4.352  18.462  0.00  0.00    +0.000 OA
BRANCH  23  26
ATOM     26  C   UNL     1       7.234   7.790  17.305  0.00  0.00    +0.000 C 
BRANCH  26  27
ATOM     27  C   UNL     1       8.045   8.940  17.877  0.00  0.00    +0.000 A 
ATOM     28  C   UNL     1       7.917  10.206  17.284  0.00  0.00    +0.000 A 
ATOM     29  C   UNL     1       8.554  11.328  17.820  0.00  0.00    +0.000 A 
ATOM     30  C   UNL     1       9.325  11.206  18.972  0.00  0.00    +0.000 A 
ATOM     31  C   UNL     1       9.456   9.960  19.584  0.00  0.00    +0.000 A 
ATOM     32  C   UNL     1       8.818   8.836  19.044  0.00  0.00    +0.000 A 
ENDBRANCH  26  27
ENDBRANCH  23  26
ENDBRANCH  21  24
BRANCH  21  33
ATOM     33  C   UNL     1       5.749   4.072  15.793  0.00  0.00    +0.000 C 
BRANCH  33  34
ATOM     34  C   UNL     1       6.338   4.253  14.404  0.00  0.00    +0.000 A 
ATOM     35  C   UNL     1       7.357   5.171  14.109  0.00  0.00    +0.000 A 
ATOM     36  C   UNL     1       7.864   5.300  12.816  0.00  0.00    +0.000 A 
ATOM     37  C   UNL     1       7.372   4.499  11.793  0.00  0.00    +0.000 A 
ATOM     38  C   UNL     1       6.364   3.578  12.063  0.00  0.00    +0.000 A 
ATOM     39  C   UNL     1       5.844   3.459  13.355  0.00  0.00    +0.000 A 
ENDBRANCH  33  34
ENDBRANCH  21  33
ENDBRANCH   1  21
TORSDOF 10
ENDMDL
MODEL 3
REMARK VINA RESULT:      -5.8      3.890      8.703
REMARK  Name = 
REMARK  11 active torsions:
REMARK  status: ('A' for Active; 'I' for Inactive)
REMARK    1  A    between atoms: C_1  and  N_2
REMARK    2  A    between atoms: N_2  and  C_3
REMARK    3  A    between atoms: C_3  and  C_4
REMARK    4  A    between atoms: C_10  and  C_12
REMARK    5  A    between atoms: C_12  and  C_13
REMARK    6  A    between atoms: C_12  and  N_20
REMARK    7  A    between atoms: C_13  and  C_14
REMARK    8  A    between atoms: C_21  and  C_23
REMARK    9  A    between atoms: C_25  and  O_26
REMARK   10  A    between atoms: C_29  and  C_31
REMARK   11  A    between atoms: C_31  and  C_32
REMARK                            x       y       z     vdW  Elec       q    Type
REMARK                         _______ _______ _______ _____ _____    ______ ____
ROOT
ATOM      1  N   UNL     1      -0.428  10.578  18.744  0.00  0.00    +0.000 N 
ATOM      2  C   UNL     1      -1.782  10.409  18.512  0.00  0.00    +0.000 C 
ATOM      3  O   UNL     1      -2.416   9.447  18.938  0.00  0.00    +0.000 OA
ATOM      4  H   UNL     1       0.087  11.239  18.174  0.00  0.00    +0.000 HD
ENDROOT
BRANCH   2   5
ATOM      5  C   UNL     1      -2.445  11.572  17.722  0.00  0.00    +0.000 C 
ATOM      6  C   UNL     1      -2.118  11.410  16.227  0.00  0.00    +0.000 C 
ATOM      7  C   UNL     1      -3.295  10.578  15.722  0.00  0.00    +0.000 C 
ATOM      8  C   UNL     1      -4.465  11.241  16.428  0.00  0.00    +0.000 C 
ATOM      9  N   UNL     1      -3.925  11.606  17.734  0.00  0.00    +0.000 N 
ATOM     10  C   UNL     1      -4.760  12.244  18.630  0.00  0.00    +0.000 C 
ATOM     11  O   UNL     1      -5.922  12.527  18.317  0.00  0.00    +0.000 OA
BRANCH   7  12
ATOM     12  O   UNL     1      -3.159   9.218  16.127  0.00  0.00    +0.000 OA
ATOM     13  H   UNL     1      -3.561   8.633  15.451  0.00  0.00    +0.000 HD
ENDBRANCH   7  12
BRANCH  10  14
ATOM     14  C   UNL     1      -4.250  12.548  20.026  0.00  0.00    +0.000 C 
BRANCH  14  15
ATOM     15  C   UNL     1      -5.315  12.545  21.098  0.00  0.00    +0.000 A 
ATOM     16  C   UNL     1      -6.563  11.938  20.878  0.00  0.00    +0.000 A 
ATOM     17  C   UNL     1      -7.522  11.893  21.895  0.00  0.00    +0.000 A 
ATOM     18  C   UNL     1      -7.242  12.446  23.143  0.00  0.00    +0.000 A 
ATOM     19  C   UNL     1      -6.007  13.048  23.374  0.00  0.00    +0.000 A 
ATOM     20  C   UNL     1      -5.051  13.098  22.358  0.00  0.00    +0.000 A 
ENDBRANCH  14  15
ENDBRANCH  10  14
ENDBRANCH   2   5
BRANCH   1  21
ATOM     21  C   UNL     1       0.407   9.566  19.425  0.00  0.00    +0.000 C 
BRANCH  21  24
ATOM     22  C   UNL     1       3.344   7.695  17.741  0.00  0.00    +0.000 C 
ATOM     23  N   UNL     1       2.366   8.065  18.758  0.00  0.00    +0.000 N 
ATOM     24  C   UNL     1       1.543   9.150  18.460  0.00  0.00    +0.000 C 
ATOM     25  O   UNL     1       1.744   9.837  17.446  0.00  0.00    +0.000 OA
BRANCH  23  26
ATOM     26  C   UNL     1       2.199   7.134  19.878  0.00  0.00    +0.000 C 
BRANCH  26  27
ATOM     27  C   UNL     1       1.908   5.687  19.516  0.00  0.00    +0.000 A 
ATOM     28  C   UNL     1       1.447   4.827  20.526  0.00  0.00    +0.000 A 
ATOM     29  C   UNL     1       1.065   3.513  20.243  0.00  0.00    +0.000 A 
ATOM     30  C   UNL     1       1.125   3.038  18.936  0.00  0.00    +0.000 A 
ATOM     31  C   UNL     1       1.569   3.879  17.917  0.00  0.00    +0.000 A 
ATOM     32  C   UNL     1       1.954   5.195  18.203  0.00  0.00    +0.000 A 
ENDBRANCH  26  27
ENDBRANCH  23  26
ENDBRANCH  21  24
BRANCH  21  33
ATOM     33  C   UNL     1       1.039  10.164  20.698  0.00  0.00    +0.000 C 
BRANCH  33  34
ATOM     34  C   UNL     1       0.170  11.097  21.524  0.00  0.00    +0.000 A 
ATOM     35  C   UNL     1       0.242  12.496  21.442  0.00  0.00    +0.000 A 
ATOM     36  C   UNL     1      -0.577  13.311  22.223  0.00  0.00    +0.000 A 
ATOM     37  C   UNL     1      -1.501  12.741  23.091  0.00  0.00    +0.000 A 
ATOM     38  C   UNL     1      -1.593  11.355  23.186  0.00  0.00    +0.000 A 
ATOM     39  C   UNL     1      -0.761  10.538  22.416  0.00  0.00    +0.000 A 
ENDBRANCH  33  34
ENDBRANCH  21  33
ENDBRANCH   1  21
TORSDOF 10
ENDMDL
MODEL 4
REMARK VINA RESULT:      -5.7      4.603      9.564
REMARK  Name = 
REMARK  11 active torsions:
REMARK  status: ('A' for Active; 'I' for Inactive)
REMARK    1  A    between atoms: C_1  and  N_2
REMARK    2  A    between atoms: N_2  and  C_3
REMARK    3  A    between atoms: C_3  and  C_4
REMARK    4  A    between atoms: C_10  and  C_12
REMARK    5  A    between atoms: C_12  and  C_13
REMARK    6  A    between atoms: C_12  and  N_20
REMARK    7  A    between atoms: C_13  and  C_14
REMARK    8  A    between atoms: C_21  and  C_23
REMARK    9  A    between atoms: C_25  and  O_26
REMARK   10  A    between atoms: C_29  and  C_31
REMARK   11  A    between atoms: C_31  and  C_32
REMARK                            x       y       z     vdW  Elec       q    Type
REMARK                         _______ _______ _______ _____ _____    ______ ____
ROOT
ATOM      1  N   UNL     1       0.046  11.393  19.021  0.00  0.00    +0.000 N 
ATOM      2  C   UNL     1       0.752  12.581  19.096  0.00  0.00    +0.000 C 
ATOM      3  O   UNL     1       1.879  12.716  18.626  0.00  0.00    +0.000 OA
ATOM      4  H   UNL     1      -0.754  11.261  19.629  0.00  0.00    +0.000 HD
ENDROOT
BRANCH   2   5
ATOM      5  C   UNL     1      -0.027  13.746  19.769  0.00  0.00    +0.000 C 
ATOM      6  C   UNL     1      -1.168  13.160  20.617  0.00  0.00    +0.000 C 
ATOM      7  C   UNL     1      -0.511  12.993  21.984  0.00  0.00    +0.000 C 
ATOM      8  C   UNL     1       0.270  14.289  22.111  0.00  0.00    +0.000 C 
ATOM      9  N   UNL     1       0.732  14.554  20.751  0.00  0.00    +0.000 N 
ATOM     10  C   UNL     1       1.484  15.690  20.528  0.00  0.00    +0.000 C 
ATOM     11  O   UNL     1       1.728  16.476  21.449  0.00  0.00    +0.000 OA
BRANCH   7  12
ATOM     12  O   UNL     1       0.366  11.868  21.985  0.00  0.00    +0.000 OA
ATOM     13  H   UNL     1       0.034  11.194  22.615  0.00  0.00    +0.000 HD
ENDBRANCH   7  12
BRANCH  10  14
ATOM     14  C   UNL     1       2.056  15.936  19.144  0.00  0.00    +0.000 C 
BRANCH  14  15
ATOM     15  C   UNL     1       1.220  16.845  18.271  0.00  0.00    +0.000 A 
ATOM     16  C   UNL     1      -0.143  17.053  18.539  0.00  0.00    +0.000 A 
ATOM     17  C   UNL     1      -0.895  17.938  17.759  0.00  0.00    +0.000 A 
ATOM     18  C   UNL     1      -0.291  18.629  16.711  0.00  0.00    +0.000 A 
ATOM     19  C   UNL     1       1.062  18.434  16.438  0.00  0.00    +0.000 A 
ATOM     20  C   UNL     1       1.811  17.546  17.213  0.00  0.00    +0.000 A 
ENDBRANCH  14  15
ENDBRANCH  10  14
ENDBRANCH   2   5
BRANCH   1  21
ATOM     21  C   UNL     1       0.619  10.146  18.472  0.00  0.00    +0.000 C 
BRANCH  21  24
ATOM     22  C   UNL     1       1.905   7.265  20.712  0.00  0.00    +0.000 C 
ATOM     23  N   UNL     1       1.710   8.085  19.521  0.00  0.00    +0.000 N 
ATOM     24  C   UNL     1       0.826   9.155  19.644  0.00  0.00    +0.000 C 
ATOM     25  O   UNL     1       0.144   9.298  20.671  0.00  0.00    +0.000 OA
BRANCH  23  26
ATOM     26  C   UNL     1       2.621   7.839  18.398  0.00  0.00    +0.000 C 
BRANCH  26  27
ATOM     27  C   UNL     1       2.757   6.396  17.942  0.00  0.00    +0.000 A 
ATOM     28  C   UNL     1       4.029   5.933  17.567  0.00  0.00    +0.000 A 
ATOM     29  C   UNL     1       4.245   4.593  17.234  0.00  0.00    +0.000 A 
ATOM     30  C   UNL     1       3.192   3.685  17.284  0.00  0.00    +0.000 A 
ATOM     31  C   UNL     1       1.924   4.122  17.665  0.00  0.00    +0.000 A 
ATOM     32  C   UNL     1       1.708   5.466  17.996  0.00  0.00    +0.000 A 
ENDBRANCH  26  27
ENDBRANCH  23  26
ENDBRANCH  21  24
BRANCH  21  33
ATOM     33  C   UNL     1      -0.353   9.511  17.458  0.00  0.00    +0.000 C 
BRANCH  33  34
ATOM     34  C   UNL     1      -1.716  10.166  17.311  0.00  0.00    +0.000 A 
ATOM     35  C   UNL     1      -2.378  10.308  16.082  0.00  0.00    +0.000 A 
ATOM     36  C   UNL     1      -3.629  10.919  15.999  0.00  0.00    +0.000 A 
ATOM     37  C   UNL     1      -4.253  11.385  17.149  0.00  0.00    +0.000 A 
ATOM     38  C   UNL     1      -3.618  11.252  18.380  0.00  0.00    +0.000 A 
ATOM     39  C   UNL     1      -2.356  10.655  18.462  0.00  0.00    +0.000 A 
ENDBRANCH  33  34
ENDBRANCH  21  33
ENDBRANCH   1  21
TORSDOF 10
ENDMDL
MODEL 5
REMARK VINA RESULT:      -5.7      4.115      8.830
REMARK  Name = 
REMARK  11 active torsions:
REMARK  status: ('A' for Active; 'I' for Inactive)
REMARK    1  A    between atoms: C_1  and  N_2
REMARK    2  A    between atoms: N_2  and  C_3
REMARK    3  A    between atoms: C_3  and  C_4
REMARK    4  A    between atoms: C_10  and  C_12
REMARK    5  A    between atoms: C_12  and  C_13
REMARK    6  A    between atoms: C_12  and  N_20
REMARK    7  A    between atoms: C_13  and  C_14
REMARK    8  A    between atoms: C_21  and  C_23
REMARK    9  A    between atoms: C_25  and  O_26
REMARK   10  A    between atoms: C_29  and  C_31
REMARK   11  A    between atoms: C_31  and  C_32
REMARK                            x       y       z     vdW  Elec       q    Type
REMARK                         _______ _______ _______ _____ _____    ______ ____
ROOT
ATOM      1  N   UNL     1      -0.373  10.652  18.744  0.00  0.00    +0.000 N 
ATOM      2  C   UNL     1      -1.687  10.401  18.391  0.00  0.00    +0.000 C 
ATOM      3  O   UNL     1      -2.251   9.337  18.637  0.00  0.00    +0.000 OA
ATOM      4  H   UNL     1       0.111  11.428  18.307  0.00  0.00    +0.000 HD
ENDROOT
BRANCH   2   5
ATOM      5  C   UNL     1      -2.408  11.600  17.714  0.00  0.00    +0.000 C 
ATOM      6  C   UNL     1      -2.347  11.422  16.187  0.00  0.00    +0.000 C 
ATOM      7  C   UNL     1      -3.637  10.659  15.893  0.00  0.00    +0.000 C 
ATOM      8  C   UNL     1      -4.633  11.385  16.781  0.00  0.00    +0.000 C 
ATOM      9  N   UNL     1      -3.861  11.717  17.975  0.00  0.00    +0.000 N 
ATOM     10  C   UNL     1      -4.496  12.400  18.993  0.00  0.00    +0.000 C 
ATOM     11  O   UNL     1      -5.676  12.748  18.877  0.00  0.00    +0.000 OA
BRANCH   7  12
ATOM     12  O   UNL     1      -3.510   9.293  16.281  0.00  0.00    +0.000 OA
ATOM     13  H   UNL     1      -2.600   8.981  16.091  0.00  0.00    +0.000 HD
ENDBRANCH   7  12
BRANCH  10  14
ATOM     14  C   UNL     1      -3.742  12.672  20.281  0.00  0.00    +0.000 C 
BRANCH  14  15
ATOM     15  C   UNL     1      -4.515  13.471  21.305  0.00  0.00    +0.000 A 
ATOM     16  C   UNL     1      -5.236  12.832  22.327  0.00  0.00    +0.000 A 
ATOM     17  C   UNL     1      -5.904  13.580  23.303  0.00  0.00    +0.000 A 
ATOM     18  C   UNL     1      -5.852  14.972  23.271  0.00  0.00    +0.000 A 
ATOM     19  C   UNL     1      -5.137  15.617  22.263  0.00  0.00    +0.000 A 
ATOM     20  C   UNL     1      -4.475  14.871  21.286  0.00  0.00    +0.000 A 
ENDBRANCH  14  15
ENDBRANCH  10  14
ENDBRANCH   2   5
BRANCH   1  21
ATOM     21  C   UNL     1       0.511   9.631  19.346  0.00  0.00    +0.000 C 
BRANCH  21  24
ATOM     22  C   UNL     1       3.430   7.974  17.424  0.00  0.00    +0.000 C 
ATOM     23  N   UNL     1       2.425   8.187  18.459  0.00  0.00    +0.000 N 
ATOM     24  C   UNL     1       1.670   9.354  18.357  0.00  0.00    +0.000 C 
ATOM     25  O   UNL     1       1.949  10.218  17.512  0.00  0.00    +0.000 OA
BRANCH  23  26
ATOM     26  C   UNL     1       2.162   7.061  19.361  0.00  0.00    +0.000 C 
BRANCH  26  27
ATOM     27  C   UNL     1       2.613   5.692  18.882  0.00  0.00    +0.000 A 
ATOM     28  C   UNL     1       3.746   5.116  19.479  0.00  0.00    +0.000 A 
ATOM     29  C   UNL     1       4.158   3.820  19.159  0.00  0.00    +0.000 A 
ATOM     30  C   UNL     1       3.432   3.067  18.240  0.00  0.00    +0.000 A 
ATOM     31  C   UNL     1       2.298   3.616  17.644  0.00  0.00    +0.000 A 
ATOM     32  C   UNL     1       1.888   4.916  17.964  0.00  0.00    +0.000 A 
ENDBRANCH  26  27
ENDBRANCH  23  26
ENDBRANCH  21  24
BRANCH  21  33
ATOM     33  C   UNL     1       1.108  10.154  20.668  0.00  0.00    +0.000 C 
BRANCH  33  34
ATOM     34  C   UNL     1       0.232  11.073  21.502  0.00  0.00    +0.000 A 
ATOM     35  C   UNL     1       0.285  12.473  21.426  0.00  0.00    +0.000 A 
ATOM     36  C   UNL     1      -0.540  13.274  22.215  0.00  0.00    +0.000 A 
ATOM     37  C   UNL     1      -1.451  12.688  23.085  0.00  0.00    +0.000 A 
ATOM     38  C   UNL     1      -1.525  11.301  23.176  0.00  0.00    +0.000 A 
ATOM     39  C   UNL     1      -0.686  10.498  22.397  0.00  0.00    +0.000 A 
ENDBRANCH  33  34
ENDBRANCH  21  33
ENDBRANCH   1  21
TORSDOF 10
ENDMDL
MODEL 6
REMARK VINA RESULT:      -5.7      2.633      5.575
REMARK  Name = 
REMARK  11 active torsions:
REMARK  status: ('A' for Active; 'I' for Inactive)
REMARK    1  A    between atoms: C_1  and  N_2
REMARK    2  A    between atoms: N_2  and  C_3
REMARK    3  A    between atoms: C_3  and  C_4
REMARK    4  A    between atoms: C_10  and  C_12
REMARK    5  A    between atoms: C_12  and  C_13
REMARK    6  A    between atoms: C_12  and  N_20
REMARK    7  A    between atoms: C_13  and  C_14
REMARK    8  A    between atoms: C_21  and  C_23
REMARK    9  A    between atoms: C_25  and  O_26
REMARK   10  A    between atoms: C_29  and  C_31
REMARK   11  A    between atoms: C_31  and  C_32
REMARK                            x       y       z     vdW  Elec       q    Type
REMARK                         _______ _______ _______ _____ _____    ______ ____
ROOT
ATOM      1  N   UNL     1      -3.689  13.076  19.518  0.00  0.00    +0.000 N 
ATOM      2  C   UNL     1      -2.532  12.980  20.270  0.00  0.00    +0.000 C 
ATOM      3  O   UNL     1      -2.458  12.309  21.297  0.00  0.00    +0.000 OA
ATOM      4  H   UNL     1      -3.770  13.823  18.838  0.00  0.00    +0.000 HD
ENDROOT
BRANCH   2   5
ATOM      5  C   UNL     1      -1.316  13.741  19.671  0.00  0.00    +0.000 C 
ATOM      6  C   UNL     1      -1.407  15.223  20.073  0.00  0.00    +0.000 C 
ATOM      7  C   UNL     1      -0.613  15.261  21.376  0.00  0.00    +0.000 C 
ATOM      8  C   UNL     1       0.579  14.385  21.036  0.00  0.00    +0.000 C 
ATOM      9  N   UNL     1       0.017  13.343  20.182  0.00  0.00    +0.000 N 
ATOM     10  C   UNL     1       0.866  12.372  19.691  0.00  0.00    +0.000 C 
ATOM     11  O   UNL     1       2.075  12.406  19.944  0.00  0.00    +0.000 OA
BRANCH   7  12
ATOM     12  O   UNL     1      -1.373  14.696  22.442  0.00  0.00    +0.000 OA
ATOM     13  H   UNL     1      -2.140  14.207  22.075  0.00  0.00    +0.000 HD
ENDBRANCH   7  12
BRANCH  10  14
ATOM     14  C   UNL     1       0.288  11.226  18.881  0.00  0.00    +0.000 C 
BRANCH  14  15
ATOM     15  C   UNL     1       1.060   9.931  18.985  0.00  0.00    +0.000 A 
ATOM     16  C   UNL     1       1.026   9.161  20.160  0.00  0.00    +0.000 A 
ATOM     17  C   UNL     1       1.699   7.936  20.228  0.00  0.00    +0.000 A 
ATOM     18  C   UNL     1       2.404   7.466  19.123  0.00  0.00    +0.000 A 
ATOM     19  C   UNL     1       2.442   8.219  17.950  0.00  0.00    +0.000 A 
ATOM     20  C   UNL     1       1.775   9.444  17.884  0.00  0.00    +0.000 A 
ENDBRANCH  14  15
ENDBRANCH  10  14
ENDBRANCH   2   5
BRANCH   1  21
ATOM     21  C   UNL     1      -4.975  12.477  19.935  0.00  0.00    +0.000 C 
BRANCH  21  24
ATOM     22  C   UNL     1      -7.683  14.948  21.170  0.00  0.00    +0.000 C 
ATOM     23  N   UNL     1      -6.785  13.799  21.166  0.00  0.00    +0.000 N 
ATOM     24  C   UNL     1      -6.031  13.608  20.009  0.00  0.00    +0.000 C 
ATOM     25  O   UNL     1      -6.234  14.299  19.000  0.00  0.00    +0.000 OA
BRANCH  23  26
ATOM     26  C   UNL     1      -6.602  13.104  22.444  0.00  0.00    +0.000 C 
BRANCH  26  27
ATOM     27  C   UNL     1      -5.548  13.673  23.378  0.00  0.00    +0.000 A 
ATOM     28  C   UNL     1      -4.668  12.781  24.013  0.00  0.00    +0.000 A 
ATOM     29  C   UNL     1      -3.613  13.241  24.805  0.00  0.00    +0.000 A 
ATOM     30  C   UNL     1      -3.409  14.608  24.966  0.00  0.00    +0.000 A 
ATOM     31  C   UNL     1      -4.263  15.511  24.335  0.00  0.00    +0.000 A 
ATOM     32  C   UNL     1      -5.322  15.048  23.543  0.00  0.00    +0.000 A 
ENDBRANCH  26  27
ENDBRANCH  23  26
ENDBRANCH  21  24
BRANCH  21  33
ATOM     33  C   UNL     1      -5.442  11.438  18.897  0.00  0.00    +0.000 C 
BRANCH  33  34
ATOM     34  C   UNL     1      -4.443  11.044  17.822  0.00  0.00    +0.000 A 
ATOM     35  C   UNL     1      -4.455  11.575  16.523  0.00  0.00    +0.000 A 
ATOM     36  C   UNL     1      -3.517  11.179  15.570  0.00  0.00    +0.000 A 
ATOM     37  C   UNL     1      -2.533  10.256  15.904  0.00  0.00    +0.000 A 
ATOM     38  C   UNL     1      -2.499   9.719  17.187  0.00  0.00    +0.000 A 
ATOM     39  C   UNL     1      -3.450  10.102  18.138  0.00  0.00    +0.000 A 
ENDBRANCH  33  34
ENDBRANCH  21  33
ENDBRANCH   1  21
TORSDOF 10
ENDMDL
MODEL 7
REMARK VINA RESULT:      -5.6      4.118      8.880
REMARK  Name = 
REMARK  11 active torsions:
REMARK  status: ('A' for Active; 'I' for Inactive)
REMARK    1  A    between atoms: C_1  and  N_2
REMARK    2  A    between atoms: N_2  and  C_3
REMARK    3  A    between atoms: C_3  and  C_4
REMARK    4  A    between atoms: C_10  and  C_12
REMARK    5  A    between atoms: C_12  and  C_13
REMARK    6  A    between atoms: C_12  and  N_20
REMARK    7  A    between atoms: C_13  and  C_14
REMARK    8  A    between atoms: C_21  and  C_23
REMARK    9  A    between atoms: C_25  and  O_26
REMARK   10  A    between atoms: C_29  and  C_31
REMARK   11  A    between atoms: C_31  and  C_32
REMARK                            x       y       z     vdW  Elec       q    Type
REMARK                         _______ _______ _______ _____ _____    ______ ____
ROOT
ATOM      1  N   UNL     1      -0.398  10.620  18.738  0.00  0.00    +0.000 N 
ATOM      2  C   UNL     1      -1.724  10.392  18.417  0.00  0.00    +0.000 C 
ATOM      3  O   UNL     1      -2.309   9.350  18.704  0.00  0.00    +0.000 OA
ATOM      4  H   UNL     1       0.096  11.371  18.271  0.00  0.00    +0.000 HD
ENDROOT
BRANCH   2   5
ATOM      5  C   UNL     1      -2.428  11.590  17.721  0.00  0.00    +0.000 C 
ATOM      6  C   UNL     1      -2.358  11.393  16.197  0.00  0.00    +0.000 C 
ATOM      7  C   UNL     1      -3.652  10.639  15.902  0.00  0.00    +0.000 C 
ATOM      8  C   UNL     1      -4.648  11.385  16.774  0.00  0.00    +0.000 C 
ATOM      9  N   UNL     1      -3.882  11.724  17.969  0.00  0.00    +0.000 N 
ATOM     10  C   UNL     1      -4.518  12.425  18.974  0.00  0.00    +0.000 C 
ATOM     11  O   UNL     1      -5.694  12.783  18.846  0.00  0.00    +0.000 OA
BRANCH   7  12
ATOM     12  O   UNL     1      -3.542   9.276  16.307  0.00  0.00    +0.000 OA
ATOM     13  H   UNL     1      -2.607   8.989  16.239  0.00  0.00    +0.000 HD
ENDBRANCH   7  12
BRANCH  10  14
ATOM     14  C   UNL     1      -3.772  12.705  20.265  0.00  0.00    +0.000 C 
BRANCH  14  15
ATOM     15  C   UNL     1      -4.574  13.452  21.306  0.00  0.00    +0.000 A 
ATOM     16  C   UNL     1      -4.595  14.856  21.334  0.00  0.00    +0.000 A 
ATOM     17  C   UNL     1      -5.383  15.539  22.266  0.00  0.00    +0.000 A 
ATOM     18  C   UNL     1      -6.163  14.826  23.174  0.00  0.00    +0.000 A 
ATOM     19  C   UNL     1      -6.154  13.432  23.154  0.00  0.00    +0.000 A 
ATOM     20  C   UNL     1      -5.363  12.751  22.227  0.00  0.00    +0.000 A 
ENDBRANCH  14  15
ENDBRANCH  10  14
ENDBRANCH   2   5
BRANCH   1  21
ATOM     21  C   UNL     1       0.472   9.594  19.352  0.00  0.00    +0.000 C 
BRANCH  21  24
ATOM     22  C   UNL     1       3.413   7.912  17.484  0.00  0.00    +0.000 C 
ATOM     23  N   UNL     1       2.407   8.147  18.513  0.00  0.00    +0.000 N 
ATOM     24  C   UNL     1       1.634   9.298  18.371  0.00  0.00    +0.000 C 
ATOM     25  O   UNL     1       1.899  10.135  17.494  0.00  0.00    +0.000 OA
BRANCH  23  26
ATOM     26  C   UNL     1       2.162   7.051  19.456  0.00  0.00    +0.000 C 
BRANCH  26  27
ATOM     27  C   UNL     1       2.670   5.680  19.044  0.00  0.00    +0.000 A 
ATOM     28  C   UNL     1       1.963   4.977  18.054  0.00  0.00    +0.000 A 
ATOM     29  C   UNL     1       2.428   3.758  17.556  0.00  0.00    +0.000 A 
ATOM     30  C   UNL     1       3.623   3.223  18.030  0.00  0.00    +0.000 A 
ATOM     31  C   UNL     1       4.346   3.910  19.004  0.00  0.00    +0.000 A 
ATOM     32  C   UNL     1       3.876   5.131  19.504  0.00  0.00    +0.000 A 
ENDBRANCH  26  27
ENDBRANCH  23  26
ENDBRANCH  21  24
BRANCH  21  33
ATOM     33  C   UNL     1       1.068  10.120  20.673  0.00  0.00    +0.000 C 
BRANCH  33  34
ATOM     34  C   UNL     1       0.177  11.010  21.523  0.00  0.00    +0.000 A 
ATOM     35  C   UNL     1      -0.782  10.514  22.419  0.00  0.00    +0.000 A 
ATOM     36  C   UNL     1      -1.578  11.373  23.177  0.00  0.00    +0.000 A 
ATOM     37  C   UNL     1      -1.417  12.749  23.066  0.00  0.00    +0.000 A 
ATOM     38  C   UNL     1      -0.469  13.263  22.187  0.00  0.00    +0.000 A 
ATOM     39  C   UNL     1       0.317  12.403  21.415  0.00  0.00    +0.000 A 
ENDBRANCH  33  34
ENDBRANCH  21  33
ENDBRANCH   1  21
TORSDOF 10
ENDMDL
MODEL 8
REMARK VINA RESULT:      -5.5      2.339      5.506
REMARK  Name = 
REMARK  11 active torsions:
REMARK  status: ('A' for Active; 'I' for Inactive)
REMARK    1  A    between atoms: C_1  and  N_2
REMARK    2  A    between atoms: N_2  and  C_3
REMARK    3  A    between atoms: C_3  and  C_4
REMARK    4  A    between atoms: C_10  and  C_12
REMARK    5  A    between atoms: C_12  and  C_13
REMARK    6  A    between atoms: C_12  and  N_20
REMARK    7  A    between atoms: C_13  and  C_14
REMARK    8  A    between atoms: C_21  and  C_23
REMARK    9  A    between atoms: C_25  and  O_26
REMARK   10  A    between atoms: C_29  and  C_31
REMARK   11  A    between atoms: C_31  and  C_32
REMARK                            x       y       z     vdW  Elec       q    Type
REMARK                         _______ _______ _______ _____ _____    ______ ____
ROOT
ATOM      1  N   UNL     1      -3.808  13.551  21.433  0.00  0.00    +0.000 N 
ATOM      2  C   UNL     1      -4.844  13.038  22.194  0.00  0.00    +0.000 C 
ATOM      3  O   UNL     1      -4.669  12.515  23.292  0.00  0.00    +0.000 OA
ATOM      4  H   UNL     1      -3.969  13.740  20.451  0.00  0.00    +0.000 HD
ENDROOT
BRANCH   2   5
ATOM      5  C   UNL     1      -6.254  13.238  21.571  0.00  0.00    +0.000 C 
ATOM      6  C   UNL     1      -6.994  14.338  22.351  0.00  0.00    +0.000 C 
ATOM      7  C   UNL     1      -6.623  15.599  21.574  0.00  0.00    +0.000 C 
ATOM      8  C   UNL     1      -6.756  15.126  20.137  0.00  0.00    +0.000 C 
ATOM      9  N   UNL     1      -6.285  13.744  20.179  0.00  0.00    +0.000 N 
ATOM     10  C   UNL     1      -6.285  13.019  19.004  0.00  0.00    +0.000 C 
ATOM     11  O   UNL     1      -6.705  13.520  17.955  0.00  0.00    +0.000 OA
BRANCH   7  12
ATOM     12  O   UNL     1      -5.282  15.988  21.861  0.00  0.00    +0.000 OA
ATOM     13  H   UNL     1      -5.080  16.831  21.404  0.00  0.00    +0.000 HD
ENDBRANCH   7  12
BRANCH  10  14
ATOM     14  C   UNL     1      -5.711  11.615  19.003  0.00  0.00    +0.000 C 
BRANCH  14  15
ATOM     15  C   UNL     1      -4.511  11.427  18.104  0.00  0.00    +0.000 A 
ATOM     16  C   UNL     1      -4.668  11.111  16.744  0.00  0.00    +0.000 A 
ATOM     17  C   UNL     1      -3.554  10.993  15.907  0.00  0.00    +0.000 A 
ATOM     18  C   UNL     1      -2.274  11.196  16.417  0.00  0.00    +0.000 A 
ATOM     19  C   UNL     1      -2.105  11.513  17.764  0.00  0.00    +0.000 A 
ATOM     20  C   UNL     1      -3.217  11.625  18.601  0.00  0.00    +0.000 A 
ENDBRANCH  14  15
ENDBRANCH  10  14
ENDBRANCH   2   5
BRANCH   1  21
ATOM     21  C   UNL     1      -2.385  13.418  21.813  0.00  0.00    +0.000 C 
BRANCH  21  24
ATOM     22  C   UNL     1      -1.019  16.898  22.807  0.00  0.00    +0.000 C 
ATOM     23  N   UNL     1      -1.270  15.712  21.996  0.00  0.00    +0.000 N 
ATOM     24  C   UNL     1      -1.979  14.681  22.611  0.00  0.00    +0.000 C 
ATOM     25  O   UNL     1      -2.245  14.730  23.822  0.00  0.00    +0.000 OA
BRANCH  23  26
ATOM     26  C   UNL     1      -0.953  15.812  20.568  0.00  0.00    +0.000 C 
BRANCH  26  27
ATOM     27  C   UNL     1       0.189  14.944  20.067  0.00  0.00    +0.000 A 
ATOM     28  C   UNL     1       1.259  14.683  20.938  0.00  0.00    +0.000 A 
ATOM     29  C   UNL     1       2.292  13.814  20.580  0.00  0.00    +0.000 A 
ATOM     30  C   UNL     1       2.266  13.174  19.344  0.00  0.00    +0.000 A 
ATOM     31  C   UNL     1       1.206  13.410  18.469  0.00  0.00    +0.000 A 
ATOM     32  C   UNL     1       0.173  14.285  18.829  0.00  0.00    +0.000 A 
ENDBRANCH  26  27
ENDBRANCH  23  26
ENDBRANCH  21  24
BRANCH  21  33
ATOM     33  C   UNL     1      -2.186  12.183  22.714  0.00  0.00    +0.000 C 
BRANCH  33  34
ATOM     34  C   UNL     1      -1.103  11.199  22.302  0.00  0.00    +0.000 A 
ATOM     35  C   UNL     1      -0.415  11.272  21.082  0.00  0.00    +0.000 A 
ATOM     36  C   UNL     1       0.571  10.343  20.750  0.00  0.00    +0.000 A 
ATOM     37  C   UNL     1       0.901   9.331  21.642  0.00  0.00    +0.000 A 
ATOM     38  C   UNL     1       0.235   9.241  22.861  0.00  0.00    +0.000 A 
ATOM     39  C   UNL     1      -0.765  10.162  23.187  0.00  0.00    +0.000 A 
ENDBRANCH  33  34
ENDBRANCH  21  33
ENDBRANCH   1  21
TORSDOF 10
ENDMDL
MODEL 9
REMARK VINA RESULT:      -5.5      2.402      6.728
REMARK  Name = 
REMARK  11 active torsions:
REMARK  status: ('A' for Active; 'I' for Inactive)
REMARK    1  A    between atoms: C_1  and  N_2
REMARK    2  A    between atoms: N_2  and  C_3
REMARK    3  A    between atoms: C_3  and  C_4
REMARK    4  A    between atoms: C_10  and  C_12
REMARK    5  A    between atoms: C_12  and  C_13
REMARK    6  A    between atoms: C_12  and  N_20
REMARK    7  A    between atoms: C_13  and  C_14
REMARK    8  A    between atoms: C_21  and  C_23
REMARK    9  A    between atoms: C_25  and  O_26
REMARK   10  A    between atoms: C_29  and  C_31
REMARK   11  A    between atoms: C_31  and  C_32
REMARK                            x       y       z     vdW  Elec       q    Type
REMARK                         _______ _______ _______ _____ _____    ______ ____
ROOT
ATOM      1  N   UNL     1      -5.442  13.899  20.679  0.00  0.00    +0.000 N 
ATOM      2  C   UNL     1      -4.088  13.637  20.790  0.00  0.00    +0.000 C 
ATOM      3  O   UNL     1      -3.496  12.861  20.043  0.00  0.00    +0.000 OA
ATOM      4  H   UNL     1      -5.920  14.340  21.455  0.00  0.00    +0.000 HD
ENDROOT
BRANCH   2   5
ATOM      5  C   UNL     1      -3.367  14.456  21.898  0.00  0.00    +0.000 C 
ATOM      6  C   UNL     1      -4.407  14.916  22.934  0.00  0.00    +0.000 C 
ATOM      7  C   UNL     1      -4.382  13.778  23.952  0.00  0.00    +0.000 C 
ATOM      8  C   UNL     1      -2.893  13.507  24.075  0.00  0.00    +0.000 C 
ATOM      9  N   UNL     1      -2.386  13.713  22.722  0.00  0.00    +0.000 N 
ATOM     10  C   UNL     1      -1.034  13.543  22.499  0.00  0.00    +0.000 C 
ATOM     11  O   UNL     1      -0.273  13.258  23.429  0.00  0.00    +0.000 OA
BRANCH   7  12
ATOM     12  O   UNL     1      -5.068  12.636  23.443  0.00  0.00    +0.000 OA
ATOM     13  H   UNL     1      -4.512  11.838  23.568  0.00  0.00    +0.000 HD
ENDBRANCH   7  12
BRANCH  10  14
ATOM     14  C   UNL     1      -0.500  13.658  21.083  0.00  0.00    +0.000 C 
BRANCH  14  15
ATOM     15  C   UNL     1      -0.128  12.340  20.443  0.00  0.00    +0.000 A 
ATOM     16  C   UNL     1      -0.582  11.123  20.976  0.00  0.00    +0.000 A 
ATOM     17  C   UNL     1      -0.278   9.911  20.347  0.00  0.00    +0.000 A 
ATOM     18  C   UNL     1       0.476   9.905  19.175  0.00  0.00    +0.000 A 
ATOM     19  C   UNL     1       0.929  11.107  18.634  0.00  0.00    +0.000 A 
ATOM     20  C   UNL     1       0.630  12.316  19.266  0.00  0.00    +0.000 A 
ENDBRANCH  14  15
ENDBRANCH  10  14
ENDBRANCH   2   5
BRANCH   1  21
ATOM     21  C   UNL     1      -6.326  13.189  19.730  0.00  0.00    +0.000 C 
BRANCH  21  24
ATOM     22  C   UNL     1      -7.317   9.497  20.323  0.00  0.00    +0.000 C 
ATOM     23  N   UNL     1      -7.004  10.726  19.604  0.00  0.00    +0.000 N 
ATOM     24  C   UNL     1      -6.763  11.856  20.386  0.00  0.00    +0.000 C 
ATOM     25  O   UNL     1      -6.953  11.829  21.611  0.00  0.00    +0.000 OA
BRANCH  23  26
ATOM     26  C   UNL     1      -6.755  10.601  18.164  0.00  0.00    +0.000 C 
BRANCH  26  27
ATOM     27  C   UNL     1      -5.300  10.552  17.732  0.00  0.00    +0.000 A 
ATOM     28  C   UNL     1      -4.845  11.515  16.816  0.00  0.00    +0.000 A 
ATOM     29  C   UNL     1      -3.498  11.592  16.452  0.00  0.00    +0.000 A 
ATOM     30  C   UNL     1      -2.575  10.712  17.010  0.00  0.00    +0.000 A 
ATOM     31  C   UNL     1      -3.005   9.756  17.930  0.00  0.00    +0.000 A 
ATOM     32  C   UNL     1      -4.355   9.679  18.292  0.00  0.00    +0.000 A 
ENDBRANCH  26  27
ENDBRANCH  23  26
ENDBRANCH  21  24
BRANCH  21  33
ATOM     33  C   UNL     1      -7.586  14.030  19.442  0.00  0.00    +0.000 C 
BRANCH  33  34
ATOM     34  C   UNL     1      -7.548  14.927  18.216  0.00  0.00    +0.000 A 
ATOM     35  C   UNL     1      -7.296  16.306  18.274  0.00  0.00    +0.000 A 
ATOM     36  C   UNL     1      -7.273  17.087  17.119  0.00  0.00    +0.000 A 
ATOM     37  C   UNL     1      -7.485  16.500  15.878  0.00  0.00    +0.000 A 
ATOM     38  C   UNL     1      -7.733  15.132  15.796  0.00  0.00    +0.000 A 
ATOM     39  C   UNL     1      -7.772  14.352  16.955  0.00  0.00    +0.000 A 
ENDBRANCH  33  34
ENDBRANCH  21  33
ENDBRANCH   1  21
TORSDOF 10
ENDMDL
