MODEL 1
REMARK VINA RESULT:      -7.9      0.000      0.000
REMARK  Name = 
REMARK  6 active torsions:
REMARK  status: ('A' for Active; 'I' for Inactive)
REMARK    1  A    between atoms: C_1  and  N_2
REMARK    2  A    between atoms: N_2  and  C_22
REMARK    3  A    between atoms: C_6  and  C_7
REMARK    4  A    between atoms: C_10  and  C_11
REMARK    5  A    between atoms: N_14  and  C_15
REMARK    6  A    between atoms: C_19  and  O_20
REMARK                            x       y       z     vdW  Elec       q    Type
REMARK                         _______ _______ _______ _____ _____    ______ ____
ROOT
ATOM      1  C   UNL     1      -1.108  11.624  22.886  0.00  0.00    +0.000 C 
ATOM      2  N   UNL     1      -0.685  11.494  21.487  0.00  0.00    +0.000 N 
ATOM      3  C   UNL     1      -0.018  10.333  21.168  0.00  0.00    +0.000 A 
ATOM      4  N   UNL     1       0.290   9.372  22.022  0.00  0.00    +0.000 NA
ATOM      5  N   UNL     1       1.079   8.381  21.483  0.00  0.00    +0.000 NA
ATOM      6  C   UNL     1       1.346   8.598  20.210  0.00  0.00    +0.000 A 
ATOM      7  S   UNL     1       0.516   9.952  19.567  0.00  0.00    +0.000 S 
ENDROOT
BRANCH   2   8
ATOM      8  C   UNL     1      -0.378  12.752  20.727  0.00  0.00    +0.000 C 
ATOM      9  C   UNL     1       0.558  13.656  21.578  0.00  0.00    +0.000 C 
ATOM     10  C   UNL     1       0.152  15.124  21.702  0.00  0.00    +0.000 C 
ATOM     11  C   UNL     1       0.466  15.932  20.447  0.00  0.00    +0.000 C 
ATOM     12  C   UNL     1      -0.797  15.826  19.603  0.00  0.00    +0.000 C 
ATOM     13  C   UNL     1      -1.744  14.957  20.426  0.00  0.00    +0.000 C 
ATOM     14  N   UNL     1      -1.300  15.251  21.798  0.00  0.00    +0.000 NA
ATOM     15  C   UNL     1      -1.616  13.459  20.096  0.00  0.00    +0.000 C 
ATOM     16  F   UNL     1      -2.782  12.861  20.475  0.00  0.00    +0.000 F 
ATOM     17  H   UNL     1      -1.694  14.584  22.460  0.00  0.00    +0.000 HD
ENDBRANCH   2   8
BRANCH   6  18
ATOM     18  C   UNL     1       2.162   7.725  19.364  0.00  0.00    +0.000 A 
ATOM     19  C   UNL     1       2.601   8.223  18.128  0.00  0.00    +0.000 A 
ATOM     20  C   UNL     1       3.419   7.455  17.293  0.00  0.00    +0.000 A 
ATOM     21  C   UNL     1       3.809   6.166  17.671  0.00  0.00    +0.000 A 
ATOM     22  C   UNL     1       3.349   5.646  18.887  0.00  0.00    +0.000 A 
ATOM     23  C   UNL     1       2.529   6.416  19.717  0.00  0.00    +0.000 A 
BRANCH  21  24
ATOM     24  C   UNL     1       4.672   5.367  16.822  0.00  0.00    +0.000 A 
ATOM     25  C   UNL     1       5.060   4.009  16.908  0.00  0.00    +0.000 A 
ATOM     26  N   UNL     1       5.898   3.646  15.929  0.00  0.00    +0.000 NA
ATOM     27  N   UNL     1       6.048   4.779  15.208  0.00  0.00    +0.000 N 
ATOM     28  C   UNL     1       5.339   5.839  15.713  0.00  0.00    +0.000 A 
BRANCH  27  29
ATOM     29  C   UNL     1       6.890   4.785  14.026  0.00  0.00    +0.000 C 
ATOM     30  F   UNL     1       6.395   3.978  13.047  0.00  0.00    +0.000 F 
ENDBRANCH  27  29
ENDBRANCH  21  24
BRANCH  23  31
ATOM     31  O   UNL     1       2.068   5.857  20.882  0.00  0.00    +0.000 OA
ATOM     32  H   UNL     1       1.198   6.229  21.100  0.00  0.00    +0.000 HD
ENDBRANCH  23  31
ENDBRANCH   6  18
TORSDOF 5
ENDMDL
MODEL 2
REMARK VINA RESULT:      -7.7      2.771      4.052
REMARK  Name = 
REMARK  6 active torsions:
REMARK  status: ('A' for Active; 'I' for Inactive)
REMARK    1  A    between atoms: C_1  and  N_2
REMARK    2  A    between atoms: N_2  and  C_22
REMARK    3  A    between atoms: C_6  and  C_7
REMARK    4  A    between atoms: C_10  and  C_11
REMARK    5  A    between atoms: N_14  and  C_15
REMARK    6  A    between atoms: C_19  and  O_20
REMARK                            x       y       z     vdW  Elec       q    Type
REMARK                         _______ _______ _______ _____ _____    ______ ____
ROOT
ATOM      1  C   UNL     1      -2.016  15.000  20.695  0.00  0.00    +0.000 C 
ATOM      2  N   UNL     1      -1.828  13.679  21.303  0.00  0.00    +0.000 N 
ATOM      3  C   UNL     1      -0.899  12.864  20.694  0.00  0.00    +0.000 A 
ATOM      4  N   UNL     1      -0.213  13.173  19.607  0.00  0.00    +0.000 NA
ATOM      5  N   UNL     1       0.549  12.136  19.118  0.00  0.00    +0.000 NA
ATOM      6  C   UNL     1       0.442  11.051  19.859  0.00  0.00    +0.000 A 
ATOM      7  S   UNL     1      -0.481  11.292  21.282  0.00  0.00    +0.000 S 
ENDROOT
BRANCH   2   8
ATOM      8  C   UNL     1      -2.998  13.059  22.011  0.00  0.00    +0.000 C 
ATOM      9  C   UNL     1      -4.317  13.686  21.478  0.00  0.00    +0.000 C 
ATOM     10  C   UNL     1      -5.318  14.154  22.534  0.00  0.00    +0.000 C 
ATOM     11  C   UNL     1      -6.089  13.002  23.170  0.00  0.00    +0.000 C 
ATOM     12  C   UNL     1      -5.252  12.606  24.378  0.00  0.00    +0.000 C 
ATOM     13  C   UNL     1      -4.053  13.551  24.347  0.00  0.00    +0.000 C 
ATOM     14  N   UNL     1      -4.624  14.733  23.682  0.00  0.00    +0.000 NA
ATOM     15  C   UNL     1      -2.861  12.976  23.562  0.00  0.00    +0.000 C 
ATOM     16  F   UNL     1      -1.741  13.618  24.001  0.00  0.00    +0.000 F 
ATOM     17  H   UNL     1      -3.891  15.379  23.393  0.00  0.00    +0.000 HD
ENDBRANCH   2   8
BRANCH   6  18
ATOM     18  C   UNL     1       1.127   9.784  19.594  0.00  0.00    +0.000 A 
ATOM     19  C   UNL     1       1.156   8.821  20.613  0.00  0.00    +0.000 A 
ATOM     20  C   UNL     1       1.757   7.575  20.409  0.00  0.00    +0.000 A 
ATOM     21  C   UNL     1       2.354   7.267  19.181  0.00  0.00    +0.000 A 
ATOM     22  C   UNL     1       2.362   8.234  18.169  0.00  0.00    +0.000 A 
ATOM     23  C   UNL     1       1.762   9.479  18.378  0.00  0.00    +0.000 A 
BRANCH  21  24
ATOM     24  C   UNL     1       2.965   5.972  18.952  0.00  0.00    +0.000 A 
ATOM     25  C   UNL     1       3.275   4.920  19.846  0.00  0.00    +0.000 A 
ATOM     26  N   UNL     1       3.862   3.880  19.242  0.00  0.00    +0.000 NA
ATOM     27  N   UNL     1       3.929   4.267  17.949  0.00  0.00    +0.000 N 
ATOM     28  C   UNL     1       3.412   5.519  17.731  0.00  0.00    +0.000 A 
BRANCH  27  29
ATOM     29  C   UNL     1       4.502   3.381  16.952  0.00  0.00    +0.000 C 
ATOM     30  F   UNL     1       4.715   4.019  15.768  0.00  0.00    +0.000 F 
ENDBRANCH  27  29
ENDBRANCH  21  24
BRANCH  23  31
ATOM     31  O   UNL     1       1.824  10.412  17.375  0.00  0.00    +0.000 OA
ATOM     32  H   UNL     1       1.005  10.383  16.852  0.00  0.00    +0.000 HD
ENDBRANCH  23  31
ENDBRANCH   6  18
TORSDOF 5
ENDMDL
MODEL 3
REMARK VINA RESULT:      -7.7      2.945      4.141
REMARK  Name = 
REMARK  6 active torsions:
REMARK  status: ('A' for Active; 'I' for Inactive)
REMARK    1  A    between atoms: C_1  and  N_2
REMARK    2  A    between atoms: N_2  and  C_22
REMARK    3  A    between atoms: C_6  and  C_7
REMARK    4  A    between atoms: C_10  and  C_11
REMARK    5  A    between atoms: N_14  and  C_15
REMARK    6  A    between atoms: C_19  and  O_20
REMARK                            x       y       z     vdW  Elec       q    Type
REMARK                         _______ _______ _______ _____ _____    ______ ____
ROOT
ATOM      1  C   UNL     1      -1.557  14.813  21.219  0.00  0.00    +0.000 C 
ATOM      2  N   UNL     1      -1.671  13.377  21.496  0.00  0.00    +0.000 N 
ATOM      3  C   UNL     1      -0.695  12.580  20.941  0.00  0.00    +0.000 A 
ATOM      4  N   UNL     1       0.289  13.007  20.167  0.00  0.00    +0.000 NA
ATOM      5  N   UNL     1       1.051  11.996  19.628  0.00  0.00    +0.000 NA
ATOM      6  C   UNL     1       0.642  10.805  20.018  0.00  0.00    +0.000 A 
ATOM      7  S   UNL     1      -0.606  10.870  21.190  0.00  0.00    +0.000 S 
ENDROOT
BRANCH   2   8
ATOM      8  C   UNL     1      -3.044  12.811  21.718  0.00  0.00    +0.000 C 
ATOM      9  C   UNL     1      -4.024  13.403  20.667  0.00  0.00    +0.000 C 
ATOM     10  C   UNL     1      -5.347  13.947  21.205  0.00  0.00    +0.000 C 
ATOM     11  C   UNL     1      -6.341  12.845  21.554  0.00  0.00    +0.000 C 
ATOM     12  C   UNL     1      -6.064  12.533  23.018  0.00  0.00    +0.000 C 
ATOM     13  C   UNL     1      -4.923  13.470  23.406  0.00  0.00    +0.000 C 
ATOM     14  N   UNL     1      -5.147  14.604  22.495  0.00  0.00    +0.000 NA
ATOM     15  C   UNL     1      -3.535  12.838  23.198  0.00  0.00    +0.000 C 
ATOM     16  F   UNL     1      -2.661  13.506  24.004  0.00  0.00    +0.000 F 
ATOM     17  H   UNL     1      -4.340  15.226  22.481  0.00  0.00    +0.000 HD
ENDBRANCH   2   8
BRANCH   6  18
ATOM     18  C   UNL     1       1.248   9.536  19.611  0.00  0.00    +0.000 A 
ATOM     19  C   UNL     1       1.343   8.511  20.565  0.00  0.00    +0.000 A 
ATOM     20  C   UNL     1       1.872   7.262  20.228  0.00  0.00    +0.000 A 
ATOM     21  C   UNL     1       2.329   7.010  18.930  0.00  0.00    +0.000 A 
ATOM     22  C   UNL     1       2.271   8.037  17.980  0.00  0.00    +0.000 A 
ATOM     23  C   UNL     1       1.744   9.285  18.321  0.00  0.00    +0.000 A 
BRANCH  21  24
ATOM     24  C   UNL     1       2.863   5.713  18.564  0.00  0.00    +0.000 A 
ATOM     25  C   UNL     1       3.859   5.349  17.627  0.00  0.00    +0.000 A 
ATOM     26  N   UNL     1       4.057   4.027  17.566  0.00  0.00    +0.000 NA
ATOM     27  N   UNL     1       3.181   3.537  18.471  0.00  0.00    +0.000 N 
ATOM     28  C   UNL     1       2.437   4.512  19.086  0.00  0.00    +0.000 A 
BRANCH  27  29
ATOM     29  C   UNL     1       3.104   2.107  18.711  0.00  0.00    +0.000 C 
ATOM     30  F   UNL     1       3.717   1.395  17.726  0.00  0.00    +0.000 F 
ENDBRANCH  27  29
ENDBRANCH  21  24
BRANCH  23  31
ATOM     31  O   UNL     1       1.739  10.275  17.373  0.00  0.00    +0.000 OA
ATOM     32  H   UNL     1       2.363  10.051  16.663  0.00  0.00    +0.000 HD
ENDBRANCH  23  31
ENDBRANCH   6  18
TORSDOF 5
ENDMDL
MODEL 4
REMARK VINA RESULT:      -7.5      1.378      1.676
REMARK  Name = 
REMARK  6 active torsions:
REMARK  status: ('A' for Active; 'I' for Inactive)
REMARK    1  A    between atoms: C_1  and  N_2
REMARK    2  A    between atoms: N_2  and  C_22
REMARK    3  A    between atoms: C_6  and  C_7
REMARK    4  A    between atoms: C_10  and  C_11
REMARK    5  A    between atoms: N_14  and  C_15
REMARK    6  A    between atoms: C_19  and  O_20
REMARK                            x       y       z     vdW  Elec       q    Type
REMARK                         _______ _______ _______ _____ _____    ______ ____
ROOT
ATOM      1  C   UNL     1      -0.624   9.950  22.668  0.00  0.00    +0.000 C 
ATOM      2  N   UNL     1      -0.192  10.103  21.274  0.00  0.00    +0.000 N 
ATOM      3  C   UNL     1       0.543   9.060  20.756  0.00  0.00    +0.000 A 
ATOM      4  N   UNL     1       0.904   7.977  21.423  0.00  0.00    +0.000 NA
ATOM      5  N   UNL     1       1.750   7.148  20.721  0.00  0.00    +0.000 NA
ATOM      6  C   UNL     1       2.006   7.610  19.513  0.00  0.00    +0.000 A 
ATOM      7  S   UNL     1       1.100   9.010  19.119  0.00  0.00    +0.000 S 
ENDROOT
BRANCH   2   8
ATOM      8  C   UNL     1       0.044  11.495  20.762  0.00  0.00    +0.000 C 
ATOM      9  C   UNL     1       0.055  12.492  21.954  0.00  0.00    +0.000 C 
ATOM     10  C   UNL     1      -0.801  13.748  21.794  0.00  0.00    +0.000 C 
ATOM     11  C   UNL     1      -0.160  14.788  20.882  0.00  0.00    +0.000 C 
ATOM     12  C   UNL     1      -0.689  14.452  19.494  0.00  0.00    +0.000 C 
ATOM     13  C   UNL     1      -1.588  13.237  19.704  0.00  0.00    +0.000 C 
ATOM     14  N   UNL     1      -2.042  13.439  21.089  0.00  0.00    +0.000 NA
ATOM     15  C   UNL     1      -0.837  11.904  19.541  0.00  0.00    +0.000 C 
ATOM     16  F   UNL     1      -1.766  10.948  19.251  0.00  0.00    +0.000 F 
ATOM     17  H   UNL     1      -2.485  12.597  21.455  0.00  0.00    +0.000 HD
ENDBRANCH   2   8
BRANCH   6  18
ATOM     18  C   UNL     1       2.873   6.955  18.532  0.00  0.00    +0.000 A 
ATOM     19  C   UNL     1       3.600   7.765  17.646  0.00  0.00    +0.000 A 
ATOM     20  C   UNL     1       4.478   7.203  16.714  0.00  0.00    +0.000 A 
ATOM     21  C   UNL     1       4.641   5.815  16.639  0.00  0.00    +0.000 A 
ATOM     22  C   UNL     1       3.895   4.996  17.495  0.00  0.00    +0.000 A 
ATOM     23  C   UNL     1       3.016   5.562  18.423  0.00  0.00    +0.000 A 
BRANCH  21  24
ATOM     24  C   UNL     1       5.562   5.222  15.689  0.00  0.00    +0.000 A 
ATOM     25  C   UNL     1       6.975   5.137  15.693  0.00  0.00    +0.000 A 
ATOM     26  N   UNL     1       7.461   4.521  14.610  0.00  0.00    +0.000 NA
ATOM     27  N   UNL     1       6.352   4.206  13.904  0.00  0.00    +0.000 N 
ATOM     28  C   UNL     1       5.192   4.616  14.508  0.00  0.00    +0.000 A 
BRANCH  27  29
ATOM     29  C   UNL     1       6.469   3.497  12.642  0.00  0.00    +0.000 C 
ATOM     30  F   UNL     1       7.283   4.149  11.767  0.00  0.00    +0.000 F 
ENDBRANCH  27  29
ENDBRANCH  21  24
BRANCH  23  31
ATOM     31  O   UNL     1       2.275   4.725  19.217  0.00  0.00    +0.000 OA
ATOM     32  H   UNL     1       2.532   4.844  20.147  0.00  0.00    +0.000 HD
ENDBRANCH  23  31
ENDBRANCH   6  18
TORSDOF 5
ENDMDL
MODEL 5
REMARK VINA RESULT:      -7.4      3.559      4.952
REMARK  Name = 
REMARK  6 active torsions:
REMARK  status: ('A' for Active; 'I' for Inactive)
REMARK    1  A    between atoms: C_1  and  N_2
REMARK    2  A    between atoms: N_2  and  C_22
REMARK    3  A    between atoms: C_6  and  C_7
REMARK    4  A    between atoms: C_10  and  C_11
REMARK    5  A    between atoms: N_14  and  C_15
REMARK    6  A    between atoms: C_19  and  O_20
REMARK                            x       y       z     vdW  Elec       q    Type
REMARK                         _______ _______ _______ _____ _____    ______ ____
ROOT
ATOM      1  C   UNL     1      -2.987  14.991  20.839  0.00  0.00    +0.000 C 
ATOM      2  N   UNL     1      -2.771  13.684  21.469  0.00  0.00    +0.000 N 
ATOM      3  C   UNL     1      -1.744  12.929  20.949  0.00  0.00    +0.000 A 
ATOM      4  N   UNL     1      -0.984  13.280  19.925  0.00  0.00    +0.000 NA
ATOM      5  N   UNL     1      -0.119  12.292  19.511  0.00  0.00    +0.000 NA
ATOM      6  C   UNL     1      -0.223  11.203  20.246  0.00  0.00    +0.000 A 
ATOM      7  S   UNL     1      -1.282  11.386  21.580  0.00  0.00    +0.000 S 
ENDROOT
BRANCH   2   8
ATOM      8  C   UNL     1      -3.959  12.992  22.074  0.00  0.00    +0.000 C 
ATOM      9  C   UNL     1      -5.173  13.109  21.110  0.00  0.00    +0.000 C 
ATOM     10  C   UNL     1      -6.491  13.565  21.735  0.00  0.00    +0.000 C 
ATOM     11  C   UNL     1      -7.186  12.459  22.522  0.00  0.00    +0.000 C 
ATOM     12  C   UNL     1      -6.654  12.611  23.940  0.00  0.00    +0.000 C 
ATOM     13  C   UNL     1      -5.682  13.785  23.868  0.00  0.00    +0.000 C 
ATOM     14  N   UNL     1      -6.252  14.575  22.764  0.00  0.00    +0.000 NA
ATOM     15  C   UNL     1      -4.238  13.348  23.566  0.00  0.00    +0.000 C 
ATOM     16  F   UNL     1      -3.414  14.341  24.007  0.00  0.00    +0.000 F 
ATOM     17  H   UNL     1      -5.597  15.288  22.448  0.00  0.00    +0.000 HD
ENDBRANCH   2   8
BRANCH   6  18
ATOM     18  C   UNL     1       0.560   9.981  20.049  0.00  0.00    +0.000 A 
ATOM     19  C   UNL     1       0.714   9.111  21.139  0.00  0.00    +0.000 A 
ATOM     20  C   UNL     1       1.414   7.908  21.006  0.00  0.00    +0.000 A 
ATOM     21  C   UNL     1       1.987   7.552  19.779  0.00  0.00    +0.000 A 
ATOM     22  C   UNL     1       1.869   8.429  18.695  0.00  0.00    +0.000 A 
ATOM     23  C   UNL     1       1.170   9.632  18.834  0.00  0.00    +0.000 A 
BRANCH  21  24
ATOM     24  C   UNL     1       2.700   6.299  19.624  0.00  0.00    +0.000 A 
ATOM     25  C   UNL     1       3.803   5.953  18.807  0.00  0.00    +0.000 A 
ATOM     26  N   UNL     1       4.162   4.670  18.936  0.00  0.00    +0.000 NA
ATOM     27  N   UNL     1       3.284   4.189  19.843  0.00  0.00    +0.000 N 
ATOM     28  C   UNL     1       2.383   5.128  20.276  0.00  0.00    +0.000 A 
BRANCH  27  29
ATOM     29  C   UNL     1       3.362   2.802  20.268  0.00  0.00    +0.000 C 
ATOM     30  F   UNL     1       2.499   2.010  19.573  0.00  0.00    +0.000 F 
ENDBRANCH  27  29
ENDBRANCH  21  24
BRANCH  23  31
ATOM     31  O   UNL     1       1.109  10.481  17.759  0.00  0.00    +0.000 OA
ATOM     32  H   UNL     1       1.351  10.001  16.949  0.00  0.00    +0.000 HD
ENDBRANCH  23  31
ENDBRANCH   6  18
TORSDOF 5
ENDMDL
MODEL 6
REMARK VINA RESULT:      -7.4      2.805      3.896
REMARK  Name = 
REMARK  6 active torsions:
REMARK  status: ('A' for Active; 'I' for Inactive)
REMARK    1  A    between atoms: C_1  and  N_2
REMARK    2  A    between atoms: N_2  and  C_22
REMARK    3  A    between atoms: C_6  and  C_7
REMARK    4  A    between atoms: C_10  and  C_11
REMARK    5  A    between atoms: N_14  and  C_15
REMARK    6  A    between atoms: C_19  and  O_20
REMARK                            x       y       z     vdW  Elec       q    Type
REMARK                         _______ _______ _______ _____ _____    ______ ____
ROOT
ATOM      1  C   UNL     1      -2.111  14.515  20.974  0.00  0.00    +0.000 C 
ATOM      2  N   UNL     1      -2.153  13.058  21.137  0.00  0.00    +0.000 N 
ATOM      3  C   UNL     1      -1.052  12.371  20.676  0.00  0.00    +0.000 A 
ATOM      4  N   UNL     1      -0.006  12.920  20.081  0.00  0.00    +0.000 NA
ATOM      5  N   UNL     1       0.898  12.004  19.592  0.00  0.00    +0.000 NA
ATOM      6  C   UNL     1       0.530  10.763  19.841  0.00  0.00    +0.000 A 
ATOM      7  S   UNL     1      -0.869  10.657  20.823  0.00  0.00    +0.000 S 
ENDROOT
BRANCH   2   8
ATOM      8  C   UNL     1      -3.497  12.389  21.122  0.00  0.00    +0.000 C 
ATOM      9  C   UNL     1      -4.145  12.559  19.720  0.00  0.00    +0.000 C 
ATOM     10  C   UNL     1      -5.596  13.039  19.698  0.00  0.00    +0.000 C 
ATOM     11  C   UNL     1      -6.589  11.938  20.055  0.00  0.00    +0.000 C 
ATOM     12  C   UNL     1      -6.749  12.047  21.565  0.00  0.00    +0.000 C 
ATOM     13  C   UNL     1      -5.829  13.195  21.973  0.00  0.00    +0.000 C 
ATOM     14  N   UNL     1      -5.829  14.022  20.754  0.00  0.00    +0.000 NA
ATOM     15  C   UNL     1      -4.412  12.723  22.340  0.00  0.00    +0.000 C 
ATOM     16  F   UNL     1      -3.858  13.684  23.134  0.00  0.00    +0.000 F 
ATOM     17  H   UNL     1      -5.089  14.722  20.788  0.00  0.00    +0.000 HD
ENDBRANCH   2   8
BRANCH   6  18
ATOM     18  C   UNL     1       1.281   9.571  19.443  0.00  0.00    +0.000 A 
ATOM     19  C   UNL     1       1.326   8.488  20.334  0.00  0.00    +0.000 A 
ATOM     20  C   UNL     1       1.990   7.305  19.996  0.00  0.00    +0.000 A 
ATOM     21  C   UNL     1       2.635   7.181  18.760  0.00  0.00    +0.000 A 
ATOM     22  C   UNL     1       2.625   8.267  17.877  0.00  0.00    +0.000 A 
ATOM     23  C   UNL     1       1.962   9.449  18.221  0.00  0.00    +0.000 A 
BRANCH  21  24
ATOM     24  C   UNL     1       3.311   5.953  18.391  0.00  0.00    +0.000 A 
ATOM     25  C   UNL     1       3.388   4.701  19.048  0.00  0.00    +0.000 A 
ATOM     26  N   UNL     1       4.138   3.812  18.386  0.00  0.00    +0.000 NA
ATOM     27  N   UNL     1       4.546   4.498  17.294  0.00  0.00    +0.000 N 
ATOM     28  C   UNL     1       4.082   5.788  17.261  0.00  0.00    +0.000 A 
BRANCH  27  29
ATOM     29  C   UNL     1       5.386   3.853  16.301  0.00  0.00    +0.000 C 
ATOM     30  F   UNL     1       5.162   4.346  15.051  0.00  0.00    +0.000 F 
ENDBRANCH  27  29
ENDBRANCH  21  24
BRANCH  23  31
ATOM     31  O   UNL     1       2.008  10.503  17.345  0.00  0.00    +0.000 OA
ATOM     32  H   UNL     1       1.301  10.411  16.685  0.00  0.00    +0.000 HD
ENDBRANCH  23  31
ENDBRANCH   6  18
TORSDOF 5
ENDMDL
MODEL 7
REMARK VINA RESULT:      -7.3      1.703      2.188
REMARK  Name = 
REMARK  6 active torsions:
REMARK  status: ('A' for Active; 'I' for Inactive)
REMARK    1  A    between atoms: C_1  and  N_2
REMARK    2  A    between atoms: N_2  and  C_22
REMARK    3  A    between atoms: C_6  and  C_7
REMARK    4  A    between atoms: C_10  and  C_11
REMARK    5  A    between atoms: N_14  and  C_15
REMARK    6  A    between atoms: C_19  and  O_20
REMARK                            x       y       z     vdW  Elec       q    Type
REMARK                         _______ _______ _______ _____ _____    ______ ____
ROOT
ATOM      1  C   UNL     1      -1.329  13.922  21.499  0.00  0.00    +0.000 C 
ATOM      2  N   UNL     1      -0.291  13.574  20.524  0.00  0.00    +0.000 N 
ATOM      3  C   UNL     1      -0.086  12.227  20.321  0.00  0.00    +0.000 A 
ATOM      4  N   UNL     1      -0.721  11.256  20.956  0.00  0.00    +0.000 NA
ATOM      5  N   UNL     1      -0.237   9.998  20.673  0.00  0.00    +0.000 NA
ATOM      6  C   UNL     1       0.755  10.033  19.805  0.00  0.00    +0.000 A 
ATOM      7  S   UNL     1       1.047  11.599  19.175  0.00  0.00    +0.000 S 
ENDROOT
BRANCH   2   8
ATOM      8  C   UNL     1       0.857  14.527  20.350  0.00  0.00    +0.000 C 
ATOM      9  C   UNL     1       1.132  15.257  21.694  0.00  0.00    +0.000 C 
ATOM     10  C   UNL     1       1.278  16.777  21.622  0.00  0.00    +0.000 C 
ATOM     11  C   UNL     1       2.632  17.215  21.073  0.00  0.00    +0.000 C 
ATOM     12  C   UNL     1       2.413  17.330  19.571  0.00  0.00    +0.000 C 
ATOM     13  C   UNL     1       0.953  16.940  19.359  0.00  0.00    +0.000 C 
ATOM     14  N   UNL     1       0.351  17.337  20.642  0.00  0.00    +0.000 NA
ATOM     15  C   UNL     1       0.771  15.436  19.086  0.00  0.00    +0.000 C 
ATOM     16  F   UNL     1      -0.420  15.284  18.439  0.00  0.00    +0.000 F 
ATOM     17  H   UNL     1      -0.586  16.947  20.742  0.00  0.00    +0.000 HD
ENDBRANCH   2   8
BRANCH   6  18
ATOM     18  C   UNL     1       1.477   8.859  19.311  0.00  0.00    +0.000 A 
ATOM     19  C   UNL     1       1.829   8.821  17.953  0.00  0.00    +0.000 A 
ATOM     20  C   UNL     1       2.557   7.749  17.429  0.00  0.00    +0.000 A 
ATOM     21  C   UNL     1       2.939   6.681  18.249  0.00  0.00    +0.000 A 
ATOM     22  C   UNL     1       2.563   6.692  19.597  0.00  0.00    +0.000 A 
ATOM     23  C   UNL     1       1.833   7.765  20.117  0.00  0.00    +0.000 A 
BRANCH  21  24
ATOM     24  C   UNL     1       3.709   5.572  17.720  0.00  0.00    +0.000 A 
ATOM     25  C   UNL     1       3.711   4.198  18.059  0.00  0.00    +0.000 A 
ATOM     26  N   UNL     1       4.593   3.488  17.345  0.00  0.00    +0.000 NA
ATOM     27  N   UNL     1       5.161   4.413  16.540  0.00  0.00    +0.000 N 
ATOM     28  C   UNL     1       4.669   5.678  16.738  0.00  0.00    +0.000 A 
BRANCH  27  29
ATOM     29  C   UNL     1       6.181   4.020  15.585  0.00  0.00    +0.000 C 
ATOM     30  F   UNL     1       5.741   4.127  14.301  0.00  0.00    +0.000 F 
ENDBRANCH  27  29
ENDBRANCH  21  24
BRANCH  23  31
ATOM     31  O   UNL     1       1.452   7.720  21.433  0.00  0.00    +0.000 OA
ATOM     32  H   UNL     1       2.234   7.598  21.996  0.00  0.00    +0.000 HD
ENDBRANCH  23  31
ENDBRANCH   6  18
TORSDOF 5
ENDMDL
MODEL 8
REMARK VINA RESULT:      -7.3      2.605      3.616
REMARK  Name = 
REMARK  6 active torsions:
REMARK  status: ('A' for Active; 'I' for Inactive)
REMARK    1  A    between atoms: C_1  and  N_2
REMARK    2  A    between atoms: N_2  and  C_22
REMARK    3  A    between atoms: C_6  and  C_7
REMARK    4  A    between atoms: C_10  and  C_11
REMARK    5  A    between atoms: N_14  and  C_15
REMARK    6  A    between atoms: C_19  and  O_20
REMARK                            x       y       z     vdW  Elec       q    Type
REMARK                         _______ _______ _______ _____ _____    ______ ____
ROOT
ATOM      1  C   UNL     1      -1.091  15.036  22.583  0.00  0.00    +0.000 C 
ATOM      2  N   UNL     1      -1.518  13.650  22.366  0.00  0.00    +0.000 N 
ATOM      3  C   UNL     1      -0.564  12.802  21.850  0.00  0.00    +0.000 A 
ATOM      4  N   UNL     1       0.665  13.154  21.513  0.00  0.00    +0.000 NA
ATOM      5  N   UNL     1       1.379  12.153  20.893  0.00  0.00    +0.000 NA
ATOM      6  C   UNL     1       0.681  11.041  20.784  0.00  0.00    +0.000 A 
ATOM      7  S   UNL     1      -0.838  11.116  21.573  0.00  0.00    +0.000 S 
ENDROOT
BRANCH   2   8
ATOM      8  C   UNL     1      -2.967  13.402  22.057  0.00  0.00    +0.000 C 
ATOM      9  C   UNL     1      -3.672  14.755  21.757  0.00  0.00    +0.000 C 
ATOM     10  C   UNL     1      -4.993  15.004  22.483  0.00  0.00    +0.000 C 
ATOM     11  C   UNL     1      -6.158  14.230  21.874  0.00  0.00    +0.000 C 
ATOM     12  C   UNL     1      -6.178  12.913  22.638  0.00  0.00    +0.000 C 
ATOM     13  C   UNL     1      -5.018  13.018  23.625  0.00  0.00    +0.000 C 
ATOM     14  N   UNL     1      -4.944  14.472  23.843  0.00  0.00    +0.000 NA
ATOM     15  C   UNL     1      -3.701  12.459  23.059  0.00  0.00    +0.000 C 
ATOM     16  F   UNL     1      -2.907  12.140  24.121  0.00  0.00    +0.000 F 
ATOM     17  H   UNL     1      -4.078  14.726  24.316  0.00  0.00    +0.000 HD
ENDBRANCH   2   8
BRANCH   6  18
ATOM     18  C   UNL     1       1.165   9.804  20.167  0.00  0.00    +0.000 A 
ATOM     19  C   UNL     1       1.285   9.764  18.770  0.00  0.00    +0.000 A 
ATOM     20  C   UNL     1       1.781   8.628  18.123  0.00  0.00    +0.000 A 
ATOM     21  C   UNL     1       2.158   7.499  18.860  0.00  0.00    +0.000 A 
ATOM     22  C   UNL     1       2.009   7.516  20.251  0.00  0.00    +0.000 A 
ATOM     23  C   UNL     1       1.511   8.653  20.894  0.00  0.00    +0.000 A 
BRANCH  21  24
ATOM     24  C   UNL     1       2.691   6.322  18.202  0.00  0.00    +0.000 A 
ATOM     25  C   UNL     1       2.172   5.010  18.082  0.00  0.00    +0.000 A 
ATOM     26  N   UNL     1       2.984   4.190  17.406  0.00  0.00    +0.000 NA
ATOM     27  N   UNL     1       4.033   4.981  17.087  0.00  0.00    +0.000 N 
ATOM     28  C   UNL     1       3.904   6.265  17.553  0.00  0.00    +0.000 A 
BRANCH  27  29
ATOM     29  C   UNL     1       5.143   4.446  16.319  0.00  0.00    +0.000 C 
ATOM     30  F   UNL     1       5.363   5.159  15.180  0.00  0.00    +0.000 F 
ENDBRANCH  27  29
ENDBRANCH  21  24
BRANCH  23  31
ATOM     31  O   UNL     1       1.344   8.616  22.254  0.00  0.00    +0.000 OA
ATOM     32  H   UNL     1       0.772   9.350  22.533  0.00  0.00    +0.000 HD
ENDBRANCH  23  31
ENDBRANCH   6  18
TORSDOF 5
ENDMDL
MODEL 9
REMARK VINA RESULT:      -7.3      3.605      4.954
REMARK  Name = 
REMARK  6 active torsions:
REMARK  status: ('A' for Active; 'I' for Inactive)
REMARK    1  A    between atoms: C_1  and  N_2
REMARK    2  A    between atoms: N_2  and  C_22
REMARK    3  A    between atoms: C_6  and  C_7
REMARK    4  A    between atoms: C_10  and  C_11
REMARK    5  A    between atoms: N_14  and  C_15
REMARK    6  A    between atoms: C_19  and  O_20
REMARK                            x       y       z     vdW  Elec       q    Type
REMARK                         _______ _______ _______ _____ _____    ______ ____
ROOT
ATOM      1  C   UNL     1      -2.770  15.434  23.633  0.00  0.00    +0.000 C 
ATOM      2  N   UNL     1      -3.020  14.012  23.374  0.00  0.00    +0.000 N 
ATOM      3  C   UNL     1      -1.937  13.282  22.937  0.00  0.00    +0.000 A 
ATOM      4  N   UNL     1      -0.731  13.773  22.708  0.00  0.00    +0.000 NA
ATOM      5  N   UNL     1       0.140  12.866  22.146  0.00  0.00    +0.000 NA
ATOM      6  C   UNL     1      -0.419  11.685  21.972  0.00  0.00    +0.000 A 
ATOM      7  S   UNL     1      -1.998  11.580  22.629  0.00  0.00    +0.000 S 
ENDROOT
BRANCH   2   8
ATOM      8  C   UNL     1      -4.401  13.610  22.941  0.00  0.00    +0.000 C 
ATOM      9  C   UNL     1      -5.148  14.849  22.373  0.00  0.00    +0.000 C 
ATOM     10  C   UNL     1      -6.562  15.088  22.901  0.00  0.00    +0.000 C 
ATOM     11  C   UNL     1      -7.591  14.148  22.281  0.00  0.00    +0.000 C 
ATOM     12  C   UNL     1      -7.622  12.948  23.217  0.00  0.00    +0.000 C 
ATOM     13  C   UNL     1      -6.602  13.276  24.305  0.00  0.00    +0.000 C 
ATOM     14  N   UNL     1      -6.647  14.747  24.319  0.00  0.00    +0.000 NA
ATOM     15  C   UNL     1      -5.192  12.754  23.977  0.00  0.00    +0.000 C 
ATOM     16  F   UNL     1      -4.517  12.645  25.157  0.00  0.00    +0.000 F 
ATOM     17  H   UNL     1      -5.864  15.132  24.847  0.00  0.00    +0.000 HD
ENDBRANCH   2   8
BRANCH   6  18
ATOM     18  C   UNL     1       0.250  10.519  21.392  0.00  0.00    +0.000 A 
ATOM     19  C   UNL     1       0.327  10.425  19.994  0.00  0.00    +0.000 A 
ATOM     20  C   UNL     1       0.989   9.359  19.380  0.00  0.00    +0.000 A 
ATOM     21  C   UNL     1       1.582   8.352  20.151  0.00  0.00    +0.000 A 
ATOM     22  C   UNL     1       1.481   8.417  21.545  0.00  0.00    +0.000 A 
ATOM     23  C   UNL     1       0.816   9.484  22.156  0.00  0.00    +0.000 A 
BRANCH  21  24
ATOM     24  C   UNL     1       2.287   7.250  19.525  0.00  0.00    +0.000 A 
ATOM     25  C   UNL     1       2.439   5.900  19.922  0.00  0.00    +0.000 A 
ATOM     26  N   UNL     1       3.192   5.190  19.074  0.00  0.00    +0.000 NA
ATOM     27  N   UNL     1       3.525   6.092  18.123  0.00  0.00    +0.000 N 
ATOM     28  C   UNL     1       3.013   7.342  18.359  0.00  0.00    +0.000 A 
BRANCH  27  29
ATOM     29  C   UNL     1       4.344   5.690  16.993  0.00  0.00    +0.000 C 
ATOM     30  F   UNL     1       4.190   4.369  16.700  0.00  0.00    +0.000 F 
ENDBRANCH  27  29
ENDBRANCH  21  24
BRANCH  23  31
ATOM     31  O   UNL     1       0.706   9.492  23.522  0.00  0.00    +0.000 OA
ATOM     32  H   UNL     1       1.085  10.314  23.876  0.00  0.00    +0.000 HD
ENDBRANCH  23  31
ENDBRANCH   6  18
TORSDOF 5
ENDMDL
