MODEL 1
REMARK VINA RESULT:      -8.5      0.000      0.000
REMARK  Name = 
REMARK  7 active torsions:
REMARK  status: ('A' for Active; 'I' for Inactive)
REMARK    1  A    between atoms: C_9  and  C_10
REMARK    2  A    between atoms: C_10  and  C_11
REMARK    3  A    between atoms: C_11  and  N_12
REMARK    4  A    between atoms: C_16  and  C_18
REMARK    5  A    between atoms: C_18  and  C_19
REMARK    6  A    between atoms: C_22  and  N_23
REMARK    7  A    between atoms: C_32  and  C_33
REMARK                            x       y       z     vdW  Elec       q    Type
REMARK                         _______ _______ _______ _____ _____    ______ ____
ROOT
ATOM      1  N   UNL     1       0.300   9.408  20.162  0.00  0.00    +0.000 NA
ATOM      2  C   UNL     1      -0.439  10.325  21.060  0.00  0.00    +0.000 C 
ATOM      3  C   UNL     1       0.218  11.694  21.302  0.00  0.00    +0.000 C 
ATOM      4  N   UNL     1       0.570  12.344  20.042  0.00  0.00    +0.000 N 
ATOM      5  C   UNL     1       0.340  13.705  19.909  0.00  0.00    +0.000 C 
ATOM      6  O   UNL     1      -0.186  14.368  20.807  0.00  0.00    +0.000 OA
ATOM      7  C   UNL     1       1.351  11.503  19.132  0.00  0.00    +0.000 C 
ATOM      8  C   UNL     1       0.687  10.125  18.929  0.00  0.00    +0.000 C 
ENDROOT
BRANCH   1   9
ATOM      9  C   UNL     1       1.436   8.711  20.794  0.00  0.00    +0.000 C 
BRANCH   9  10
ATOM     10  C   UNL     1       1.348   7.180  20.600  0.00  0.00    +0.000 C 
BRANCH  10  19
ATOM     11  O   UNL     1       5.252   4.729  15.839  0.00  0.00    +0.000 OA
ATOM     12  C   UNL     1       4.529   4.381  16.755  0.00  0.00    +0.000 C 
ATOM     13  O   UNL     1       4.222   3.102  17.110  0.00  0.00    +0.000 OA
ATOM     14  C   UNL     1       3.329   3.058  18.245  0.00  0.00    +0.000 C 
ATOM     15  C   UNL     1       3.091   4.482  18.573  0.00  0.00    +0.000 A 
ATOM     16  C   UNL     1       3.813   5.250  17.678  0.00  0.00    +0.000 A 
ATOM     17  C   UNL     1       3.781   6.629  17.676  0.00  0.00    +0.000 A 
ATOM     18  C   UNL     1       2.987   7.254  18.633  0.00  0.00    +0.000 A 
ATOM     19  C   UNL     1       2.233   6.498  19.564  0.00  0.00    +0.000 A 
ATOM     20  C   UNL     1       2.271   5.064  19.548  0.00  0.00    +0.000 A 
BRANCH  20  21
ATOM     21  C   UNL     1       1.360   4.238  20.448  0.00  0.00    +0.000 C 
ATOM     22  C   UNL     1       1.305   2.728  20.409  0.00  0.00    +0.000 C 
ATOM     23  C   UNL     1       1.916   3.411  21.590  0.00  0.00    +0.000 C 
ENDBRANCH  20  21
ENDBRANCH  10  19
ENDBRANCH   9  10
ENDBRANCH   1   9
BRANCH   5  24
ATOM     24  C   UNL     1       0.752  14.394  18.618  0.00  0.00    +0.000 C 
BRANCH  24  25
ATOM     25  C   UNL     1       2.059  15.148  18.710  0.00  0.00    +0.000 A 
ATOM     26  C   UNL     1       2.099  16.392  19.354  0.00  0.00    +0.000 A 
ATOM     27  C   UNL     1       3.306  17.078  19.511  0.00  0.00    +0.000 A 
ATOM     28  C   UNL     1       4.497  16.525  19.025  0.00  0.00    +0.000 A 
ATOM     29  C   UNL     1       4.468  15.281  18.383  0.00  0.00    +0.000 A 
ATOM     30  C   UNL     1       3.260  14.594  18.242  0.00  0.00    +0.000 A 
BRANCH  28  31
ATOM     31  N   UNL     1       5.730  17.199  19.183  0.00  0.00    +0.000 N 
ATOM     32  C   UNL     1       6.951  16.920  18.623  0.00  0.00    +0.000 A 
ATOM     33  N   UNL     1       7.838  17.789  19.053  0.00  0.00    +0.000 NA
ATOM     34  N   UNL     1       7.154  18.631  19.888  0.00  0.00    +0.000 NA
ATOM     35  N   UNL     1       5.875  18.290  19.969  0.00  0.00    +0.000 NA
ENDBRANCH  28  31
ENDBRANCH  24  25
ENDBRANCH   5  24
TORSDOF 7
ENDMDL
MODEL 2
REMARK VINA RESULT:      -8.0      4.619      6.841
REMARK  Name = 
REMARK  7 active torsions:
REMARK  status: ('A' for Active; 'I' for Inactive)
REMARK    1  A    between atoms: C_9  and  C_10
REMARK    2  A    between atoms: C_10  and  C_11
REMARK    3  A    between atoms: C_11  and  N_12
REMARK    4  A    between atoms: C_16  and  C_18
REMARK    5  A    between atoms: C_18  and  C_19
REMARK    6  A    between atoms: C_22  and  N_23
REMARK    7  A    between atoms: C_32  and  C_33
REMARK                            x       y       z     vdW  Elec       q    Type
REMARK                         _______ _______ _______ _____ _____    ______ ____
ROOT
ATOM      1  N   UNL     1       0.924   9.082  22.089  0.00  0.00    +0.000 NA
ATOM      2  C   UNL     1       1.115  10.548  22.003  0.00  0.00    +0.000 C 
ATOM      3  C   UNL     1       0.686  11.199  20.676  0.00  0.00    +0.000 C 
ATOM      4  N   UNL     1      -0.675  10.813  20.311  0.00  0.00    +0.000 N 
ATOM      5  C   UNL     1      -1.523  11.778  19.793  0.00  0.00    +0.000 C 
ATOM      6  O   UNL     1      -1.174  12.956  19.670  0.00  0.00    +0.000 OA
ATOM      7  C   UNL     1      -0.911   9.367  20.325  0.00  0.00    +0.000 C 
ATOM      8  C   UNL     1      -0.445   8.733  21.653  0.00  0.00    +0.000 C 
ENDROOT
BRANCH   1   9
ATOM      9  C   UNL     1       1.958   8.285  21.405  0.00  0.00    +0.000 C 
BRANCH   9  10
ATOM     10  C   UNL     1       1.336   7.206  20.490  0.00  0.00    +0.000 C 
BRANCH  10  19
ATOM     11  O   UNL     1       5.195   4.454  15.859  0.00  0.00    +0.000 OA
ATOM     12  C   UNL     1       4.508   4.169  16.823  0.00  0.00    +0.000 C 
ATOM     13  O   UNL     1       4.252   2.917  17.299  0.00  0.00    +0.000 OA
ATOM     14  C   UNL     1       3.390   2.949  18.458  0.00  0.00    +0.000 C 
ATOM     15  C   UNL     1       3.114   4.389  18.664  0.00  0.00    +0.000 A 
ATOM     16  C   UNL     1       3.787   5.095  17.684  0.00  0.00    +0.000 A 
ATOM     17  C   UNL     1       3.711   6.466  17.560  0.00  0.00    +0.000 A 
ATOM     18  C   UNL     1       2.921   7.151  18.479  0.00  0.00    +0.000 A 
ATOM     19  C   UNL     1       2.216   6.460  19.495  0.00  0.00    +0.000 A 
ATOM     20  C   UNL     1       2.301   5.032  19.606  0.00  0.00    +0.000 A 
BRANCH  20  21
ATOM     21  C   UNL     1       1.440   4.263  20.602  0.00  0.00    +0.000 C 
ATOM     22  C   UNL     1       1.274   2.762  20.567  0.00  0.00    +0.000 C 
ATOM     23  C   UNL     1       2.061   3.389  21.672  0.00  0.00    +0.000 C 
ENDBRANCH  20  21
ENDBRANCH  10  19
ENDBRANCH   9  10
ENDBRANCH   1   9
BRANCH   5  24
ATOM     24  C   UNL     1      -2.923  11.369  19.364  0.00  0.00    +0.000 C 
BRANCH  24  25
ATOM     25  C   UNL     1      -3.055  11.074  17.888  0.00  0.00    +0.000 A 
ATOM     26  C   UNL     1      -2.101  10.266  17.254  0.00  0.00    +0.000 A 
ATOM     27  C   UNL     1      -2.235   9.924  15.906  0.00  0.00    +0.000 A 
ATOM     28  C   UNL     1      -3.332  10.387  15.169  0.00  0.00    +0.000 A 
ATOM     29  C   UNL     1      -4.293  11.192  15.794  0.00  0.00    +0.000 A 
ATOM     30  C   UNL     1      -4.160  11.518  17.146  0.00  0.00    +0.000 A 
BRANCH  28  31
ATOM     31  N   UNL     1      -3.491  10.043  13.807  0.00  0.00    +0.000 N 
ATOM     32  C   UNL     1      -4.631  10.024  13.043  0.00  0.00    +0.000 A 
ATOM     33  N   UNL     1      -4.335   9.625  11.826  0.00  0.00    +0.000 NA
ATOM     34  N   UNL     1      -2.984   9.402  11.830  0.00  0.00    +0.000 NA
ATOM     35  N   UNL     1      -2.460   9.660  13.020  0.00  0.00    +0.000 NA
ENDBRANCH  28  31
ENDBRANCH  24  25
ENDBRANCH   5  24
TORSDOF 7
ENDMDL
MODEL 3
REMARK VINA RESULT:      -7.9      4.798      9.827
REMARK  Name = 
REMARK  7 active torsions:
REMARK  status: ('A' for Active; 'I' for Inactive)
REMARK    1  A    between atoms: C_9  and  C_10
REMARK    2  A    between atoms: C_10  and  C_11
REMARK    3  A    between atoms: C_11  and  N_12
REMARK    4  A    between atoms: C_16  and  C_18
REMARK    5  A    between atoms: C_18  and  C_19
REMARK    6  A    between atoms: C_22  and  N_23
REMARK    7  A    between atoms: C_32  and  C_33
REMARK                            x       y       z     vdW  Elec       q    Type
REMARK                         _______ _______ _______ _____ _____    ______ ____
ROOT
ATOM      1  N   UNL     1       0.878  12.129  18.843  0.00  0.00    +0.000 NA
ATOM      2  C   UNL     1       1.522  11.948  20.165  0.00  0.00    +0.000 C 
ATOM      3  C   UNL     1       0.974  10.793  21.021  0.00  0.00    +0.000 C 
ATOM      4  N   UNL     1       0.939   9.543  20.266  0.00  0.00    +0.000 N 
ATOM      5  C   UNL     1       1.328   8.373  20.898  0.00  0.00    +0.000 C 
ATOM      6  O   UNL     1       1.738   8.366  22.062  0.00  0.00    +0.000 OA
ATOM      7  C   UNL     1       0.264   9.646  18.969  0.00  0.00    +0.000 C 
ATOM      8  C   UNL     1       0.809  10.829  18.142  0.00  0.00    +0.000 C 
ENDROOT
BRANCH   1   9
ATOM      9  C   UNL     1      -0.422  12.822  18.883  0.00  0.00    +0.000 C 
BRANCH   9  10
ATOM     10  C   UNL     1      -1.561  11.934  18.333  0.00  0.00    +0.000 C 
BRANCH  10  19
ATOM     11  O   UNL     1      -7.440  12.761  21.276  0.00  0.00    +0.000 OA
ATOM     12  C   UNL     1      -6.921  12.228  20.313  0.00  0.00    +0.000 C 
ATOM     13  O   UNL     1      -7.538  11.442  19.386  0.00  0.00    +0.000 OA
ATOM     14  C   UNL     1      -6.614  10.970  18.380  0.00  0.00    +0.000 C 
ATOM     15  C   UNL     1      -5.313  11.549  18.784  0.00  0.00    +0.000 A 
ATOM     16  C   UNL     1      -5.517  12.292  19.933  0.00  0.00    +0.000 A 
ATOM     17  C   UNL     1      -4.497  12.936  20.601  0.00  0.00    +0.000 A 
ATOM     18  C   UNL     1      -3.214  12.826  20.074  0.00  0.00    +0.000 A 
ATOM     19  C   UNL     1      -2.968  12.071  18.901  0.00  0.00    +0.000 A 
ATOM     20  C   UNL     1      -4.039  11.402  18.220  0.00  0.00    +0.000 A 
BRANCH  20  21
ATOM     21  C   UNL     1      -3.771  10.474  17.042  0.00  0.00    +0.000 C 
ATOM     22  C   UNL     1      -4.019  10.867  15.604  0.00  0.00    +0.000 C 
ATOM     23  C   UNL     1      -2.614  10.715  16.093  0.00  0.00    +0.000 C 
ENDBRANCH  20  21
ENDBRANCH  10  19
ENDBRANCH   9  10
ENDBRANCH   1   9
BRANCH   5  24
ATOM     24  C   UNL     1       1.243   7.063  20.131  0.00  0.00    +0.000 C 
BRANCH  24  25
ATOM     25  C   UNL     1       2.535   6.653  19.463  0.00  0.00    +0.000 A 
ATOM     26  C   UNL     1       3.281   5.590  19.989  0.00  0.00    +0.000 A 
ATOM     27  C   UNL     1       4.444   5.149  19.352  0.00  0.00    +0.000 A 
ATOM     28  C   UNL     1       4.880   5.768  18.175  0.00  0.00    +0.000 A 
ATOM     29  C   UNL     1       4.139   6.830  17.639  0.00  0.00    +0.000 A 
ATOM     30  C   UNL     1       2.969   7.256  18.273  0.00  0.00    +0.000 A 
BRANCH  28  31
ATOM     31  N   UNL     1       6.048   5.330  17.510  0.00  0.00    +0.000 N 
ATOM     32  C   UNL     1       6.420   5.502  16.201  0.00  0.00    +0.000 A 
ATOM     33  N   UNL     1       7.579   4.917  15.995  0.00  0.00    +0.000 NA
ATOM     34  N   UNL     1       7.940   4.379  17.201  0.00  0.00    +0.000 NA
ATOM     35  N   UNL     1       7.027   4.630  18.129  0.00  0.00    +0.000 NA
ENDBRANCH  28  31
ENDBRANCH  24  25
ENDBRANCH   5  24
TORSDOF 7
ENDMDL
MODEL 4
REMARK VINA RESULT:      -7.8      1.657      2.077
REMARK  Name = 
REMARK  7 active torsions:
REMARK  status: ('A' for Active; 'I' for Inactive)
REMARK    1  A    between atoms: C_9  and  C_10
REMARK    2  A    between atoms: C_10  and  C_11
REMARK    3  A    between atoms: C_11  and  N_12
REMARK    4  A    between atoms: C_16  and  C_18
REMARK    5  A    between atoms: C_18  and  C_19
REMARK    6  A    between atoms: C_22  and  N_23
REMARK    7  A    between atoms: C_32  and  C_33
REMARK                            x       y       z     vdW  Elec       q    Type
REMARK                         _______ _______ _______ _____ _____    ______ ____
ROOT
ATOM      1  N   UNL     1       0.802   8.914  19.384  0.00  0.00    +0.000 NA
ATOM      2  C   UNL     1       0.253   9.492  20.632  0.00  0.00    +0.000 C 
ATOM      3  C   UNL     1       1.023  10.693  21.207  0.00  0.00    +0.000 C 
ATOM      4  N   UNL     1       1.240  11.720  20.191  0.00  0.00    +0.000 N 
ATOM      5  C   UNL     1       1.081  13.050  20.545  0.00  0.00    +0.000 C 
ATOM      6  O   UNL     1       0.725  13.385  21.679  0.00  0.00    +0.000 OA
ATOM      7  C   UNL     1       1.834  11.217  18.949  0.00  0.00    +0.000 C 
ATOM      8  C   UNL     1       1.063   9.994  18.409  0.00  0.00    +0.000 C 
ENDROOT
BRANCH   1   9
ATOM      9  C   UNL     1       1.967   8.030  19.576  0.00  0.00    +0.000 C 
BRANCH   9  10
ATOM     10  C   UNL     1       1.929   6.818  18.619  0.00  0.00    +0.000 C 
BRANCH  10  19
ATOM     11  O   UNL     1       7.551   5.541  15.351  0.00  0.00    +0.000 OA
ATOM     12  C   UNL     1       6.552   4.995  15.784  0.00  0.00    +0.000 C 
ATOM     13  O   UNL     1       6.220   3.679  15.649  0.00  0.00    +0.000 OA
ATOM     14  C   UNL     1       4.958   3.377  16.284  0.00  0.00    +0.000 C 
ATOM     15  C   UNL     1       4.512   4.674  16.840  0.00  0.00    +0.000 A 
ATOM     16  C   UNL     1       5.472   5.621  16.533  0.00  0.00    +0.000 A 
ATOM     17  C   UNL     1       5.348   6.952  16.869  0.00  0.00    +0.000 A 
ATOM     18  C   UNL     1       4.200   7.337  17.555  0.00  0.00    +0.000 A 
ATOM     19  C   UNL     1       3.195   6.395  17.884  0.00  0.00    +0.000 A 
ATOM     20  C   UNL     1       3.336   5.014  17.522  0.00  0.00    +0.000 A 
BRANCH  20  21
ATOM     21  C   UNL     1       2.204   4.018  17.743  0.00  0.00    +0.000 C 
ATOM     22  C   UNL     1       2.405   2.520  17.736  0.00  0.00    +0.000 C 
ATOM     23  C   UNL     1       2.097   3.215  19.023  0.00  0.00    +0.000 C 
ENDBRANCH  20  21
ENDBRANCH  10  19
ENDBRANCH   9  10
ENDBRANCH   1   9
BRANCH   5  24
ATOM     24  C   UNL     1       1.356  14.123  19.504  0.00  0.00    +0.000 C 
BRANCH  24  25
ATOM     25  C   UNL     1       2.815  14.493  19.369  0.00  0.00    +0.000 A 
ATOM     26  C   UNL     1       3.583  14.717  20.520  0.00  0.00    +0.000 A 
ATOM     27  C   UNL     1       4.949  14.995  20.426  0.00  0.00    +0.000 A 
ATOM     28  C   UNL     1       5.570  15.053  19.172  0.00  0.00    +0.000 A 
ATOM     29  C   UNL     1       4.812  14.828  18.016  0.00  0.00    +0.000 A 
ATOM     30  C   UNL     1       3.449  14.536  18.119  0.00  0.00    +0.000 A 
BRANCH  28  31
ATOM     31  N   UNL     1       6.953  15.323  19.056  0.00  0.00    +0.000 N 
ATOM     32  C   UNL     1       7.616  16.075  18.120  0.00  0.00    +0.000 A 
ATOM     33  N   UNL     1       8.905  16.049  18.372  0.00  0.00    +0.000 NA
ATOM     34  N   UNL     1       9.047  15.274  19.491  0.00  0.00    +0.000 NA
ATOM     35  N   UNL     1       7.872  14.835  19.921  0.00  0.00    +0.000 NA
ENDBRANCH  28  31
ENDBRANCH  24  25
ENDBRANCH   5  24
TORSDOF 7
ENDMDL
MODEL 5
REMARK VINA RESULT:      -7.7      5.170      7.275
REMARK  Name = 
REMARK  7 active torsions:
REMARK  status: ('A' for Active; 'I' for Inactive)
REMARK    1  A    between atoms: C_9  and  C_10
REMARK    2  A    between atoms: C_10  and  C_11
REMARK    3  A    between atoms: C_11  and  N_12
REMARK    4  A    between atoms: C_16  and  C_18
REMARK    5  A    between atoms: C_18  and  C_19
REMARK    6  A    between atoms: C_22  and  N_23
REMARK    7  A    between atoms: C_32  and  C_33
REMARK                            x       y       z     vdW  Elec       q    Type
REMARK                         _______ _______ _______ _____ _____    ______ ____
ROOT
ATOM      1  N   UNL     1       2.665   5.827  19.286  0.00  0.00    +0.000 NA
ATOM      2  C   UNL     1       1.741   6.058  20.420  0.00  0.00    +0.000 C 
ATOM      3  C   UNL     1       1.666   7.506  20.935  0.00  0.00    +0.000 C 
ATOM      4  N   UNL     1       1.420   8.445  19.843  0.00  0.00    +0.000 N 
ATOM      5  C   UNL     1       0.528   9.486  20.049  0.00  0.00    +0.000 C 
ATOM      6  O   UNL     1      -0.088   9.615  21.111  0.00  0.00    +0.000 OA
ATOM      7  C   UNL     1       2.340   8.302  18.712  0.00  0.00    +0.000 C 
ATOM      8  C   UNL     1       2.421   6.837  18.233  0.00  0.00    +0.000 C 
ENDROOT
BRANCH   1   9
ATOM      9  C   UNL     1       4.087   5.730  19.660  0.00  0.00    +0.000 C 
BRANCH   9  10
ATOM     10  C   UNL     1       4.772   4.514  18.997  0.00  0.00    +0.000 C 
BRANCH  10  19
ATOM     11  O   UNL     1       8.210   5.774  13.474  0.00  0.00    +0.000 OA
ATOM     12  C   UNL     1       7.347   5.036  13.915  0.00  0.00    +0.000 C 
ATOM     13  O   UNL     1       6.669   4.073  13.228  0.00  0.00    +0.000 OA
ATOM     14  C   UNL     1       5.711   3.389  14.065  0.00  0.00    +0.000 C 
ATOM     15  C   UNL     1       5.853   4.044  15.386  0.00  0.00    +0.000 A 
ATOM     16  C   UNL     1       6.829   5.017  15.275  0.00  0.00    +0.000 A 
ATOM     17  C   UNL     1       7.183   5.848  16.317  0.00  0.00    +0.000 A 
ATOM     18  C   UNL     1       6.519   5.676  17.529  0.00  0.00    +0.000 A 
ATOM     19  C   UNL     1       5.513   4.690  17.677  0.00  0.00    +0.000 A 
ATOM     20  C   UNL     1       5.152   3.838  16.581  0.00  0.00    +0.000 A 
BRANCH  20  21
ATOM     21  C   UNL     1       3.977   2.872  16.682  0.00  0.00    +0.000 C 
ATOM     22  C   UNL     1       3.311   2.512  17.990  0.00  0.00    +0.000 C 
ATOM     23  C   UNL     1       2.579   3.360  17.001  0.00  0.00    +0.000 C 
ENDBRANCH  20  21
ENDBRANCH  10  19
ENDBRANCH   9  10
ENDBRANCH   1   9
BRANCH   5  24
ATOM     24  C   UNL     1       0.310  10.495  18.933  0.00  0.00    +0.000 C 
BRANCH  24  25
ATOM     25  C   UNL     1      -1.137  10.879  18.723  0.00  0.00    +0.000 A 
ATOM     26  C   UNL     1      -1.947  10.100  17.886  0.00  0.00    +0.000 A 
ATOM     27  C   UNL     1      -3.304  10.395  17.727  0.00  0.00    +0.000 A 
ATOM     28  C   UNL     1      -3.872  11.479  18.407  0.00  0.00    +0.000 A 
ATOM     29  C   UNL     1      -3.071  12.261  19.249  0.00  0.00    +0.000 A 
ATOM     30  C   UNL     1      -1.719  11.952  19.415  0.00  0.00    +0.000 A 
BRANCH  28  31
ATOM     31  N   UNL     1      -5.245  11.787  18.268  0.00  0.00    +0.000 N 
ATOM     32  C   UNL     1      -5.851  13.010  18.135  0.00  0.00    +0.000 A 
ATOM     33  N   UNL     1      -7.153  12.846  18.052  0.00  0.00    +0.000 NA
ATOM     34  N   UNL     1      -7.359  11.495  18.124  0.00  0.00    +0.000 NA
ATOM     35  N   UNL     1      -6.212  10.842  18.246  0.00  0.00    +0.000 NA
ENDBRANCH  28  31
ENDBRANCH  24  25
ENDBRANCH   5  24
TORSDOF 7
ENDMDL
MODEL 6
REMARK VINA RESULT:      -7.7      5.195      7.475
REMARK  Name = 
REMARK  7 active torsions:
REMARK  status: ('A' for Active; 'I' for Inactive)
REMARK    1  A    between atoms: C_9  and  C_10
REMARK    2  A    between atoms: C_10  and  C_11
REMARK    3  A    between atoms: C_11  and  N_12
REMARK    4  A    between atoms: C_16  and  C_18
REMARK    5  A    between atoms: C_18  and  C_19
REMARK    6  A    between atoms: C_22  and  N_23
REMARK    7  A    between atoms: C_32  and  C_33
REMARK                            x       y       z     vdW  Elec       q    Type
REMARK                         _______ _______ _______ _____ _____    ______ ____
ROOT
ATOM      1  N   UNL     1       2.444   5.646  19.482  0.00  0.00    +0.000 NA
ATOM      2  C   UNL     1       1.610   6.084  20.625  0.00  0.00    +0.000 C 
ATOM      3  C   UNL     1       1.662   7.587  20.951  0.00  0.00    +0.000 C 
ATOM      4  N   UNL     1       1.410   8.396  19.761  0.00  0.00    +0.000 N 
ATOM      5  C   UNL     1       0.602   9.517  19.878  0.00  0.00    +0.000 C 
ATOM      6  O   UNL     1       0.062   9.823  20.945  0.00  0.00    +0.000 OA
ATOM      7  C   UNL     1       2.246   8.046  18.610  0.00  0.00    +0.000 C 
ATOM      8  C   UNL     1       2.201   6.530  18.322  0.00  0.00    +0.000 C 
ENDROOT
BRANCH   1   9
ATOM      9  C   UNL     1       3.878   5.494  19.790  0.00  0.00    +0.000 C 
BRANCH   9  10
ATOM     10  C   UNL     1       4.464   4.207  19.165  0.00  0.00    +0.000 C 
BRANCH  10  19
ATOM     11  O   UNL     1       6.499   3.838  12.870  0.00  0.00    +0.000 OA
ATOM     12  C   UNL     1       6.699   4.449  13.904  0.00  0.00    +0.000 C 
ATOM     13  O   UNL     1       7.635   5.418  14.110  0.00  0.00    +0.000 OA
ATOM     14  C   UNL     1       7.595   5.925  15.462  0.00  0.00    +0.000 C 
ATOM     15  C   UNL     1       6.512   5.148  16.108  0.00  0.00    +0.000 A 
ATOM     16  C   UNL     1       5.993   4.279  15.166  0.00  0.00    +0.000 A 
ATOM     17  C   UNL     1       4.991   3.376  15.450  0.00  0.00    +0.000 A 
ATOM     18  C   UNL     1       4.489   3.361  16.748  0.00  0.00    +0.000 A 
ATOM     19  C   UNL     1       4.999   4.235  17.739  0.00  0.00    +0.000 A 
ATOM     20  C   UNL     1       6.046   5.165  17.429  0.00  0.00    +0.000 A 
BRANCH  20  21
ATOM     21  C   UNL     1       6.701   6.011  18.515  0.00  0.00    +0.000 C 
ATOM     22  C   UNL     1       8.015   5.650  19.166  0.00  0.00    +0.000 C 
ATOM     23  C   UNL     1       7.952   6.821  18.238  0.00  0.00    +0.000 C 
ENDBRANCH  20  21
ENDBRANCH  10  19
ENDBRANCH   9  10
ENDBRANCH   1   9
BRANCH   5  24
ATOM     24  C   UNL     1       0.380  10.391  18.653  0.00  0.00    +0.000 C 
BRANCH  24  25
ATOM     25  C   UNL     1      -1.065  10.763  18.414  0.00  0.00    +0.000 A 
ATOM     26  C   UNL     1      -1.911   9.868  17.744  0.00  0.00    +0.000 A 
ATOM     27  C   UNL     1      -3.266  10.159  17.570  0.00  0.00    +0.000 A 
ATOM     28  C   UNL     1      -3.798  11.356  18.065  0.00  0.00    +0.000 A 
ATOM     29  C   UNL     1      -2.961  12.256  18.739  0.00  0.00    +0.000 A 
ATOM     30  C   UNL     1      -1.611  11.951  18.923  0.00  0.00    +0.000 A 
BRANCH  28  31
ATOM     31  N   UNL     1      -5.168  11.665  17.907  0.00  0.00    +0.000 N 
ATOM     32  C   UNL     1      -6.261  11.110  18.524  0.00  0.00    +0.000 A 
ATOM     33  N   UNL     1      -7.355  11.680  18.071  0.00  0.00    +0.000 NA
ATOM     34  N   UNL     1      -6.935  12.614  17.163  0.00  0.00    +0.000 NA
ATOM     35  N   UNL     1      -5.613  12.621  17.061  0.00  0.00    +0.000 NA
ENDBRANCH  28  31
ENDBRANCH  24  25
ENDBRANCH   5  24
TORSDOF 7
ENDMDL
MODEL 7
REMARK VINA RESULT:      -7.7      4.285      8.146
REMARK  Name = 
REMARK  7 active torsions:
REMARK  status: ('A' for Active; 'I' for Inactive)
REMARK    1  A    between atoms: C_9  and  C_10
REMARK    2  A    between atoms: C_10  and  C_11
REMARK    3  A    between atoms: C_11  and  N_12
REMARK    4  A    between atoms: C_16  and  C_18
REMARK    5  A    between atoms: C_18  and  C_19
REMARK    6  A    between atoms: C_22  and  N_23
REMARK    7  A    between atoms: C_32  and  C_33
REMARK                            x       y       z     vdW  Elec       q    Type
REMARK                         _______ _______ _______ _____ _____    ______ ____
ROOT
ATOM      1  N   UNL     1       1.881   3.379  19.817  0.00  0.00    +0.000 NA
ATOM      2  C   UNL     1       1.772   3.216  18.350  0.00  0.00    +0.000 C 
ATOM      3  C   UNL     1       2.666   4.141  17.507  0.00  0.00    +0.000 C 
ATOM      4  N   UNL     1       4.057   4.082  17.951  0.00  0.00    +0.000 N 
ATOM      5  C   UNL     1       5.060   4.057  16.995  0.00  0.00    +0.000 C 
ATOM      6  O   UNL     1       4.808   4.043  15.786  0.00  0.00    +0.000 OA
ATOM      7  C   UNL     1       4.235   4.292  19.390  0.00  0.00    +0.000 C 
ATOM      8  C   UNL     1       3.306   3.375  20.213  0.00  0.00    +0.000 C 
ENDROOT
BRANCH   1   9
ATOM      9  C   UNL     1       1.144   4.532  20.365  0.00  0.00    +0.000 C 
BRANCH   9  10
ATOM     10  C   UNL     1       2.064   5.758  20.563  0.00  0.00    +0.000 C 
BRANCH  10  19
ATOM     11  O   UNL     1      -0.857  11.671  21.209  0.00  0.00    +0.000 OA
ATOM     12  C   UNL     1      -0.167  11.025  20.442  0.00  0.00    +0.000 C 
ATOM     13  O   UNL     1       0.259  11.413  19.206  0.00  0.00    +0.000 OA
ATOM     14  C   UNL     1       1.059  10.393  18.569  0.00  0.00    +0.000 C 
ATOM     15  C   UNL     1       1.087   9.287  19.553  0.00  0.00    +0.000 A 
ATOM     16  C   UNL     1       0.355   9.683  20.657  0.00  0.00    +0.000 A 
ATOM     17  C   UNL     1       0.142   8.868  21.749  0.00  0.00    +0.000 A 
ATOM     18  C   UNL     1       0.707   7.596  21.720  0.00  0.00    +0.000 A 
ATOM     19  C   UNL     1       1.462   7.157  20.605  0.00  0.00    +0.000 A 
ATOM     20  C   UNL     1       1.668   8.015  19.473  0.00  0.00    +0.000 A 
BRANCH  20  21
ATOM     21  C   UNL     1       2.354   7.509  18.210  0.00  0.00    +0.000 C 
ATOM     22  C   UNL     1       3.007   8.422  17.200  0.00  0.00    +0.000 C 
ATOM     23  C   UNL     1       3.862   7.548  18.061  0.00  0.00    +0.000 C 
ENDBRANCH  20  21
ENDBRANCH  10  19
ENDBRANCH   9  10
ENDBRANCH   1   9
BRANCH   5  24
ATOM     24  C   UNL     1       6.510   4.048  17.454  0.00  0.00    +0.000 C 
BRANCH  24  25
ATOM     25  C   UNL     1       7.095   5.424  17.676  0.00  0.00    +0.000 A 
ATOM     26  C   UNL     1       6.923   6.417  16.702  0.00  0.00    +0.000 A 
ATOM     27  C   UNL     1       7.396   7.714  16.912  0.00  0.00    +0.000 A 
ATOM     28  C   UNL     1       8.052   8.039  18.106  0.00  0.00    +0.000 A 
ATOM     29  C   UNL     1       8.226   7.054  19.087  0.00  0.00    +0.000 A 
ATOM     30  C   UNL     1       7.737   5.763  18.876  0.00  0.00    +0.000 A 
BRANCH  28  31
ATOM     31  N   UNL     1       8.529   9.349  18.342  0.00  0.00    +0.000 N 
ATOM     32  C   UNL     1       9.331   9.812  19.354  0.00  0.00    +0.000 A 
ATOM     33  N   UNL     1       9.519  11.104  19.206  0.00  0.00    +0.000 NA
ATOM     34  N   UNL     1       8.828  11.450  18.076  0.00  0.00    +0.000 NA
ATOM     35  N   UNL     1       8.232  10.395  17.538  0.00  0.00    +0.000 NA
ENDBRANCH  28  31
ENDBRANCH  24  25
ENDBRANCH   5  24
TORSDOF 7
ENDMDL
MODEL 8
REMARK VINA RESULT:      -7.6      1.374      1.912
REMARK  Name = 
REMARK  7 active torsions:
REMARK  status: ('A' for Active; 'I' for Inactive)
REMARK    1  A    between atoms: C_9  and  C_10
REMARK    2  A    between atoms: C_10  and  C_11
REMARK    3  A    between atoms: C_11  and  N_12
REMARK    4  A    between atoms: C_16  and  C_18
REMARK    5  A    between atoms: C_18  and  C_19
REMARK    6  A    between atoms: C_22  and  N_23
REMARK    7  A    between atoms: C_32  and  C_33
REMARK                            x       y       z     vdW  Elec       q    Type
REMARK                         _______ _______ _______ _____ _____    ______ ____
ROOT
ATOM      1  N   UNL     1       0.405   8.872  19.865  0.00  0.00    +0.000 NA
ATOM      2  C   UNL     1       0.077   9.096  21.292  0.00  0.00    +0.000 C 
ATOM      3  C   UNL     1       0.636  10.389  21.910  0.00  0.00    +0.000 C 
ATOM      4  N   UNL     1       0.303  11.554  21.093  0.00  0.00    +0.000 N 
ATOM      5  C   UNL     1      -0.093  12.721  21.729  0.00  0.00    +0.000 C 
ATOM      6  O   UNL     1      -0.209  12.787  22.956  0.00  0.00    +0.000 OA
ATOM      7  C   UNL     1       0.655  11.414  19.678  0.00  0.00    +0.000 C 
ATOM      8  C   UNL     1       0.110  10.096  19.089  0.00  0.00    +0.000 C 
ENDROOT
BRANCH   1   9
ATOM      9  C   UNL     1       1.766   8.360  19.620  0.00  0.00    +0.000 C 
BRANCH   9  10
ATOM     10  C   UNL     1       1.744   7.044  18.809  0.00  0.00    +0.000 C 
BRANCH  10  19
ATOM     11  O   UNL     1       7.373   5.556  15.645  0.00  0.00    +0.000 OA
ATOM     12  C   UNL     1       6.346   5.048  16.059  0.00  0.00    +0.000 C 
ATOM     13  O   UNL     1       5.968   3.746  15.918  0.00  0.00    +0.000 OA
ATOM     14  C   UNL     1       4.684   3.491  16.530  0.00  0.00    +0.000 C 
ATOM     15  C   UNL     1       4.277   4.805  17.077  0.00  0.00    +0.000 A 
ATOM     16  C   UNL     1       5.277   5.714  16.788  0.00  0.00    +0.000 A 
ATOM     17  C   UNL     1       5.197   7.050  17.122  0.00  0.00    +0.000 A 
ATOM     18  C   UNL     1       4.052   7.477  17.788  0.00  0.00    +0.000 A 
ATOM     19  C   UNL     1       3.007   6.574  18.098  0.00  0.00    +0.000 A 
ATOM     20  C   UNL     1       3.102   5.188  17.738  0.00  0.00    +0.000 A 
BRANCH  20  21
ATOM     21  C   UNL     1       1.930   4.235  17.938  0.00  0.00    +0.000 C 
ATOM     22  C   UNL     1       2.089   2.737  18.044  0.00  0.00    +0.000 C 
ATOM     23  C   UNL     1       1.707   3.523  19.257  0.00  0.00    +0.000 C 
ENDBRANCH  20  21
ENDBRANCH  10  19
ENDBRANCH   9  10
ENDBRANCH   1   9
BRANCH   5  24
ATOM     24  C   UNL     1      -0.391  13.950  20.885  0.00  0.00    +0.000 C 
BRANCH  24  25
ATOM     25  C   UNL     1       0.818  14.812  20.603  0.00  0.00    +0.000 A 
ATOM     26  C   UNL     1       1.559  15.340  21.670  0.00  0.00    +0.000 A 
ATOM     27  C   UNL     1       2.718  16.084  21.437  0.00  0.00    +0.000 A 
ATOM     28  C   UNL     1       3.156  16.312  20.127  0.00  0.00    +0.000 A 
ATOM     29  C   UNL     1       2.424  15.787  19.054  0.00  0.00    +0.000 A 
ATOM     30  C   UNL     1       1.274  15.031  19.294  0.00  0.00    +0.000 A 
BRANCH  28  31
ATOM     31  N   UNL     1       4.331  17.054  19.871  0.00  0.00    +0.000 N 
ATOM     32  C   UNL     1       5.299  16.849  18.920  0.00  0.00    +0.000 A 
ATOM     33  N   UNL     1       6.233  17.765  19.042  0.00  0.00    +0.000 NA
ATOM     34  N   UNL     1       5.835  18.561  20.083  0.00  0.00    +0.000 NA
ATOM     35  N   UNL     1       4.681  18.147  20.587  0.00  0.00    +0.000 NA
ENDBRANCH  28  31
ENDBRANCH  24  25
ENDBRANCH   5  24
TORSDOF 7
ENDMDL
MODEL 9
REMARK VINA RESULT:      -7.6      5.706      7.447
REMARK  Name = 
REMARK  7 active torsions:
REMARK  status: ('A' for Active; 'I' for Inactive)
REMARK    1  A    between atoms: C_9  and  C_10
REMARK    2  A    between atoms: C_10  and  C_11
REMARK    3  A    between atoms: C_11  and  N_12
REMARK    4  A    between atoms: C_16  and  C_18
REMARK    5  A    between atoms: C_18  and  C_19
REMARK    6  A    between atoms: C_22  and  N_23
REMARK    7  A    between atoms: C_32  and  C_33
REMARK                            x       y       z     vdW  Elec       q    Type
REMARK                         _______ _______ _______ _____ _____    ______ ____
ROOT
ATOM      1  N   UNL     1       1.784   3.617  18.847  0.00  0.00    +0.000 NA
ATOM      2  C   UNL     1       1.190   4.064  20.128  0.00  0.00    +0.000 C 
ATOM      3  C   UNL     1       1.828   5.313  20.759  0.00  0.00    +0.000 C 
ATOM      4  N   UNL     1       1.913   6.409  19.797  0.00  0.00    +0.000 N 
ATOM      5  C   UNL     1       1.610   7.693  20.221  0.00  0.00    +0.000 C 
ATOM      6  O   UNL     1       1.235   7.927  21.374  0.00  0.00    +0.000 OA
ATOM      7  C   UNL     1       2.543   6.042  18.526  0.00  0.00    +0.000 C 
ATOM      8  C   UNL     1       1.907   4.769  17.928  0.00  0.00    +0.000 C 
ENDROOT
BRANCH   1   9
ATOM      9  C   UNL     1       3.043   2.862  18.983  0.00  0.00    +0.000 C 
BRANCH   9  10
ATOM     10  C   UNL     1       4.008   3.142  17.808  0.00  0.00    +0.000 C 
BRANCH  10  19
ATOM     11  O   UNL     1       8.610   7.753  19.020  0.00  0.00    +0.000 OA
ATOM     12  C   UNL     1       8.017   7.213  18.104  0.00  0.00    +0.000 C 
ATOM     13  O   UNL     1       8.134   7.500  16.777  0.00  0.00    +0.000 OA
ATOM     14  C   UNL     1       7.276   6.664  15.969  0.00  0.00    +0.000 C 
ATOM     15  C   UNL     1       6.581   5.802  16.952  0.00  0.00    +0.000 A 
ATOM     16  C   UNL     1       7.036   6.143  18.212  0.00  0.00    +0.000 A 
ATOM     17  C   UNL     1       6.558   5.558  19.366  0.00  0.00    +0.000 A 
ATOM     18  C   UNL     1       5.581   4.576  19.232  0.00  0.00    +0.000 A 
ATOM     19  C   UNL     1       5.091   4.203  17.956  0.00  0.00    +0.000 A 
ATOM     20  C   UNL     1       5.593   4.826  16.765  0.00  0.00    +0.000 A 
BRANCH  20  21
ATOM     21  C   UNL     1       4.978   4.538  15.401  0.00  0.00    +0.000 C 
ATOM     22  C   UNL     1       5.644   4.908  14.097  0.00  0.00    +0.000 C 
ATOM     23  C   UNL     1       5.544   3.469  14.489  0.00  0.00    +0.000 C 
ENDBRANCH  20  21
ENDBRANCH  10  19
ENDBRANCH   9  10
ENDBRANCH   1   9
BRANCH   5  24
ATOM     24  C   UNL     1       1.748   8.843  19.236  0.00  0.00    +0.000 C 
BRANCH  24  25
ATOM     25  C   UNL     1       0.447   9.543  18.918  0.00  0.00    +0.000 A 
ATOM     26  C   UNL     1      -0.157   9.352  17.668  0.00  0.00    +0.000 A 
ATOM     27  C   UNL     1      -1.392   9.935  17.374  0.00  0.00    +0.000 A 
ATOM     28  C   UNL     1      -2.044  10.721  18.331  0.00  0.00    +0.000 A 
ATOM     29  C   UNL     1      -1.450  10.916  19.585  0.00  0.00    +0.000 A 
ATOM     30  C   UNL     1      -0.222  10.319  19.877  0.00  0.00    +0.000 A 
BRANCH  28  31
ATOM     31  N   UNL     1      -3.299  11.311  18.056  0.00  0.00    +0.000 N 
ATOM     32  C   UNL     1      -4.145  11.987  18.899  0.00  0.00    +0.000 A 
ATOM     33  N   UNL     1      -5.219  12.355  18.238  0.00  0.00    +0.000 NA
ATOM     34  N   UNL     1      -5.034  11.908  16.957  0.00  0.00    +0.000 NA
ATOM     35  N   UNL     1      -3.872  11.283  16.832  0.00  0.00    +0.000 NA
ENDBRANCH  28  31
ENDBRANCH  24  25
ENDBRANCH   5  24
TORSDOF 7
ENDMDL
