MODEL 1
REMARK VINA RESULT:      -8.1      0.000      0.000
REMARK  Name = 
REMARK  11 active torsions:
REMARK  status: ('A' for Active; 'I' for Inactive)
REMARK    1  A    between atoms: C_1  and  C_2
REMARK    2  A    between atoms: N_4  and  C_5
REMARK    3  A    between atoms: C_6  and  N_7
REMARK    4  A    between atoms: C_8  and  C_10
REMARK    5  A    between atoms: C_18  and  C_19
REMARK    6  A    between atoms: C_23  and  C_24
REMARK    7  A    between atoms: C_24  and  O_25
REMARK    8  A    between atoms: C_24  and  C_26
REMARK    9  A    between atoms: C_26  and  O_27
REMARK   10  A    between atoms: C_26  and  C_28
REMARK   11  A    between atoms: C_28  and  O_29
REMARK                            x       y       z     vdW  Elec       q    Type
REMARK                         _______ _______ _______ _____ _____    ______ ____
ROOT
ATOM      1  C   UNL     1       4.854   5.972  17.520  0.00  0.00    +0.000 C 
ATOM      2  C   UNL     1       4.354   5.603  18.959  0.00  0.00    +0.000 C 
ATOM      3  C   UNL     1       3.708   4.257  18.996  0.00  0.00    +0.000 C 
ATOM      4  C   UNL     1       3.595   3.477  17.913  0.00  0.00    +0.000 C 
ATOM      5  O   UNL     1       4.047   3.865  16.671  0.00  0.00    +0.000 OA
ATOM      6  C   UNL     1       5.211   4.720  16.699  0.00  0.00    +0.000 C 
ENDROOT
BRANCH   1  10
ATOM      7  C   UNL     1       7.959   8.130  17.733  0.00  0.00    +0.000 C 
ATOM      8  C   UNL     1       7.136   6.882  17.880  0.00  0.00    +0.000 C 
ATOM      9  O   UNL     1       7.599   5.812  18.243  0.00  0.00    +0.000 OA
ATOM     10  N   UNL     1       5.822   7.056  17.529  0.00  0.00    +0.000 N 
ATOM     11  H   UNL     1       5.511   7.961  17.200  0.00  0.00    +0.000 HD
ENDBRANCH   1  10
BRANCH   2  12
ATOM     12  N   UNL     1       3.383   6.541  19.579  0.00  0.00    +0.000 N 
ATOM     13  C   UNL     1       2.609   7.463  18.910  0.00  0.00    +0.000 C 
ATOM     14  O   UNL     1       2.576   7.551  17.690  0.00  0.00    +0.000 OA
ATOM     15  H   UNL     1       3.343   6.494  20.590  0.00  0.00    +0.000 HD
BRANCH  13  16
ATOM     16  C   UNL     1       1.610   8.285  19.634  0.00  0.00    +0.000 A 
ATOM     17  C   UNL     1       1.099   9.486  19.140  0.00  0.00    +0.000 A 
ATOM     18  C   UNL     1       0.424  10.351  20.014  0.00  0.00    +0.000 A 
ATOM     19  C   UNL     1       0.264  10.016  21.362  0.00  0.00    +0.000 A 
ATOM     20 CL   UNL     1      -0.462  11.134  22.447  0.00  0.00    +0.000 Cl
ATOM     21  C   UNL     1       0.723   8.798  21.845  0.00  0.00    +0.000 A 
ATOM     22  C   UNL     1       1.382   7.929  20.980  0.00  0.00    +0.000 A 
ENDBRANCH  13  16
ENDBRANCH   2  12
BRANCH   4  23
ATOM     23  C   UNL     1       2.913   2.063  17.993  0.00  0.00    +0.000 C 
ATOM     24  O   UNL     1       3.699   1.150  18.372  0.00  0.00    +0.000 OA
ATOM     25  O   UNL     1       1.666   2.079  17.819  0.00  0.00    +0.000 OA
ENDBRANCH   4  23
BRANCH   6  26
ATOM     26  C   UNL     1       5.464   5.052  15.205  0.00  0.00    +0.000 C 
BRANCH  26  27
ATOM     27  O   UNL     1       5.652   6.451  14.950  0.00  0.00    +0.000 OA
ATOM     28  H   UNL     1       6.604   6.629  15.065  0.00  0.00    +0.000 HD
ENDBRANCH  26  27
BRANCH  26  29
ATOM     29  C   UNL     1       6.622   4.267  14.540  0.00  0.00    +0.000 C 
BRANCH  29  30
ATOM     30  O   UNL     1       6.082   3.007  14.095  0.00  0.00    +0.000 OA
ATOM     31  H   UNL     1       6.794   2.350  14.240  0.00  0.00    +0.000 HD
ENDBRANCH  29  30
BRANCH  29  32
ATOM     32  C   UNL     1       7.261   4.969  13.338  0.00  0.00    +0.000 C 
BRANCH  32  33
ATOM     33  O   UNL     1       8.370   5.777  13.698  0.00  0.00    +0.000 OA
ATOM     34  H   UNL     1       8.845   6.043  12.882  0.00  0.00    +0.000 HD
ENDBRANCH  32  33
ENDBRANCH  29  32
ENDBRANCH  26  29
ENDBRANCH   6  26
TORSDOF 10
ENDMDL
MODEL 2
REMARK VINA RESULT:      -8.0      0.651      1.084
REMARK  Name = 
REMARK  11 active torsions:
REMARK  status: ('A' for Active; 'I' for Inactive)
REMARK    1  A    between atoms: C_1  and  C_2
REMARK    2  A    between atoms: N_4  and  C_5
REMARK    3  A    between atoms: C_6  and  N_7
REMARK    4  A    between atoms: C_8  and  C_10
REMARK    5  A    between atoms: C_18  and  C_19
REMARK    6  A    between atoms: C_23  and  C_24
REMARK    7  A    between atoms: C_24  and  O_25
REMARK    8  A    between atoms: C_24  and  C_26
REMARK    9  A    between atoms: C_26  and  O_27
REMARK   10  A    between atoms: C_26  and  C_28
REMARK   11  A    between atoms: C_28  and  O_29
REMARK                            x       y       z     vdW  Elec       q    Type
REMARK                         _______ _______ _______ _____ _____    ______ ____
ROOT
ATOM      1  C   UNL     1       4.759   6.161  17.551  0.00  0.00    +0.000 C 
ATOM      2  C   UNL     1       4.286   5.745  18.986  0.00  0.00    +0.000 C 
ATOM      3  C   UNL     1       3.659   4.389  18.995  0.00  0.00    +0.000 C 
ATOM      4  C   UNL     1       3.541   3.638  17.892  0.00  0.00    +0.000 C 
ATOM      5  O   UNL     1       3.968   4.066  16.655  0.00  0.00    +0.000 OA
ATOM      6  C   UNL     1       5.120   4.937  16.689  0.00  0.00    +0.000 C 
ENDROOT
BRANCH   1  10
ATOM      7  C   UNL     1       7.844   8.350  17.720  0.00  0.00    +0.000 C 
ATOM      8  C   UNL     1       7.048   7.082  17.829  0.00  0.00    +0.000 C 
ATOM      9  O   UNL     1       7.546   5.997  18.086  0.00  0.00    +0.000 OA
ATOM     10  N   UNL     1       5.712   7.257  17.575  0.00  0.00    +0.000 N 
ATOM     11  H   UNL     1       5.369   8.178  17.331  0.00  0.00    +0.000 HD
ENDBRANCH   1  10
BRANCH   2  12
ATOM     12  N   UNL     1       3.312   6.651  19.646  0.00  0.00    +0.000 N 
ATOM     13  C   UNL     1       2.504   7.570  19.014  0.00  0.00    +0.000 C 
ATOM     14  O   UNL     1       2.441   7.681  17.797  0.00  0.00    +0.000 OA
ATOM     15  H   UNL     1       3.296   6.584  20.656  0.00  0.00    +0.000 HD
BRANCH  13  16
ATOM     16  C   UNL     1       1.507   8.358  19.777  0.00  0.00    +0.000 A 
ATOM     17  C   UNL     1       0.913   9.524  19.290  0.00  0.00    +0.000 A 
ATOM     18  C   UNL     1       0.245  10.373  20.184  0.00  0.00    +0.000 A 
ATOM     19  C   UNL     1       0.173  10.058  21.544  0.00  0.00    +0.000 A 
ATOM     20 CL   UNL     1      -0.547  11.161  22.647  0.00  0.00    +0.000 Cl
ATOM     21  C   UNL     1       0.716   8.873  22.023  0.00  0.00    +0.000 A 
ATOM     22  C   UNL     1       1.368   8.019  21.138  0.00  0.00    +0.000 A 
ENDBRANCH  13  16
ENDBRANCH   2  12
BRANCH   4  23
ATOM     23  C   UNL     1       2.879   2.212  17.942  0.00  0.00    +0.000 C 
ATOM     24  O   UNL     1       1.633   2.233  17.744  0.00  0.00    +0.000 OA
ATOM     25  O   UNL     1       3.703   1.262  18.018  0.00  0.00    +0.000 OA
ENDBRANCH   4  23
BRANCH   6  26
ATOM     26  C   UNL     1       5.346   5.314  15.201  0.00  0.00    +0.000 C 
BRANCH  26  27
ATOM     27  O   UNL     1       5.071   6.691  14.909  0.00  0.00    +0.000 OA
ATOM     28  H   UNL     1       5.178   7.180  15.747  0.00  0.00    +0.000 HD
ENDBRANCH  26  27
BRANCH  26  29
ATOM     29  C   UNL     1       6.740   4.954  14.632  0.00  0.00    +0.000 C 
BRANCH  29  30
ATOM     30  O   UNL     1       7.513   4.400  15.715  0.00  0.00    +0.000 OA
ATOM     31  H   UNL     1       8.288   4.989  15.814  0.00  0.00    +0.000 HD
ENDBRANCH  29  30
BRANCH  29  32
ATOM     32  C   UNL     1       6.719   3.939  13.485  0.00  0.00    +0.000 C 
BRANCH  32  33
ATOM     33  O   UNL     1       5.415   3.707  12.978  0.00  0.00    +0.000 OA
ATOM     34  H   UNL     1       4.957   3.069  13.565  0.00  0.00    +0.000 HD
ENDBRANCH  32  33
ENDBRANCH  29  32
ENDBRANCH  26  29
ENDBRANCH   6  26
TORSDOF 10
ENDMDL
MODEL 3
REMARK VINA RESULT:      -7.9      1.084      1.412
REMARK  Name = 
REMARK  11 active torsions:
REMARK  status: ('A' for Active; 'I' for Inactive)
REMARK    1  A    between atoms: C_1  and  C_2
REMARK    2  A    between atoms: N_4  and  C_5
REMARK    3  A    between atoms: C_6  and  N_7
REMARK    4  A    between atoms: C_8  and  C_10
REMARK    5  A    between atoms: C_18  and  C_19
REMARK    6  A    between atoms: C_23  and  C_24
REMARK    7  A    between atoms: C_24  and  O_25
REMARK    8  A    between atoms: C_24  and  C_26
REMARK    9  A    between atoms: C_26  and  O_27
REMARK   10  A    between atoms: C_26  and  C_28
REMARK   11  A    between atoms: C_28  and  O_29
REMARK                            x       y       z     vdW  Elec       q    Type
REMARK                         _______ _______ _______ _____ _____    ______ ____
ROOT
ATOM      1  C   UNL     1       4.502   5.604  18.063  0.00  0.00    +0.000 C 
ATOM      2  C   UNL     1       3.850   5.450  19.479  0.00  0.00    +0.000 C 
ATOM      3  C   UNL     1       2.869   4.325  19.522  0.00  0.00    +0.000 C 
ATOM      4  C   UNL     1       2.608   3.549  18.462  0.00  0.00    +0.000 C 
ATOM      5  O   UNL     1       3.209   3.743  17.237  0.00  0.00    +0.000 OA
ATOM      6  C   UNL     1       4.555   4.262  17.308  0.00  0.00    +0.000 C 
ENDROOT
BRANCH   1  10
ATOM      7  C   UNL     1       8.023   6.918  18.527  0.00  0.00    +0.000 C 
ATOM      8  C   UNL     1       6.876   5.963  18.695  0.00  0.00    +0.000 C 
ATOM      9  O   UNL     1       6.972   4.896  19.280  0.00  0.00    +0.000 OA
ATOM     10  N   UNL     1       5.721   6.394  18.094  0.00  0.00    +0.000 N 
ATOM     11  H   UNL     1       5.720   7.273  17.593  0.00  0.00    +0.000 HD
ENDBRANCH   1  10
BRANCH   2  12
ATOM     12  N   UNL     1       3.132   6.640  20.005  0.00  0.00    +0.000 N 
ATOM     13  C   UNL     1       2.323   7.484  19.278  0.00  0.00    +0.000 C 
ATOM     14  O   UNL     1       2.034   7.289  18.105  0.00  0.00    +0.000 OA
ATOM     15  H   UNL     1       3.309   6.837  20.983  0.00  0.00    +0.000 HD
BRANCH  13  16
ATOM     16  C   UNL     1       1.590   8.590  19.937  0.00  0.00    +0.000 A 
ATOM     17  C   UNL     1       1.098   8.517  21.241  0.00  0.00    +0.000 A 
ATOM     18  C   UNL     1       0.149   9.458  21.667  0.00  0.00    +0.000 A 
ATOM     19  C   UNL     1      -0.299  10.458  20.797  0.00  0.00    +0.000 A 
ATOM     20 CL   UNL     1      -1.545  11.534  21.291  0.00  0.00    +0.000 Cl
ATOM     21  C   UNL     1       0.228  10.566  19.517  0.00  0.00    +0.000 A 
ATOM     22  C   UNL     1       1.180   9.644  19.094  0.00  0.00    +0.000 A 
ENDBRANCH  13  16
ENDBRANCH   2  12
BRANCH   4  23
ATOM     23  C   UNL     1       1.572   2.369  18.547  0.00  0.00    +0.000 C 
ATOM     24  O   UNL     1       2.048   1.325  19.074  0.00  0.00    +0.000 OA
ATOM     25  O   UNL     1       0.397   2.688  18.225  0.00  0.00    +0.000 OA
ENDBRANCH   4  23
BRANCH   6  26
ATOM     26  C   UNL     1       4.963   4.442  15.822  0.00  0.00    +0.000 C 
BRANCH  26  27
ATOM     27  O   UNL     1       4.970   5.810  15.389  0.00  0.00    +0.000 OA
ATOM     28  H   UNL     1       4.102   5.974  14.975  0.00  0.00    +0.000 HD
ENDBRANCH  26  27
BRANCH  26  29
ATOM     29  C   UNL     1       6.309   3.788  15.422  0.00  0.00    +0.000 C 
BRANCH  29  30
ATOM     30  O   UNL     1       6.172   3.330  14.063  0.00  0.00    +0.000 OA
ATOM     31  H   UNL     1       6.982   3.628  13.602  0.00  0.00    +0.000 HD
ENDBRANCH  29  30
BRANCH  29  32
ATOM     32  C   UNL     1       7.520   4.723  15.497  0.00  0.00    +0.000 C 
BRANCH  32  33
ATOM     33  O   UNL     1       7.670   5.524  14.337  0.00  0.00    +0.000 OA
ATOM     34  H   UNL     1       7.205   6.375  14.478  0.00  0.00    +0.000 HD
ENDBRANCH  32  33
ENDBRANCH  29  32
ENDBRANCH  26  29
ENDBRANCH   6  26
TORSDOF 10
ENDMDL
MODEL 4
REMARK VINA RESULT:      -7.7      1.461      1.911
REMARK  Name = 
REMARK  11 active torsions:
REMARK  status: ('A' for Active; 'I' for Inactive)
REMARK    1  A    between atoms: C_1  and  C_2
REMARK    2  A    between atoms: N_4  and  C_5
REMARK    3  A    between atoms: C_6  and  N_7
REMARK    4  A    between atoms: C_8  and  C_10
REMARK    5  A    between atoms: C_18  and  C_19
REMARK    6  A    between atoms: C_23  and  C_24
REMARK    7  A    between atoms: C_24  and  O_25
REMARK    8  A    between atoms: C_24  and  C_26
REMARK    9  A    between atoms: C_26  and  O_27
REMARK   10  A    between atoms: C_26  and  C_28
REMARK   11  A    between atoms: C_28  and  O_29
REMARK                            x       y       z     vdW  Elec       q    Type
REMARK                         _______ _______ _______ _____ _____    ______ ____
ROOT
ATOM      1  C   UNL     1       5.002   6.586  16.944  0.00  0.00    +0.000 C 
ATOM      2  C   UNL     1       4.026   6.555  18.169  0.00  0.00    +0.000 C 
ATOM      3  C   UNL     1       3.278   5.265  18.254  0.00  0.00    +0.000 C 
ATOM      4  C   UNL     1       3.452   4.267  17.378  0.00  0.00    +0.000 C 
ATOM      5  O   UNL     1       4.320   4.360  16.313  0.00  0.00    +0.000 OA
ATOM      6  C   UNL     1       5.487   5.174  16.562  0.00  0.00    +0.000 C 
ENDROOT
BRANCH   1  10
ATOM      7  C   UNL     1       8.091   8.643  17.698  0.00  0.00    +0.000 C 
ATOM      8  C   UNL     1       7.165   7.464  17.790  0.00  0.00    +0.000 C 
ATOM      9  O   UNL     1       7.427   6.453  18.422  0.00  0.00    +0.000 OA
ATOM     10  N   UNL     1       6.013   7.622  17.063  0.00  0.00    +0.000 N 
ATOM     11  H   UNL     1       5.874   8.472  16.531  0.00  0.00    +0.000 HD
ENDBRANCH   1  10
BRANCH   2  12
ATOM     12  N   UNL     1       3.000   7.628  18.220  0.00  0.00    +0.000 N 
ATOM     13  C   UNL     1       2.162   7.897  19.279  0.00  0.00    +0.000 C 
ATOM     14  O   UNL     1       2.235   7.319  20.355  0.00  0.00    +0.000 OA
ATOM     15  H   UNL     1       2.911   8.163  17.364  0.00  0.00    +0.000 HD
BRANCH  13  16
ATOM     16  C   UNL     1       1.236   9.054  19.241  0.00  0.00    +0.000 A 
ATOM     17  C   UNL     1       0.705   9.652  20.384  0.00  0.00    +0.000 A 
ATOM     18  C   UNL     1      -0.398  10.509  20.257  0.00  0.00    +0.000 A 
ATOM     19  C   UNL     1      -0.959  10.762  19.002  0.00  0.00    +0.000 A 
ATOM     20 CL   UNL     1      -2.380  11.721  18.871  0.00  0.00    +0.000 Cl
ATOM     21  C   UNL     1      -0.400  10.212  17.856  0.00  0.00    +0.000 A 
ATOM     22  C   UNL     1       0.703   9.372  17.975  0.00  0.00    +0.000 A 
ENDBRANCH  13  16
ENDBRANCH   2  12
BRANCH   4  23
ATOM     23  C   UNL     1       2.649   2.921  17.504  0.00  0.00    +0.000 C 
ATOM     24  O   UNL     1       3.390   1.899  17.527  0.00  0.00    +0.000 OA
ATOM     25  O   UNL     1       1.416   3.071  17.715  0.00  0.00    +0.000 OA
ENDBRANCH   4  23
BRANCH   6  26
ATOM     26  C   UNL     1       6.245   5.162  15.210  0.00  0.00    +0.000 C 
BRANCH  26  27
ATOM     27  O   UNL     1       7.518   5.822  15.257  0.00  0.00    +0.000 OA
ATOM     28  H   UNL     1       8.172   5.189  14.906  0.00  0.00    +0.000 HD
ENDBRANCH  26  27
BRANCH  26  29
ATOM     29  C   UNL     1       6.435   3.764  14.571  0.00  0.00    +0.000 C 
BRANCH  29  30
ATOM     30  O   UNL     1       5.946   2.793  15.517  0.00  0.00    +0.000 OA
ATOM     31  H   UNL     1       6.487   2.915  16.323  0.00  0.00    +0.000 HD
ENDBRANCH  29  30
BRANCH  29  32
ATOM     32  C   UNL     1       5.695   3.562  13.245  0.00  0.00    +0.000 C 
BRANCH  32  33
ATOM     33  O   UNL     1       6.471   2.873  12.279  0.00  0.00    +0.000 OA
ATOM     34  H   UNL     1       5.985   2.870  11.428  0.00  0.00    +0.000 HD
ENDBRANCH  32  33
ENDBRANCH  29  32
ENDBRANCH  26  29
ENDBRANCH   6  26
TORSDOF 10
ENDMDL
MODEL 5
REMARK VINA RESULT:      -7.5      0.769      1.134
REMARK  Name = 
REMARK  11 active torsions:
REMARK  status: ('A' for Active; 'I' for Inactive)
REMARK    1  A    between atoms: C_1  and  C_2
REMARK    2  A    between atoms: N_4  and  C_5
REMARK    3  A    between atoms: C_6  and  N_7
REMARK    4  A    between atoms: C_8  and  C_10
REMARK    5  A    between atoms: C_18  and  C_19
REMARK    6  A    between atoms: C_23  and  C_24
REMARK    7  A    between atoms: C_24  and  O_25
REMARK    8  A    between atoms: C_24  and  C_26
REMARK    9  A    between atoms: C_26  and  O_27
REMARK   10  A    between atoms: C_26  and  C_28
REMARK   11  A    between atoms: C_28  and  O_29
REMARK                            x       y       z     vdW  Elec       q    Type
REMARK                         _______ _______ _______ _____ _____    ______ ____
ROOT
ATOM      1  C   UNL     1       5.318   5.938  17.621  0.00  0.00    +0.000 C 
ATOM      2  C   UNL     1       4.694   5.556  19.007  0.00  0.00    +0.000 C 
ATOM      3  C   UNL     1       4.013   4.227  18.964  0.00  0.00    +0.000 C 
ATOM      4  C   UNL     1       3.969   3.470  17.860  0.00  0.00    +0.000 C 
ATOM      5  O   UNL     1       4.530   3.868  16.666  0.00  0.00    +0.000 OA
ATOM      6  C   UNL     1       5.709   4.691  16.806  0.00  0.00    +0.000 C 
ENDROOT
BRANCH   1  10
ATOM      7  C   UNL     1       8.409   8.031  18.257  0.00  0.00    +0.000 C 
ATOM      8  C   UNL     1       7.525   6.820  18.340  0.00  0.00    +0.000 C 
ATOM      9  O   UNL     1       7.868   5.774  18.868  0.00  0.00    +0.000 OA
ATOM     10  N   UNL     1       6.309   6.995  17.731  0.00  0.00    +0.000 N 
ATOM     11  H   UNL     1       6.102   7.876  17.278  0.00  0.00    +0.000 HD
ENDBRANCH   1  10
BRANCH   2  12
ATOM     12  N   UNL     1       3.699   6.507  19.565  0.00  0.00    +0.000 N 
ATOM     13  C   UNL     1       2.748   7.197  18.847  0.00  0.00    +0.000 C 
ATOM     14  O   UNL     1       2.561   7.031  17.650  0.00  0.00    +0.000 OA
ATOM     15  H   UNL     1       3.784   6.665  20.562  0.00  0.00    +0.000 HD
BRANCH  13  16
ATOM     16  C   UNL     1       1.752   8.055  19.533  0.00  0.00    +0.000 A 
ATOM     17  C   UNL     1       1.265   9.247  18.995  0.00  0.00    +0.000 A 
ATOM     18  C   UNL     1       0.591  10.148  19.832  0.00  0.00    +0.000 A 
ATOM     19  C   UNL     1       0.409   9.858  21.188  0.00  0.00    +0.000 A 
ATOM     20 CL   UNL     1      -0.314  11.019  22.228  0.00  0.00    +0.000 Cl
ATOM     21  C   UNL     1       0.845   8.649  21.714  0.00  0.00    +0.000 A 
ATOM     22  C   UNL     1       1.502   7.745  20.885  0.00  0.00    +0.000 A 
ENDBRANCH  13  16
ENDBRANCH   2  12
BRANCH   4  23
ATOM     23  C   UNL     1       3.248   2.073  17.855  0.00  0.00    +0.000 C 
ATOM     24  O   UNL     1       2.120   2.096  17.289  0.00  0.00    +0.000 OA
ATOM     25  O   UNL     1       3.960   1.121  18.272  0.00  0.00    +0.000 OA
ENDBRANCH   4  23
BRANCH   6  26
ATOM     26  C   UNL     1       6.091   5.044  15.345  0.00  0.00    +0.000 C 
BRANCH  26  27
ATOM     27  O   UNL     1       7.404   5.608  15.213  0.00  0.00    +0.000 OA
ATOM     28  H   UNL     1       7.293   6.469  14.768  0.00  0.00    +0.000 HD
ENDBRANCH  26  27
BRANCH  26  29
ATOM     29  C   UNL     1       5.944   3.888  14.325  0.00  0.00    +0.000 C 
BRANCH  29  30
ATOM     30  O   UNL     1       4.604   3.952  13.798  0.00  0.00    +0.000 OA
ATOM     31  H   UNL     1       4.013   3.828  14.568  0.00  0.00    +0.000 HD
ENDBRANCH  29  30
BRANCH  29  32
ATOM     32  C   UNL     1       6.927   3.942  13.151  0.00  0.00    +0.000 C 
BRANCH  32  33
ATOM     33  O   UNL     1       6.657   2.966  12.160  0.00  0.00    +0.000 OA
ATOM     34  H   UNL     1       7.385   2.973  11.503  0.00  0.00    +0.000 HD
ENDBRANCH  32  33
ENDBRANCH  29  32
ENDBRANCH  26  29
ENDBRANCH   6  26
TORSDOF 10
ENDMDL
MODEL 6
REMARK VINA RESULT:      -7.4      1.473      2.058
REMARK  Name = 
REMARK  11 active torsions:
REMARK  status: ('A' for Active; 'I' for Inactive)
REMARK    1  A    between atoms: C_1  and  C_2
REMARK    2  A    between atoms: N_4  and  C_5
REMARK    3  A    between atoms: C_6  and  N_7
REMARK    4  A    between atoms: C_8  and  C_10
REMARK    5  A    between atoms: C_18  and  C_19
REMARK    6  A    between atoms: C_23  and  C_24
REMARK    7  A    between atoms: C_24  and  O_25
REMARK    8  A    between atoms: C_24  and  C_26
REMARK    9  A    between atoms: C_26  and  O_27
REMARK   10  A    between atoms: C_26  and  C_28
REMARK   11  A    between atoms: C_28  and  O_29
REMARK                            x       y       z     vdW  Elec       q    Type
REMARK                         _______ _______ _______ _____ _____    ______ ____
ROOT
ATOM      1  C   UNL     1       4.843   5.635  17.661  0.00  0.00    +0.000 C 
ATOM      2  C   UNL     1       3.821   5.865  18.827  0.00  0.00    +0.000 C 
ATOM      3  C   UNL     1       2.870   4.722  18.969  0.00  0.00    +0.000 C 
ATOM      4  C   UNL     1       2.919   3.637  18.184  0.00  0.00    +0.000 C 
ATOM      5  O   UNL     1       3.837   3.500  17.166  0.00  0.00    +0.000 OA
ATOM      6  C   UNL     1       5.108   4.137  17.419  0.00  0.00    +0.000 C 
ENDROOT
BRANCH   1  10
ATOM      7  C   UNL     1       8.171   7.254  18.464  0.00  0.00    +0.000 C 
ATOM      8  C   UNL     1       7.055   6.258  18.601  0.00  0.00    +0.000 C 
ATOM      9  O   UNL     1       7.096   5.304  19.363  0.00  0.00    +0.000 OA
ATOM     10  N   UNL     1       6.002   6.505  17.758  0.00  0.00    +0.000 N 
ATOM     11  H   UNL     1       6.048   7.292  17.124  0.00  0.00    +0.000 HD
ENDBRANCH   1  10
BRANCH   2  12
ATOM     12  N   UNL     1       2.982   7.087  18.734  0.00  0.00    +0.000 N 
ATOM     13  C   UNL     1       2.072   7.517  19.674  0.00  0.00    +0.000 C 
ATOM     14  O   UNL     1       1.916   6.967  20.756  0.00  0.00    +0.000 OA
ATOM     15  H   UNL     1       3.088   7.603  17.869  0.00  0.00    +0.000 HD
BRANCH  13  16
ATOM     16  C   UNL     1       1.355   8.803  19.506  0.00  0.00    +0.000 A 
ATOM     17  C   UNL     1       0.639   9.424  20.530  0.00  0.00    +0.000 A 
ATOM     18  C   UNL     1      -0.265  10.446  20.208  0.00  0.00    +0.000 A 
ATOM     19  C   UNL     1      -0.450  10.839  18.879  0.00  0.00    +0.000 A 
ATOM     20 CL   UNL     1      -1.644  12.010  18.484  0.00  0.00    +0.000 Cl
ATOM     21  C   UNL     1       0.300  10.260  17.863  0.00  0.00    +0.000 A 
ATOM     22  C   UNL     1       1.209   9.256  18.178  0.00  0.00    +0.000 A 
ENDBRANCH  13  16
ENDBRANCH   2  12
BRANCH   4  23
ATOM     23  C   UNL     1       1.903   2.451  18.367  0.00  0.00    +0.000 C 
ATOM     24  O   UNL     1       2.448   1.385  18.769  0.00  0.00    +0.000 OA
ATOM     25  O   UNL     1       0.694   2.780  18.237  0.00  0.00    +0.000 OA
ENDBRANCH   4  23
BRANCH   6  26
ATOM     26  C   UNL     1       5.914   3.888  16.118  0.00  0.00    +0.000 C 
BRANCH  26  27
ATOM     27  O   UNL     1       5.894   2.522  15.681  0.00  0.00    +0.000 OA
ATOM     28  H   UNL     1       6.201   2.522  14.755  0.00  0.00    +0.000 HD
ENDBRANCH  26  27
BRANCH  26  29
ATOM     29  C   UNL     1       5.536   4.797  14.922  0.00  0.00    +0.000 C 
BRANCH  29  30
ATOM     30  O   UNL     1       6.603   5.752  14.758  0.00  0.00    +0.000 OA
ATOM     31  H   UNL     1       7.247   5.326  14.156  0.00  0.00    +0.000 HD
ENDBRANCH  29  30
BRANCH  29  32
ATOM     32  C   UNL     1       5.343   4.057  13.594  0.00  0.00    +0.000 C 
BRANCH  32  33
ATOM     33  O   UNL     1       6.518   3.400  13.153  0.00  0.00    +0.000 OA
ATOM     34  H   UNL     1       7.034   3.115  13.937  0.00  0.00    +0.000 HD
ENDBRANCH  32  33
ENDBRANCH  29  32
ENDBRANCH  26  29
ENDBRANCH   6  26
TORSDOF 10
ENDMDL
MODEL 7
REMARK VINA RESULT:      -7.4      1.302      1.578
REMARK  Name = 
REMARK  11 active torsions:
REMARK  status: ('A' for Active; 'I' for Inactive)
REMARK    1  A    between atoms: C_1  and  C_2
REMARK    2  A    between atoms: N_4  and  C_5
REMARK    3  A    between atoms: C_6  and  N_7
REMARK    4  A    between atoms: C_8  and  C_10
REMARK    5  A    between atoms: C_18  and  C_19
REMARK    6  A    between atoms: C_23  and  C_24
REMARK    7  A    between atoms: C_24  and  O_25
REMARK    8  A    between atoms: C_24  and  C_26
REMARK    9  A    between atoms: C_26  and  O_27
REMARK   10  A    between atoms: C_26  and  C_28
REMARK   11  A    between atoms: C_28  and  O_29
REMARK                            x       y       z     vdW  Elec       q    Type
REMARK                         _______ _______ _______ _____ _____    ______ ____
ROOT
ATOM      1  C   UNL     1       5.062   6.545  16.970  0.00  0.00    +0.000 C 
ATOM      2  C   UNL     1       4.110   6.491  18.214  0.00  0.00    +0.000 C 
ATOM      3  C   UNL     1       3.354   5.205  18.282  0.00  0.00    +0.000 C 
ATOM      4  C   UNL     1       3.502   4.228  17.378  0.00  0.00    +0.000 C 
ATOM      5  O   UNL     1       4.350   4.341  16.298  0.00  0.00    +0.000 OA
ATOM      6  C   UNL     1       5.527   5.140  16.544  0.00  0.00    +0.000 C 
ENDROOT
BRANCH   1  10
ATOM      7  C   UNL     1       8.174   8.564  17.730  0.00  0.00    +0.000 C 
ATOM      8  C   UNL     1       7.237   7.394  17.815  0.00  0.00    +0.000 C 
ATOM      9  O   UNL     1       7.492   6.374  18.437  0.00  0.00    +0.000 OA
ATOM     10  N   UNL     1       6.083   7.570  17.095  0.00  0.00    +0.000 N 
ATOM     11  H   UNL     1       5.951   8.426  16.571  0.00  0.00    +0.000 HD
ENDBRANCH   1  10
BRANCH   2  12
ATOM     12  N   UNL     1       3.094   7.570  18.312  0.00  0.00    +0.000 N 
ATOM     13  C   UNL     1       2.177   7.728  19.326  0.00  0.00    +0.000 C 
ATOM     14  O   UNL     1       2.157   7.024  20.327  0.00  0.00    +0.000 OA
ATOM     15  H   UNL     1       3.080   8.205  17.522  0.00  0.00    +0.000 HD
BRANCH  13  16
ATOM     16  C   UNL     1       1.268   8.898  19.354  0.00  0.00    +0.000 A 
ATOM     17  C   UNL     1       1.081   9.753  18.266  0.00  0.00    +0.000 A 
ATOM     18  C   UNL     1       0.472  10.999  18.475  0.00  0.00    +0.000 A 
ATOM     19  C   UNL     1       0.058  11.383  19.754  0.00  0.00    +0.000 A 
ATOM     20 CL   UNL     1      -0.579  12.957  20.017  0.00  0.00    +0.000 Cl
ATOM     21  C   UNL     1       0.194  10.513  20.828  0.00  0.00    +0.000 A 
ATOM     22  C   UNL     1       0.783   9.269  20.625  0.00  0.00    +0.000 A 
ENDBRANCH  13  16
ENDBRANCH   2  12
BRANCH   4  23
ATOM     23  C   UNL     1       2.691   2.885  17.486  0.00  0.00    +0.000 C 
ATOM     24  O   UNL     1       3.425   1.872  17.657  0.00  0.00    +0.000 OA
ATOM     25  O   UNL     1       1.442   3.038  17.541  0.00  0.00    +0.000 OA
ENDBRANCH   4  23
BRANCH   6  26
ATOM     26  C   UNL     1       6.259   5.155  15.177  0.00  0.00    +0.000 C 
BRANCH  26  27
ATOM     27  O   UNL     1       7.536   5.808  15.214  0.00  0.00    +0.000 OA
ATOM     28  H   UNL     1       7.646   6.253  14.353  0.00  0.00    +0.000 HD
ENDBRANCH  26  27
BRANCH  26  29
ATOM     29  C   UNL     1       6.429   3.771  14.502  0.00  0.00    +0.000 C 
BRANCH  29  30
ATOM     30  O   UNL     1       6.001   2.777  15.453  0.00  0.00    +0.000 OA
ATOM     31  H   UNL     1       6.119   1.915  15.005  0.00  0.00    +0.000 HD
ENDBRANCH  29  30
BRANCH  29  32
ATOM     32  C   UNL     1       5.622   3.586  13.214  0.00  0.00    +0.000 C 
BRANCH  32  33
ATOM     33  O   UNL     1       6.247   2.709  12.292  0.00  0.00    +0.000 OA
ATOM     34  H   UNL     1       5.969   2.953  11.384  0.00  0.00    +0.000 HD
ENDBRANCH  32  33
ENDBRANCH  29  32
ENDBRANCH  26  29
ENDBRANCH   6  26
TORSDOF 10
ENDMDL
MODEL 8
REMARK VINA RESULT:      -7.4      1.063      1.100
REMARK  Name = 
REMARK  11 active torsions:
REMARK  status: ('A' for Active; 'I' for Inactive)
REMARK    1  A    between atoms: C_1  and  C_2
REMARK    2  A    between atoms: N_4  and  C_5
REMARK    3  A    between atoms: C_6  and  N_7
REMARK    4  A    between atoms: C_8  and  C_10
REMARK    5  A    between atoms: C_18  and  C_19
REMARK    6  A    between atoms: C_23  and  C_24
REMARK    7  A    between atoms: C_24  and  O_25
REMARK    8  A    between atoms: C_24  and  C_26
REMARK    9  A    between atoms: C_26  and  O_27
REMARK   10  A    between atoms: C_26  and  C_28
REMARK   11  A    between atoms: C_28  and  O_29
REMARK                            x       y       z     vdW  Elec       q    Type
REMARK                         _______ _______ _______ _____ _____    ______ ____
ROOT
ATOM      1  C   UNL     1       4.395   6.079  17.405  0.00  0.00    +0.000 C 
ATOM      2  C   UNL     1       3.702   6.008  18.809  0.00  0.00    +0.000 C 
ATOM      3  C   UNL     1       2.920   4.747  18.981  0.00  0.00    +0.000 C 
ATOM      4  C   UNL     1       2.848   3.803  18.034  0.00  0.00    +0.000 C 
ATOM      5  O   UNL     1       3.473   3.930  16.813  0.00  0.00    +0.000 OA
ATOM      6  C   UNL     1       4.709   4.677  16.849  0.00  0.00    +0.000 C 
ENDROOT
BRANCH   1  10
ATOM      7  C   UNL     1       7.672   7.964  17.626  0.00  0.00    +0.000 C 
ATOM      8  C   UNL     1       6.718   6.827  17.860  0.00  0.00    +0.000 C 
ATOM      9  O   UNL     1       7.037   5.786  18.411  0.00  0.00    +0.000 OA
ATOM     10  N   UNL     1       5.463   7.062  17.360  0.00  0.00    +0.000 N 
ATOM     11  H   UNL     1       5.274   7.934  16.881  0.00  0.00    +0.000 HD
ENDBRANCH   1  10
BRANCH   2  12
ATOM     12  N   UNL     1       2.771   7.116  19.140  0.00  0.00    +0.000 N 
ATOM     13  C   UNL     1       1.907   7.154  20.211  0.00  0.00    +0.000 C 
ATOM     14  O   UNL     1       1.876   6.291  21.078  0.00  0.00    +0.000 OA
ATOM     15  H   UNL     1       2.772   7.878  18.472  0.00  0.00    +0.000 HD
BRANCH  13  16
ATOM     16  C   UNL     1       1.087   8.358  20.484  0.00  0.00    +0.000 A 
ATOM     17  C   UNL     1       1.210   9.551  19.770  0.00  0.00    +0.000 A 
ATOM     18  C   UNL     1       0.644  10.722  20.294  0.00  0.00    +0.000 A 
ATOM     19  C   UNL     1      -0.037  10.697  21.516  0.00  0.00    +0.000 A 
ATOM     20 CL   UNL     1      -0.626  12.157  22.204  0.00  0.00    +0.000 Cl
ATOM     21  C   UNL     1      -0.208   9.502  22.202  0.00  0.00    +0.000 A 
ATOM     22  C   UNL     1       0.340   8.334  21.680  0.00  0.00    +0.000 A 
ENDBRANCH  13  16
ENDBRANCH   2  12
BRANCH   4  23
ATOM     23  C   UNL     1       2.019   2.486  18.255  0.00  0.00    +0.000 C 
ATOM     24  O   UNL     1       2.735   1.487  18.542  0.00  0.00    +0.000 OA
ATOM     25  O   UNL     1       0.771   2.656  18.264  0.00  0.00    +0.000 OA
ENDBRANCH   4  23
BRANCH   6  26
ATOM     26  C   UNL     1       5.159   4.723  15.366  0.00  0.00    +0.000 C 
BRANCH  26  27
ATOM     27  O   UNL     1       5.197   6.048  14.816  0.00  0.00    +0.000 OA
ATOM     28  H   UNL     1       5.159   5.947  13.846  0.00  0.00    +0.000 HD
ENDBRANCH  26  27
BRANCH  26  29
ATOM     29  C   UNL     1       6.507   4.021  15.062  0.00  0.00    +0.000 C 
BRANCH  29  30
ATOM     30  O   UNL     1       6.365   3.359  13.790  0.00  0.00    +0.000 OA
ATOM     31  H   UNL     1       5.717   2.641  13.938  0.00  0.00    +0.000 HD
ENDBRANCH  29  30
BRANCH  29  32
ATOM     32  C   UNL     1       7.713   4.963  14.984  0.00  0.00    +0.000 C 
BRANCH  32  33
ATOM     33  O   UNL     1       7.864   5.561  13.708  0.00  0.00    +0.000 OA
ATOM     34  H   UNL     1       8.630   6.172  13.734  0.00  0.00    +0.000 HD
ENDBRANCH  32  33
ENDBRANCH  29  32
ENDBRANCH  26  29
ENDBRANCH   6  26
TORSDOF 10
ENDMDL
MODEL 9
REMARK VINA RESULT:      -7.4      1.063      1.297
REMARK  Name = 
REMARK  11 active torsions:
REMARK  status: ('A' for Active; 'I' for Inactive)
REMARK    1  A    between atoms: C_1  and  C_2
REMARK    2  A    between atoms: N_4  and  C_5
REMARK    3  A    between atoms: C_6  and  N_7
REMARK    4  A    between atoms: C_8  and  C_10
REMARK    5  A    between atoms: C_18  and  C_19
REMARK    6  A    between atoms: C_23  and  C_24
REMARK    7  A    between atoms: C_24  and  O_25
REMARK    8  A    between atoms: C_24  and  C_26
REMARK    9  A    between atoms: C_26  and  O_27
REMARK   10  A    between atoms: C_26  and  C_28
REMARK   11  A    between atoms: C_28  and  O_29
REMARK                            x       y       z     vdW  Elec       q    Type
REMARK                         _______ _______ _______ _____ _____    ______ ____
ROOT
ATOM      1  C   UNL     1       5.679   5.646  18.318  0.00  0.00    +0.000 C 
ATOM      2  C   UNL     1       4.676   5.351  19.485  0.00  0.00    +0.000 C 
ATOM      3  C   UNL     1       3.865   4.124  19.226  0.00  0.00    +0.000 C 
ATOM      4  C   UNL     1       4.009   3.379  18.122  0.00  0.00    +0.000 C 
ATOM      5  O   UNL     1       4.904   3.699  17.125  0.00  0.00    +0.000 OA
ATOM      6  C   UNL     1       6.103   4.359  17.587  0.00  0.00    +0.000 C 
ENDROOT
BRANCH   1  10
ATOM      7  C   UNL     1       8.288   8.384  18.521  0.00  0.00    +0.000 C 
ATOM      8  C   UNL     1       7.266   7.502  17.864  0.00  0.00    +0.000 C 
ATOM      9  O   UNL     1       6.917   7.630  16.701  0.00  0.00    +0.000 OA
ATOM     10  N   UNL     1       6.736   6.562  18.711  0.00  0.00    +0.000 N 
ATOM     11  H   UNL     1       7.043   6.534  19.675  0.00  0.00    +0.000 HD
ENDBRANCH   1  10
BRANCH   2  12
ATOM     12  N   UNL     1       3.702   6.427  19.803  0.00  0.00    +0.000 N 
ATOM     13  C   UNL     1       2.874   7.060  18.905  0.00  0.00    +0.000 C 
ATOM     14  O   UNL     1       2.789   6.735  17.728  0.00  0.00    +0.000 OA
ATOM     15  H   UNL     1       3.705   6.720  20.773  0.00  0.00    +0.000 HD
BRANCH  13  16
ATOM     16  C   UNL     1       1.880   8.061  19.361  0.00  0.00    +0.000 A 
ATOM     17  C   UNL     1       1.496   9.165  18.599  0.00  0.00    +0.000 A 
ATOM     18  C   UNL     1       0.815  10.221  19.222  0.00  0.00    +0.000 A 
ATOM     19  C   UNL     1       0.524  10.169  20.589  0.00  0.00    +0.000 A 
ATOM     20 CL   UNL     1      -0.207  11.517  21.365  0.00  0.00    +0.000 Cl
ATOM     21  C   UNL     1       0.857   9.049  21.339  0.00  0.00    +0.000 A 
ATOM     22  C   UNL     1       1.520   7.992  20.722  0.00  0.00    +0.000 A 
ENDBRANCH  13  16
ENDBRANCH   2  12
BRANCH   4  23
ATOM     23  C   UNL     1       3.140   2.091  17.887  0.00  0.00    +0.000 C 
ATOM     24  O   UNL     1       3.650   1.047  18.382  0.00  0.00    +0.000 OA
ATOM     25  O   UNL     1       2.007   2.315  17.384  0.00  0.00    +0.000 OA
ENDBRANCH   4  23
BRANCH   6  26
ATOM     26  C   UNL     1       6.890   4.657  16.284  0.00  0.00    +0.000 C 
BRANCH  26  27
ATOM     27  O   UNL     1       8.023   3.799  16.087  0.00  0.00    +0.000 OA
ATOM     28  H   UNL     1       8.715   4.346  15.671  0.00  0.00    +0.000 HD
ENDBRANCH  26  27
BRANCH  26  29
ATOM     29  C   UNL     1       6.042   4.665  14.987  0.00  0.00    +0.000 C 
BRANCH  29  30
ATOM     30  O   UNL     1       5.310   5.906  14.965  0.00  0.00    +0.000 OA
ATOM     31  H   UNL     1       4.804   5.928  15.802  0.00  0.00    +0.000 HD
ENDBRANCH  29  30
BRANCH  29  32
ATOM     32  C   UNL     1       6.855   4.561  13.693  0.00  0.00    +0.000 C 
BRANCH  32  33
ATOM     33  O   UNL     1       7.937   5.476  13.646  0.00  0.00    +0.000 OA
ATOM     34  H   UNL     1       7.905   5.958  12.793  0.00  0.00    +0.000 HD
ENDBRANCH  32  33
ENDBRANCH  29  32
ENDBRANCH  26  29
ENDBRANCH   6  26
TORSDOF 10
ENDMDL
