MODEL 1
REMARK VINA RESULT:      -7.8      0.000      0.000
REMARK  Name = 
REMARK  8 active torsions:
REMARK  status: ('A' for Active; 'I' for Inactive)
REMARK    1  A    between atoms: C_1  and  O_2
REMARK    2  A    between atoms: O_2  and  C_3
REMARK    3  A    between atoms: C_6  and  N_7
REMARK    4  A    between atoms: N_7  and  S_8
REMARK    5  A    between atoms: S_8  and  C_11
REMARK    6  A    between atoms: C_14  and  N_15
REMARK    7  A    between atoms: C_21  and  N_22
REMARK    8  A    between atoms: C_23  and  C_25
REMARK                            x       y       z     vdW  Elec       q    Type
REMARK                         _______ _______ _______ _____ _____    ______ ____
ROOT
ATOM      1  C   UNL     1       1.419   8.273  20.066  0.00  0.00    +0.000 A 
ATOM      2  C   UNL     1       0.978   7.418  21.070  0.00  0.00    +0.000 A 
ATOM      3  C   UNL     1       1.239   6.038  20.968  0.00  0.00    +0.000 A 
ATOM      4  C   UNL     1       1.951   5.469  19.890  0.00  0.00    +0.000 A 
ATOM      5  C   UNL     1       2.399   6.389  18.904  0.00  0.00    +0.000 A 
ATOM      6  C   UNL     1       2.131   7.763  18.989  0.00  0.00    +0.000 A 
ENDROOT
BRANCH   4   7
ATOM      7  N   UNL     1       2.125   4.096  19.794  0.00  0.00    +0.000 N 
ATOM      8  C   UNL     1       3.051   3.331  20.654  0.00  0.00    +0.000 C 
ATOM      9  C   UNL     1       3.954   2.406  19.828  0.00  0.00    +0.000 C 
ATOM     10  O   UNL     1       3.202   1.574  18.938  0.00  0.00    +0.000 OA
ATOM     11  C   UNL     1       2.438   2.389  18.034  0.00  0.00    +0.000 C 
ATOM     12  C   UNL     1       1.428   3.265  18.794  0.00  0.00    +0.000 C 
ENDBRANCH   4   7
BRANCH   5  13
ATOM     13  N   UNL     1       3.226   5.963  17.844  0.00  0.00    +0.000 N 
ATOM     14  C   UNL     1       4.563   5.667  18.057  0.00  0.00    +0.000 C 
ATOM     15  O   UNL     1       5.131   5.691  19.143  0.00  0.00    +0.000 OA
ATOM     16  H   UNL     1       2.958   6.300  16.929  0.00  0.00    +0.000 HD
BRANCH  14  17
ATOM     17  C   UNL     1       5.367   5.423  16.836  0.00  0.00    +0.000 A 
ATOM     18  C   UNL     1       4.789   4.677  15.797  0.00  0.00    +0.000 A 
ATOM     19  C   UNL     1       5.511   4.435  14.629  0.00  0.00    +0.000 A 
ATOM     20  C   UNL     1       6.799   4.946  14.504  0.00  0.00    +0.000 A 
ATOM     21  F   UNL     1       7.491   4.717  13.381  0.00  0.00    +0.000 F 
ATOM     22  C   UNL     1       7.378   5.697  15.524  0.00  0.00    +0.000 A 
ATOM     23  C   UNL     1       6.662   5.940  16.697  0.00  0.00    +0.000 A 
ENDBRANCH  14  17
ENDBRANCH   5  13
BRANCH   1  24
ATOM     24  S   UNL     1       1.201  10.034  20.182  0.00  0.00    +0.000 S 
ATOM     25  O   UNL     1       1.738  10.633  18.978  0.00  0.00    +0.000 OA
ATOM     26  O   UNL     1       1.679  10.438  21.488  0.00  0.00    +0.000 OA
BRANCH  24  27
ATOM     27  N   UNL     1      -0.468  10.262  20.218  0.00  0.00    +0.000 N 
ATOM     28  H   UNL     1      -0.915   9.700  20.938  0.00  0.00    +0.000 HD
BRANCH  27  32
ATOM     29  C   UNL     1      -2.583  10.895  16.623  0.00  0.00    +0.000 A 
ATOM     30  C   UNL     1      -2.458  11.915  17.566  0.00  0.00    +0.000 A 
ATOM     31  C   UNL     1      -1.747  11.708  18.748  0.00  0.00    +0.000 A 
ATOM     32  C   UNL     1      -1.186  10.460  19.008  0.00  0.00    +0.000 A 
ATOM     33  C   UNL     1      -1.347   9.418  18.097  0.00  0.00    +0.000 A 
ATOM     34  C   UNL     1      -2.034   9.640  16.895  0.00  0.00    +0.000 A 
BRANCH  29  36
ATOM     35  C   UNL     1      -3.253  10.300  14.433  0.00  0.00    +0.000 C 
ATOM     36  O   UNL     1      -3.292  11.234  15.503  0.00  0.00    +0.000 OA
ENDBRANCH  29  36
ENDBRANCH  27  32
ENDBRANCH  24  27
ENDBRANCH   1  24
TORSDOF 7
ENDMDL
MODEL 2
REMARK VINA RESULT:      -7.7      0.643      1.016
REMARK  Name = 
REMARK  8 active torsions:
REMARK  status: ('A' for Active; 'I' for Inactive)
REMARK    1  A    between atoms: C_1  and  O_2
REMARK    2  A    between atoms: O_2  and  C_3
REMARK    3  A    between atoms: C_6  and  N_7
REMARK    4  A    between atoms: N_7  and  S_8
REMARK    5  A    between atoms: S_8  and  C_11
REMARK    6  A    between atoms: C_14  and  N_15
REMARK    7  A    between atoms: C_21  and  N_22
REMARK    8  A    between atoms: C_23  and  C_25
REMARK                            x       y       z     vdW  Elec       q    Type
REMARK                         _______ _______ _______ _____ _____    ______ ____
ROOT
ATOM      1  C   UNL     1       1.289   8.624  20.153  0.00  0.00    +0.000 A 
ATOM      2  C   UNL     1       0.756   7.810  21.148  0.00  0.00    +0.000 A 
ATOM      3  C   UNL     1       0.972   6.420  21.094  0.00  0.00    +0.000 A 
ATOM      4  C   UNL     1       1.727   5.799  20.075  0.00  0.00    +0.000 A 
ATOM      5  C   UNL     1       2.269   6.678  19.099  0.00  0.00    +0.000 A 
ATOM      6  C   UNL     1       2.048   8.062  19.135  0.00  0.00    +0.000 A 
ENDROOT
BRANCH   4   7
ATOM      7  N   UNL     1       1.857   4.419  20.022  0.00  0.00    +0.000 N 
ATOM      8  C   UNL     1       2.650   3.637  20.993  0.00  0.00    +0.000 C 
ATOM      9  C   UNL     1       3.602   2.662  20.288  0.00  0.00    +0.000 C 
ATOM     10  O   UNL     1       2.920   1.841  19.332  0.00  0.00    +0.000 OA
ATOM     11  C   UNL     1       2.294   2.665  18.336  0.00  0.00    +0.000 C 
ATOM     12  C   UNL     1       1.241   3.594  18.965  0.00  0.00    +0.000 C 
ENDBRANCH   4   7
BRANCH   5  13
ATOM     13  N   UNL     1       3.144   6.196  18.103  0.00  0.00    +0.000 N 
ATOM     14  C   UNL     1       4.437   5.807  18.417  0.00  0.00    +0.000 C 
ATOM     15  O   UNL     1       4.919   5.791  19.543  0.00  0.00    +0.000 OA
ATOM     16  H   UNL     1       2.971   6.552  17.172  0.00  0.00    +0.000 HD
BRANCH  14  17
ATOM     17  C   UNL     1       5.314   5.509  17.260  0.00  0.00    +0.000 A 
ATOM     18  C   UNL     1       4.925   5.971  15.993  0.00  0.00    +0.000 A 
ATOM     19  C   UNL     1       5.729   5.718  14.883  0.00  0.00    +0.000 A 
ATOM     20  C   UNL     1       6.918   5.015  15.047  0.00  0.00    +0.000 A 
ATOM     21  F   UNL     1       7.692   4.775  13.981  0.00  0.00    +0.000 F 
ATOM     22  C   UNL     1       7.319   4.561  16.300  0.00  0.00    +0.000 A 
ATOM     23  C   UNL     1       6.518   4.807  17.415  0.00  0.00    +0.000 A 
ENDBRANCH  14  17
ENDBRANCH   5  13
BRANCH   1  24
ATOM     24  S   UNL     1       1.130  10.393  20.216  0.00  0.00    +0.000 S 
ATOM     25  O   UNL     1       1.602  10.931  18.956  0.00  0.00    +0.000 OA
ATOM     26  O   UNL     1       1.706  10.830  21.471  0.00  0.00    +0.000 OA
BRANCH  24  27
ATOM     27  N   UNL     1      -0.526  10.675  20.352  0.00  0.00    +0.000 N 
ATOM     28  H   UNL     1      -0.936  10.169  21.134  0.00  0.00    +0.000 HD
BRANCH  27  32
ATOM     29  C   UNL     1      -2.887  11.069  16.879  0.00  0.00    +0.000 A 
ATOM     30  C   UNL     1      -1.813  10.180  16.914  0.00  0.00    +0.000 A 
ATOM     31  C   UNL     1      -1.042  10.042  18.068  0.00  0.00    +0.000 A 
ATOM     32  C   UNL     1      -1.322  10.824  19.185  0.00  0.00    +0.000 A 
ATOM     33  C   UNL     1      -2.361  11.752  19.146  0.00  0.00    +0.000 A 
ATOM     34  C   UNL     1      -3.155  11.864  17.995  0.00  0.00    +0.000 A 
BRANCH  29  36
ATOM     35  C   UNL     1      -3.174  10.137  14.724  0.00  0.00    +0.000 C 
ATOM     36  O   UNL     1      -3.569  11.098  15.693  0.00  0.00    +0.000 OA
ENDBRANCH  29  36
ENDBRANCH  27  32
ENDBRANCH  24  27
ENDBRANCH   1  24
TORSDOF 7
ENDMDL
MODEL 3
REMARK VINA RESULT:      -7.7      2.408      3.175
REMARK  Name = 
REMARK  8 active torsions:
REMARK  status: ('A' for Active; 'I' for Inactive)
REMARK    1  A    between atoms: C_1  and  O_2
REMARK    2  A    between atoms: O_2  and  C_3
REMARK    3  A    between atoms: C_6  and  N_7
REMARK    4  A    between atoms: N_7  and  S_8
REMARK    5  A    between atoms: S_8  and  C_11
REMARK    6  A    between atoms: C_14  and  N_15
REMARK    7  A    between atoms: C_21  and  N_22
REMARK    8  A    between atoms: C_23  and  C_25
REMARK                            x       y       z     vdW  Elec       q    Type
REMARK                         _______ _______ _______ _____ _____    ______ ____
ROOT
ATOM      1  C   UNL     1       1.600   8.308  19.257  0.00  0.00    +0.000 A 
ATOM      2  C   UNL     1       1.352   7.660  20.463  0.00  0.00    +0.000 A 
ATOM      3  C   UNL     1       1.725   6.311  20.613  0.00  0.00    +0.000 A 
ATOM      4  C   UNL     1       2.364   5.573  19.593  0.00  0.00    +0.000 A 
ATOM      5  C   UNL     1       2.616   6.288  18.392  0.00  0.00    +0.000 A 
ATOM      6  C   UNL     1       2.234   7.628  18.226  0.00  0.00    +0.000 A 
ENDROOT
BRANCH   4   7
ATOM      7  N   UNL     1       2.651   4.226  19.759  0.00  0.00    +0.000 N 
ATOM      8  C   UNL     1       3.930   3.728  20.305  0.00  0.00    +0.000 C 
ATOM      9  C   UNL     1       4.532   2.628  19.420  0.00  0.00    +0.000 C 
ATOM     10  O   UNL     1       3.593   1.581  19.150  0.00  0.00    +0.000 OA
ATOM     11  C   UNL     1       2.437   2.118  18.487  0.00  0.00    +0.000 C 
ATOM     12  C   UNL     1       1.719   3.151  19.370  0.00  0.00    +0.000 C 
ENDBRANCH   4   7
BRANCH   5  13
ATOM     13  N   UNL     1       3.358   5.701  17.345  0.00  0.00    +0.000 N 
ATOM     14  C   UNL     1       4.743   5.725  17.353  0.00  0.00    +0.000 C 
ATOM     15  O   UNL     1       5.440   6.190  18.247  0.00  0.00    +0.000 OA
ATOM     16  H   UNL     1       2.890   5.680  16.448  0.00  0.00    +0.000 HD
BRANCH  14  17
ATOM     17  C   UNL     1       5.398   5.253  16.109  0.00  0.00    +0.000 A 
ATOM     18  C   UNL     1       6.751   5.567  15.910  0.00  0.00    +0.000 A 
ATOM     19  C   UNL     1       7.404   5.131  14.757  0.00  0.00    +0.000 A 
ATOM     20  C   UNL     1       6.704   4.379  13.819  0.00  0.00    +0.000 A 
ATOM     21  F   UNL     1       7.332   3.957  12.714  0.00  0.00    +0.000 F 
ATOM     22  C   UNL     1       5.364   4.052  14.012  0.00  0.00    +0.000 A 
ATOM     23  C   UNL     1       4.704   4.488  15.162  0.00  0.00    +0.000 A 
ENDBRANCH  14  17
ENDBRANCH   5  13
BRANCH   1  24
ATOM     24  S   UNL     1       1.236  10.034  19.037  0.00  0.00    +0.000 S 
ATOM     25  O   UNL     1      -0.165  10.157  18.692  0.00  0.00    +0.000 OA
ATOM     26  O   UNL     1       2.263  10.581  18.174  0.00  0.00    +0.000 OA
BRANCH  24  27
ATOM     27  N   UNL     1       1.497  10.728  20.550  0.00  0.00    +0.000 N 
ATOM     28  H   UNL     1       2.308  10.330  21.018  0.00  0.00    +0.000 HD
BRANCH  27  32
ATOM     29  C   UNL     1      -1.801  11.851  22.928  0.00  0.00    +0.000 A 
ATOM     30  C   UNL     1      -1.289  12.719  21.963  0.00  0.00    +0.000 A 
ATOM     31  C   UNL     1      -0.207  12.340  21.170  0.00  0.00    +0.000 A 
ATOM     32  C   UNL     1       0.394  11.099  21.364  0.00  0.00    +0.000 A 
ATOM     33  C   UNL     1      -0.077  10.244  22.359  0.00  0.00    +0.000 A 
ATOM     34  C   UNL     1      -1.186  10.614  23.133  0.00  0.00    +0.000 A 
BRANCH  29  36
ATOM     35  C   UNL     1      -3.979  12.773  22.851  0.00  0.00    +0.000 C 
ATOM     36  O   UNL     1      -2.870  12.339  23.628  0.00  0.00    +0.000 OA
ENDBRANCH  29  36
ENDBRANCH  27  32
ENDBRANCH  24  27
ENDBRANCH   1  24
TORSDOF 7
ENDMDL
MODEL 4
REMARK VINA RESULT:      -7.7      0.958      1.715
REMARK  Name = 
REMARK  8 active torsions:
REMARK  status: ('A' for Active; 'I' for Inactive)
REMARK    1  A    between atoms: C_1  and  O_2
REMARK    2  A    between atoms: O_2  and  C_3
REMARK    3  A    between atoms: C_6  and  N_7
REMARK    4  A    between atoms: N_7  and  S_8
REMARK    5  A    between atoms: S_8  and  C_11
REMARK    6  A    between atoms: C_14  and  N_15
REMARK    7  A    between atoms: C_21  and  N_22
REMARK    8  A    between atoms: C_23  and  C_25
REMARK                            x       y       z     vdW  Elec       q    Type
REMARK                         _______ _______ _______ _____ _____    ______ ____
ROOT
ATOM      1  C   UNL     1       1.233   8.968  20.013  0.00  0.00    +0.000 A 
ATOM      2  C   UNL     1       0.795   8.202  21.088  0.00  0.00    +0.000 A 
ATOM      3  C   UNL     1       1.077   6.822  21.115  0.00  0.00    +0.000 A 
ATOM      4  C   UNL     1       1.807   6.168  20.099  0.00  0.00    +0.000 A 
ATOM      5  C   UNL     1       2.252   7.001  19.038  0.00  0.00    +0.000 A 
ATOM      6  C   UNL     1       1.963   8.373  18.993  0.00  0.00    +0.000 A 
ENDROOT
BRANCH   4   7
ATOM      7  N   UNL     1       2.003   4.795  20.131  0.00  0.00    +0.000 N 
ATOM      8  C   UNL     1       1.633   3.894  19.021  0.00  0.00    +0.000 C 
ATOM      9  C   UNL     1       0.819   2.692  19.518  0.00  0.00    +0.000 C 
ATOM     10  O   UNL     1       1.469   2.011  20.598  0.00  0.00    +0.000 OA
ATOM     11  C   UNL     1       1.665   2.914  21.698  0.00  0.00    +0.000 C 
ATOM     12  C   UNL     1       2.570   4.091  21.297  0.00  0.00    +0.000 C 
ENDBRANCH   4   7
BRANCH   5  13
ATOM     13  N   UNL     1       3.096   6.493  18.028  0.00  0.00    +0.000 N 
ATOM     14  C   UNL     1       4.383   6.070  18.321  0.00  0.00    +0.000 C 
ATOM     15  O   UNL     1       4.884   6.045  19.438  0.00  0.00    +0.000 OA
ATOM     16  H   UNL     1       2.916   6.850  17.099  0.00  0.00    +0.000 HD
BRANCH  14  17
ATOM     17  C   UNL     1       5.231   5.744  17.149  0.00  0.00    +0.000 A 
ATOM     18  C   UNL     1       6.615   5.955  17.251  0.00  0.00    +0.000 A 
ATOM     19  C   UNL     1       7.446   5.650  16.173  0.00  0.00    +0.000 A 
ATOM     20  C   UNL     1       6.891   5.130  15.009  0.00  0.00    +0.000 A 
ATOM     21  F   UNL     1       7.689   4.835  13.975  0.00  0.00    +0.000 F 
ATOM     22  C   UNL     1       5.521   4.907  14.901  0.00  0.00    +0.000 A 
ATOM     23  C   UNL     1       4.683   5.212  15.974  0.00  0.00    +0.000 A 
ENDBRANCH  14  17
ENDBRANCH   5  13
BRANCH   1  24
ATOM     24  S   UNL     1       0.988  10.728  19.966  0.00  0.00    +0.000 S 
ATOM     25  O   UNL     1       1.404  11.204  18.662  0.00  0.00    +0.000 OA
ATOM     26  O   UNL     1       1.572  11.273  21.174  0.00  0.00    +0.000 OA
BRANCH  24  27
ATOM     27  N   UNL     1      -0.675  10.939  20.128  0.00  0.00    +0.000 N 
ATOM     28  H   UNL     1      -1.035  10.501  20.973  0.00  0.00    +0.000 HD
BRANCH  27  32
ATOM     29  C   UNL     1      -3.154  10.836  16.716  0.00  0.00    +0.000 A 
ATOM     30  C   UNL     1      -2.036  10.006  16.812  0.00  0.00    +0.000 A 
ATOM     31  C   UNL     1      -1.226  10.033  17.946  0.00  0.00    +0.000 A 
ATOM     32  C   UNL     1      -1.512  10.921  18.980  0.00  0.00    +0.000 A 
ATOM     33  C   UNL     1      -2.595  11.791  18.874  0.00  0.00    +0.000 A 
ATOM     34  C   UNL     1      -3.427  11.738  17.746  0.00  0.00    +0.000 A 
BRANCH  29  36
ATOM     35  C   UNL     1      -3.195  10.075  14.476  0.00  0.00    +0.000 C 
ATOM     36  O   UNL     1      -3.870  10.701  15.558  0.00  0.00    +0.000 OA
ENDBRANCH  29  36
ENDBRANCH  27  32
ENDBRANCH  24  27
ENDBRANCH   1  24
TORSDOF 7
ENDMDL
MODEL 5
REMARK VINA RESULT:      -7.7      3.919      8.137
REMARK  Name = 
REMARK  8 active torsions:
REMARK  status: ('A' for Active; 'I' for Inactive)
REMARK    1  A    between atoms: C_1  and  O_2
REMARK    2  A    between atoms: O_2  and  C_3
REMARK    3  A    between atoms: C_6  and  N_7
REMARK    4  A    between atoms: N_7  and  S_8
REMARK    5  A    between atoms: S_8  and  C_11
REMARK    6  A    between atoms: C_14  and  N_15
REMARK    7  A    between atoms: C_21  and  N_22
REMARK    8  A    between atoms: C_23  and  C_25
REMARK                            x       y       z     vdW  Elec       q    Type
REMARK                         _______ _______ _______ _____ _____    ______ ____
ROOT
ATOM      1  C   UNL     1       5.851   5.162  17.626  0.00  0.00    +0.000 A 
ATOM      2  C   UNL     1       5.468   3.833  17.778  0.00  0.00    +0.000 A 
ATOM      3  C   UNL     1       4.338   3.522  18.557  0.00  0.00    +0.000 A 
ATOM      4  C   UNL     1       3.549   4.507  19.191  0.00  0.00    +0.000 A 
ATOM      5  C   UNL     1       3.968   5.848  18.984  0.00  0.00    +0.000 A 
ATOM      6  C   UNL     1       5.102   6.167  18.222  0.00  0.00    +0.000 A 
ENDROOT
BRANCH   4   7
ATOM      7  N   UNL     1       2.484   4.153  20.007  0.00  0.00    +0.000 N 
ATOM      8  C   UNL     1       2.583   4.049  21.476  0.00  0.00    +0.000 C 
ATOM      9  C   UNL     1       2.001   2.725  21.990  0.00  0.00    +0.000 C 
ATOM     10  O   UNL     1       0.674   2.497  21.501  0.00  0.00    +0.000 OA
ATOM     11  C   UNL     1       0.679   2.465  20.065  0.00  0.00    +0.000 C 
ATOM     12  C   UNL     1       1.149   3.808  19.481  0.00  0.00    +0.000 C 
ENDBRANCH   4   7
BRANCH   5  13
ATOM     13  N   UNL     1       3.193   6.927  19.459  0.00  0.00    +0.000 N 
ATOM     14  C   UNL     1       2.271   7.558  18.639  0.00  0.00    +0.000 C 
ATOM     15  O   UNL     1       2.005   7.232  17.488  0.00  0.00    +0.000 OA
ATOM     16  H   UNL     1       3.624   7.473  20.193  0.00  0.00    +0.000 HD
BRANCH  14  17
ATOM     17  C   UNL     1       1.666   8.795  19.190  0.00  0.00    +0.000 A 
ATOM     18  C   UNL     1       1.264   8.797  20.534  0.00  0.00    +0.000 A 
ATOM     19  C   UNL     1       0.701   9.945  21.090  0.00  0.00    +0.000 A 
ATOM     20  C   UNL     1       0.551  11.082  20.303  0.00  0.00    +0.000 A 
ATOM     21  F   UNL     1       0.013  12.185  20.838  0.00  0.00    +0.000 F 
ATOM     22  C   UNL     1       0.956  11.094  18.971  0.00  0.00    +0.000 A 
ATOM     23  C   UNL     1       1.518   9.948  18.408  0.00  0.00    +0.000 A 
ENDBRANCH  14  17
ENDBRANCH   5  13
BRANCH   1  24
ATOM     24  S   UNL     1       7.212   5.623  16.581  0.00  0.00    +0.000 S 
ATOM     25  O   UNL     1       8.060   4.462  16.409  0.00  0.00    +0.000 OA
ATOM     26  O   UNL     1       7.750   6.863  17.102  0.00  0.00    +0.000 OA
BRANCH  24  27
ATOM     27  N   UNL     1       6.509   6.019  15.102  0.00  0.00    +0.000 N 
ATOM     28  H   UNL     1       5.771   6.711  15.203  0.00  0.00    +0.000 HD
BRANCH  27  32
ATOM     29  C   UNL     1       5.931   3.064  12.147  0.00  0.00    +0.000 A 
ATOM     30  C   UNL     1       4.972   3.280  13.137  0.00  0.00    +0.000 A 
ATOM     31  C   UNL     1       5.160   4.266  14.105  0.00  0.00    +0.000 A 
ATOM     32  C   UNL     1       6.331   5.020  14.108  0.00  0.00    +0.000 A 
ATOM     33  C   UNL     1       7.318   4.780  13.154  0.00  0.00    +0.000 A 
ATOM     34  C   UNL     1       7.112   3.810  12.162  0.00  0.00    +0.000 A 
BRANCH  29  36
ATOM     35  C   UNL     1       6.633   1.115  11.005  0.00  0.00    +0.000 C 
ATOM     36  O   UNL     1       5.618   2.078  11.252  0.00  0.00    +0.000 OA
ENDBRANCH  29  36
ENDBRANCH  27  32
ENDBRANCH  24  27
ENDBRANCH   1  24
TORSDOF 7
ENDMDL
MODEL 6
REMARK VINA RESULT:      -7.6      1.363      1.852
REMARK  Name = 
REMARK  8 active torsions:
REMARK  status: ('A' for Active; 'I' for Inactive)
REMARK    1  A    between atoms: C_1  and  O_2
REMARK    2  A    between atoms: O_2  and  C_3
REMARK    3  A    between atoms: C_6  and  N_7
REMARK    4  A    between atoms: N_7  and  S_8
REMARK    5  A    between atoms: S_8  and  C_11
REMARK    6  A    between atoms: C_14  and  N_15
REMARK    7  A    between atoms: C_21  and  N_22
REMARK    8  A    between atoms: C_23  and  C_25
REMARK                            x       y       z     vdW  Elec       q    Type
REMARK                         _______ _______ _______ _____ _____    ______ ____
ROOT
ATOM      1  C   UNL     1       1.689   8.360  19.098  0.00  0.00    +0.000 A 
ATOM      2  C   UNL     1       1.444   7.757  20.328  0.00  0.00    +0.000 A 
ATOM      3  C   UNL     1       1.819   6.415  20.528  0.00  0.00    +0.000 A 
ATOM      4  C   UNL     1       2.455   5.640  19.535  0.00  0.00    +0.000 A 
ATOM      5  C   UNL     1       2.704   6.310  18.307  0.00  0.00    +0.000 A 
ATOM      6  C   UNL     1       2.321   7.642  18.092  0.00  0.00    +0.000 A 
ENDROOT
BRANCH   4   7
ATOM      7  N   UNL     1       2.745   4.300  19.750  0.00  0.00    +0.000 N 
ATOM      8  C   UNL     1       4.056   3.817  20.229  0.00  0.00    +0.000 C 
ATOM      9  C   UNL     1       4.585   2.667  19.362  0.00  0.00    +0.000 C 
ATOM     10  O   UNL     1       3.621   1.617  19.216  0.00  0.00    +0.000 OA
ATOM     11  C   UNL     1       2.425   2.131  18.609  0.00  0.00    +0.000 C 
ATOM     12  C   UNL     1       1.779   3.217  19.487  0.00  0.00    +0.000 C 
ENDBRANCH   4   7
BRANCH   5  13
ATOM     13  N   UNL     1       3.444   5.685  17.281  0.00  0.00    +0.000 N 
ATOM     14  C   UNL     1       4.828   5.751  17.259  0.00  0.00    +0.000 C 
ATOM     15  O   UNL     1       5.527   6.288  18.111  0.00  0.00    +0.000 OA
ATOM     16  H   UNL     1       2.961   5.597  16.397  0.00  0.00    +0.000 HD
BRANCH  14  17
ATOM     17  C   UNL     1       5.474   5.226  16.032  0.00  0.00    +0.000 A 
ATOM     18  C   UNL     1       4.703   4.446  15.156  0.00  0.00    +0.000 A 
ATOM     19  C   UNL     1       5.274   3.944  13.987  0.00  0.00    +0.000 A 
ATOM     20  C   UNL     1       6.604   4.230  13.699  0.00  0.00    +0.000 A 
ATOM     21  F   UNL     1       7.151   3.750  12.575  0.00  0.00    +0.000 F 
ATOM     22  C   UNL     1       7.375   5.010  14.556  0.00  0.00    +0.000 A 
ATOM     23  C   UNL     1       6.812   5.514  15.728  0.00  0.00    +0.000 A 
ENDBRANCH  14  17
ENDBRANCH   5  13
BRANCH   1  24
ATOM     24  S   UNL     1       1.323  10.076  18.815  0.00  0.00    +0.000 S 
ATOM     25  O   UNL     1       2.513  10.706  18.281  0.00  0.00    +0.000 OA
ATOM     26  O   UNL     1       0.692  10.582  20.017  0.00  0.00    +0.000 OA
BRANCH  24  27
ATOM     27  N   UNL     1       0.120  10.074  17.635  0.00  0.00    +0.000 N 
ATOM     28  H   UNL     1       0.492  10.276  16.710  0.00  0.00    +0.000 HD
BRANCH  27  32
ATOM     29  C   UNL     1      -3.744  11.507  18.539  0.00  0.00    +0.000 A 
ATOM     30  C   UNL     1      -3.571  10.352  17.776  0.00  0.00    +0.000 A 
ATOM     31  C   UNL     1      -2.294   9.873  17.490  0.00  0.00    +0.000 A 
ATOM     32  C   UNL     1      -1.176  10.573  17.938  0.00  0.00    +0.000 A 
ATOM     33  C   UNL     1      -1.334  11.755  18.657  0.00  0.00    +0.000 A 
ATOM     34  C   UNL     1      -2.621  12.216  18.972  0.00  0.00    +0.000 A 
BRANCH  29  36
ATOM     35  C   UNL     1      -5.264  12.881  19.722  0.00  0.00    +0.000 C 
ATOM     36  O   UNL     1      -5.047  11.860  18.758  0.00  0.00    +0.000 OA
ENDBRANCH  29  36
ENDBRANCH  27  32
ENDBRANCH  24  27
ENDBRANCH   1  24
TORSDOF 7
ENDMDL
MODEL 7
REMARK VINA RESULT:      -7.5      2.469      3.222
REMARK  Name = 
REMARK  8 active torsions:
REMARK  status: ('A' for Active; 'I' for Inactive)
REMARK    1  A    between atoms: C_1  and  O_2
REMARK    2  A    between atoms: O_2  and  C_3
REMARK    3  A    between atoms: C_6  and  N_7
REMARK    4  A    between atoms: N_7  and  S_8
REMARK    5  A    between atoms: S_8  and  C_11
REMARK    6  A    between atoms: C_14  and  N_15
REMARK    7  A    between atoms: C_21  and  N_22
REMARK    8  A    between atoms: C_23  and  C_25
REMARK                            x       y       z     vdW  Elec       q    Type
REMARK                         _______ _______ _______ _____ _____    ______ ____
ROOT
ATOM      1  C   UNL     1       1.614   8.356  19.256  0.00  0.00    +0.000 A 
ATOM      2  C   UNL     1       1.336   7.724  20.463  0.00  0.00    +0.000 A 
ATOM      3  C   UNL     1       1.691   6.372  20.635  0.00  0.00    +0.000 A 
ATOM      4  C   UNL     1       2.341   5.617  19.635  0.00  0.00    +0.000 A 
ATOM      5  C   UNL     1       2.624   6.317  18.431  0.00  0.00    +0.000 A 
ATOM      6  C   UNL     1       2.260   7.658  18.244  0.00  0.00    +0.000 A 
ENDROOT
BRANCH   4   7
ATOM      7  N   UNL     1       2.611   4.268  19.821  0.00  0.00    +0.000 N 
ATOM      8  C   UNL     1       3.910   3.757  20.301  0.00  0.00    +0.000 C 
ATOM      9  C   UNL     1       4.433   2.621  19.411  0.00  0.00    +0.000 C 
ATOM     10  O   UNL     1       3.458   1.588  19.230  0.00  0.00    +0.000 OA
ATOM     11  C   UNL     1       2.275   2.133  18.623  0.00  0.00    +0.000 C 
ATOM     12  C   UNL     1       1.633   3.205  19.521  0.00  0.00    +0.000 C 
ENDBRANCH   4   7
BRANCH   5  13
ATOM     13  N   UNL     1       3.379   5.710  17.406  0.00  0.00    +0.000 N 
ATOM     14  C   UNL     1       4.764   5.753  17.420  0.00  0.00    +0.000 C 
ATOM     15  O   UNL     1       5.449   6.251  18.305  0.00  0.00    +0.000 OA
ATOM     16  H   UNL     1       2.918   5.658  16.507  0.00  0.00    +0.000 HD
BRANCH  14  17
ATOM     17  C   UNL     1       5.432   5.255  16.194  0.00  0.00    +0.000 A 
ATOM     18  C   UNL     1       4.669   4.523  15.271  0.00  0.00    +0.000 A 
ATOM     19  C   UNL     1       5.261   4.047  14.101  0.00  0.00    +0.000 A 
ATOM     20  C   UNL     1       6.605   4.312  13.859  0.00  0.00    +0.000 A 
ATOM     21  F   UNL     1       7.172   3.858  12.735  0.00  0.00    +0.000 F 
ATOM     22  C   UNL     1       7.368   5.046  14.763  0.00  0.00    +0.000 A 
ATOM     23  C   UNL     1       6.784   5.522  15.936  0.00  0.00    +0.000 A 
ENDBRANCH  14  17
ENDBRANCH   5  13
BRANCH   1  24
ATOM     24  S   UNL     1       1.273  10.084  19.011  0.00  0.00    +0.000 S 
ATOM     25  O   UNL     1      -0.146  10.230  18.758  0.00  0.00    +0.000 OA
ATOM     26  O   UNL     1       2.250  10.582  18.065  0.00  0.00    +0.000 OA
BRANCH  24  27
ATOM     27  N   UNL     1       1.651  10.813  20.482  0.00  0.00    +0.000 N 
ATOM     28  H   UNL     1       2.367  10.299  20.989  0.00  0.00    +0.000 HD
BRANCH  27  32
ATOM     29  C   UNL     1      -1.362  12.641  22.801  0.00  0.00    +0.000 A 
ATOM     30  C   UNL     1      -1.149  11.263  22.864  0.00  0.00    +0.000 A 
ATOM     31  C   UNL     1      -0.144  10.663  22.107  0.00  0.00    +0.000 A 
ATOM     32  C   UNL     1       0.633  11.439  21.250  0.00  0.00    +0.000 A 
ATOM     33  C   UNL     1       0.397  12.808  21.139  0.00  0.00    +0.000 A 
ATOM     34  C   UNL     1      -0.593  13.413  21.927  0.00  0.00    +0.000 A 
BRANCH  29  36
ATOM     35  C   UNL     1      -3.645  12.510  23.407  0.00  0.00    +0.000 C 
ATOM     36  O   UNL     1      -2.369  13.102  23.603  0.00  0.00    +0.000 OA
ENDBRANCH  29  36
ENDBRANCH  27  32
ENDBRANCH  24  27
ENDBRANCH   1  24
TORSDOF 7
ENDMDL
MODEL 8
REMARK VINA RESULT:      -7.4      2.321      3.249
REMARK  Name = 
REMARK  8 active torsions:
REMARK  status: ('A' for Active; 'I' for Inactive)
REMARK    1  A    between atoms: C_1  and  O_2
REMARK    2  A    between atoms: O_2  and  C_3
REMARK    3  A    between atoms: C_6  and  N_7
REMARK    4  A    between atoms: N_7  and  S_8
REMARK    5  A    between atoms: S_8  and  C_11
REMARK    6  A    between atoms: C_14  and  N_15
REMARK    7  A    between atoms: C_21  and  N_22
REMARK    8  A    between atoms: C_23  and  C_25
REMARK                            x       y       z     vdW  Elec       q    Type
REMARK                         _______ _______ _______ _____ _____    ______ ____
ROOT
ATOM      1  C   UNL     1       1.374   8.969  19.410  0.00  0.00    +0.000 A 
ATOM      2  C   UNL     1       1.064   8.443  20.660  0.00  0.00    +0.000 A 
ATOM      3  C   UNL     1       1.322   7.084  20.922  0.00  0.00    +0.000 A 
ATOM      4  C   UNL     1       1.903   6.216  19.973  0.00  0.00    +0.000 A 
ATOM      5  C   UNL     1       2.222   6.809  18.721  0.00  0.00    +0.000 A 
ATOM      6  C   UNL     1       1.955   8.158  18.445  0.00  0.00    +0.000 A 
ENDROOT
BRANCH   4   7
ATOM      7  N   UNL     1       2.076   4.867  20.249  0.00  0.00    +0.000 N 
ATOM      8  C   UNL     1       3.348   4.291  20.730  0.00  0.00    +0.000 C 
ATOM      9  C   UNL     1       3.754   3.058  19.912  0.00  0.00    +0.000 C 
ATOM     10  O   UNL     1       2.698   2.094  19.833  0.00  0.00    +0.000 OA
ATOM     11  C   UNL     1       1.541   2.684  19.221  0.00  0.00    +0.000 C 
ATOM     12  C   UNL     1       1.012   3.864  20.054  0.00  0.00    +0.000 C 
ENDBRANCH   4   7
BRANCH   5  13
ATOM     13  N   UNL     1       2.919   6.080  17.735  0.00  0.00    +0.000 N 
ATOM     14  C   UNL     1       4.301   5.986  17.762  0.00  0.00    +0.000 C 
ATOM     15  O   UNL     1       5.028   6.457  18.628  0.00  0.00    +0.000 OA
ATOM     16  H   UNL     1       2.459   6.029  16.835  0.00  0.00    +0.000 HD
BRANCH  14  17
ATOM     17  C   UNL     1       4.923   5.362  16.569  0.00  0.00    +0.000 A 
ATOM     18  C   UNL     1       5.150   3.977  16.584  0.00  0.00    +0.000 A 
ATOM     19  C   UNL     1       5.723   3.354  15.476  0.00  0.00    +0.000 A 
ATOM     20  C   UNL     1       6.058   4.117  14.361  0.00  0.00    +0.000 A 
ATOM     21  F   UNL     1       6.606   3.517  13.296  0.00  0.00    +0.000 F 
ATOM     22  C   UNL     1       5.828   5.489  14.332  0.00  0.00    +0.000 A 
ATOM     23  C   UNL     1       5.257   6.119  15.437  0.00  0.00    +0.000 A 
ENDBRANCH  14  17
ENDBRANCH   5  13
BRANCH   1  24
ATOM     24  S   UNL     1       1.157  10.696  19.049  0.00  0.00    +0.000 S 
ATOM     25  O   UNL     1      -0.139  10.864  18.423  0.00  0.00    +0.000 OA
ATOM     26  O   UNL     1       2.364  11.149  18.387  0.00  0.00    +0.000 OA
BRANCH  24  27
ATOM     27  N   UNL     1       1.149  11.456  20.552  0.00  0.00    +0.000 N 
ATOM     28  H   UNL     1       1.954  11.193  21.116  0.00  0.00    +0.000 HD
BRANCH  27  32
ATOM     29  C   UNL     1      -2.471  12.104  22.619  0.00  0.00    +0.000 A 
ATOM     30  C   UNL     1      -1.558  11.146  23.061  0.00  0.00    +0.000 A 
ATOM     31  C   UNL     1      -0.356  10.943  22.384  0.00  0.00    +0.000 A 
ATOM     32  C   UNL     1      -0.078  11.676  21.233  0.00  0.00    +0.000 A 
ATOM     33  C   UNL     1      -1.003  12.601  20.753  0.00  0.00    +0.000 A 
ATOM     34  C   UNL     1      -2.196  12.826  21.455  0.00  0.00    +0.000 A 
BRANCH  29  36
ATOM     35  C   UNL     1      -3.632  13.292  24.303  0.00  0.00    +0.000 C 
ATOM     36  O   UNL     1      -3.602  12.212  23.380  0.00  0.00    +0.000 OA
ENDBRANCH  29  36
ENDBRANCH  27  32
ENDBRANCH  24  27
ENDBRANCH   1  24
TORSDOF 7
ENDMDL
MODEL 9
REMARK VINA RESULT:      -7.4      2.096      3.022
REMARK  Name = 
REMARK  8 active torsions:
REMARK  status: ('A' for Active; 'I' for Inactive)
REMARK    1  A    between atoms: C_1  and  O_2
REMARK    2  A    between atoms: O_2  and  C_3
REMARK    3  A    between atoms: C_6  and  N_7
REMARK    4  A    between atoms: N_7  and  S_8
REMARK    5  A    between atoms: S_8  and  C_11
REMARK    6  A    between atoms: C_14  and  N_15
REMARK    7  A    between atoms: C_21  and  N_22
REMARK    8  A    between atoms: C_23  and  C_25
REMARK                            x       y       z     vdW  Elec       q    Type
REMARK                         _______ _______ _______ _____ _____    ______ ____
ROOT
ATOM      1  C   UNL     1       1.543   7.902  20.073  0.00  0.00    +0.000 A 
ATOM      2  C   UNL     1       1.147   7.008  21.062  0.00  0.00    +0.000 A 
ATOM      3  C   UNL     1       1.436   5.637  20.913  0.00  0.00    +0.000 A 
ATOM      4  C   UNL     1       2.133   5.117  19.802  0.00  0.00    +0.000 A 
ATOM      5  C   UNL     1       2.536   6.075  18.833  0.00  0.00    +0.000 A 
ATOM      6  C   UNL     1       2.239   7.440  18.964  0.00  0.00    +0.000 A 
ENDROOT
BRANCH   4   7
ATOM      7  N   UNL     1       2.336   3.751  19.662  0.00  0.00    +0.000 N 
ATOM      8  C   UNL     1       3.311   2.987  20.465  0.00  0.00    +0.000 C 
ATOM      9  C   UNL     1       4.204   2.106  19.580  0.00  0.00    +0.000 C 
ATOM     10  O   UNL     1       3.437   1.280  18.696  0.00  0.00    +0.000 OA
ATOM     11  C   UNL     1       2.621   2.100  17.845  0.00  0.00    +0.000 C 
ATOM     12  C   UNL     1       1.620   2.930  18.666  0.00  0.00    +0.000 C 
ENDBRANCH   4   7
BRANCH   5  13
ATOM     13  N   UNL     1       3.346   5.699  17.741  0.00  0.00    +0.000 N 
ATOM     14  C   UNL     1       4.699   5.452  17.909  0.00  0.00    +0.000 C 
ATOM     15  O   UNL     1       5.299   5.482  18.977  0.00  0.00    +0.000 OA
ATOM     16  H   UNL     1       3.036   6.040  16.841  0.00  0.00    +0.000 HD
BRANCH  14  17
ATOM     17  C   UNL     1       5.474   5.259  16.660  0.00  0.00    +0.000 A 
ATOM     18  C   UNL     1       4.875   4.548  15.609  0.00  0.00    +0.000 A 
ATOM     19  C   UNL     1       5.570   4.355  14.415  0.00  0.00    +0.000 A 
ATOM     20  C   UNL     1       6.850   4.880  14.278  0.00  0.00    +0.000 A 
ATOM     21  F   UNL     1       7.516   4.698  13.130  0.00  0.00    +0.000 F 
ATOM     22  C   UNL     1       7.450   5.597  15.310  0.00  0.00    +0.000 A 
ATOM     23  C   UNL     1       6.762   5.791  16.508  0.00  0.00    +0.000 A 
ENDBRANCH  14  17
ENDBRANCH   5  13
BRANCH   1  24
ATOM     24  S   UNL     1       1.288   9.652  20.246  0.00  0.00    +0.000 S 
ATOM     25  O   UNL     1       1.629  10.282  18.987  0.00  0.00    +0.000 OA
ATOM     26  O   UNL     1       1.936  10.058  21.477  0.00  0.00    +0.000 OA
BRANCH  24  27
ATOM     27  N   UNL     1      -0.364   9.825  20.522  0.00  0.00    +0.000 N 
ATOM     28  H   UNL     1      -0.921   9.418  19.775  0.00  0.00    +0.000 HD
BRANCH  27  32
ATOM     29  C   UNL     1      -1.880  13.334  22.308  0.00  0.00    +0.000 A 
ATOM     30  C   UNL     1      -1.616  13.287  20.939  0.00  0.00    +0.000 A 
ATOM     31  C   UNL     1      -1.127  12.122  20.349  0.00  0.00    +0.000 A 
ATOM     32  C   UNL     1      -0.865  11.004  21.137  0.00  0.00    +0.000 A 
ATOM     33  C   UNL     1      -1.076  11.055  22.514  0.00  0.00    +0.000 A 
ATOM     34  C   UNL     1      -1.599  12.218  23.099  0.00  0.00    +0.000 A 
BRANCH  29  36
ATOM     35  C   UNL     1      -2.501  14.662  24.164  0.00  0.00    +0.000 C 
ATOM     36  O   UNL     1      -2.368  14.531  22.756  0.00  0.00    +0.000 OA
ENDBRANCH  29  36
ENDBRANCH  27  32
ENDBRANCH  24  27
ENDBRANCH   1  24
TORSDOF 7
ENDMDL
