MODEL 1
REMARK VINA RESULT:      -6.9      0.000      0.000
REMARK  Name = 
REMARK  8 active torsions:
REMARK  status: ('A' for Active; 'I' for Inactive)
REMARK    1  A    between atoms: C_1  and  O_2
REMARK    2  A    between atoms: O_2  and  C_3
REMARK    3  A    between atoms: C_8  and  C_9
REMARK    4  A    between atoms: C_9  and  N_10
REMARK    5  A    between atoms: C_11  and  C_13
REMARK    6  A    between atoms: C_13  and  O_14
REMARK    7  A    between atoms: O_14  and  C_15
REMARK    8  A    between atoms: C_15  and  C_17
REMARK                            x       y       z     vdW  Elec       q    Type
REMARK                         _______ _______ _______ _____ _____    ______ ____
ROOT
ATOM      1  N   UNL     1       5.047   5.344  18.084  0.00  0.00    +0.000 N 
ATOM      2  C   UNL     1       4.622   6.390  17.295  0.00  0.00    +0.000 C 
ATOM      3  O   UNL     1       3.831   7.250  17.683  0.00  0.00    +0.000 OA
ATOM      4  H   UNL     1       5.696   4.661  17.715  0.00  0.00    +0.000 HD
ENDROOT
BRANCH   1   5
ATOM      5  C   UNL     1       4.605   5.183  19.455  0.00  0.00    +0.000 C 
BRANCH   5  11
ATOM      6  C   UNL     1       2.936   3.255  19.023  0.00  0.00    +0.000 A 
ATOM      7  C   UNL     1       1.657   2.715  19.239  0.00  0.00    +0.000 A 
ATOM      8  C   UNL     1       0.722   3.364  20.038  0.00  0.00    +0.000 A 
ATOM      9  C   UNL     1       1.046   4.572  20.636  0.00  0.00    +0.000 A 
ATOM     10  C   UNL     1       2.302   5.132  20.416  0.00  0.00    +0.000 A 
ATOM     11  C   UNL     1       3.264   4.497  19.605  0.00  0.00    +0.000 A 
BRANCH   6  13
ATOM     12  C   UNL     1       3.895   1.196  18.350  0.00  0.00    +0.000 C 
ATOM     13  O   UNL     1       3.886   2.622  18.258  0.00  0.00    +0.000 OA
ENDBRANCH   6  13
ENDBRANCH   5  11
ENDBRANCH   1   5
BRANCH   2  14
ATOM     14  C   UNL     1       5.243   6.452  15.894  0.00  0.00    +0.000 C 
BRANCH  14  15
ATOM     15  O   UNL     1       6.669   6.393  15.940  0.00  0.00    +0.000 OA
BRANCH  15  16
ATOM     16  C   UNL     1       7.176   5.150  15.765  0.00  0.00    +0.000 C 
ATOM     17  O   UNL     1       7.748   4.485  16.614  0.00  0.00    +0.000 OA
BRANCH  16  18
ATOM     18  C   UNL     1       7.018   4.719  14.361  0.00  0.00    +0.000 A 
ATOM     19  C   UNL     1       7.785   5.262  13.330  0.00  0.00    +0.000 A 
ATOM     20  C   UNL     1       7.555   4.800  12.046  0.00  0.00    +0.000 A 
ATOM     21  N   UNL     1       6.637   3.861  11.739  0.00  0.00    +0.000 NA
ATOM     22  C   UNL     1       5.901   3.362  12.755  0.00  0.00    +0.000 A 
ATOM     23  C   UNL     1       6.050   3.755  14.070  0.00  0.00    +0.000 A 
ENDBRANCH  16  18
ENDBRANCH  15  16
ENDBRANCH  14  15
ENDBRANCH   2  14
TORSDOF 7
ENDMDL
MODEL 2
REMARK VINA RESULT:      -6.9      0.176      1.020
REMARK  Name = 
REMARK  8 active torsions:
REMARK  status: ('A' for Active; 'I' for Inactive)
REMARK    1  A    between atoms: C_1  and  O_2
REMARK    2  A    between atoms: O_2  and  C_3
REMARK    3  A    between atoms: C_8  and  C_9
REMARK    4  A    between atoms: C_9  and  N_10
REMARK    5  A    between atoms: C_11  and  C_13
REMARK    6  A    between atoms: C_13  and  O_14
REMARK    7  A    between atoms: O_14  and  C_15
REMARK    8  A    between atoms: C_15  and  C_17
REMARK                            x       y       z     vdW  Elec       q    Type
REMARK                         _______ _______ _______ _____ _____    ______ ____
ROOT
ATOM      1  N   UNL     1       4.942   5.534  18.069  0.00  0.00    +0.000 N 
ATOM      2  C   UNL     1       4.487   6.535  17.239  0.00  0.00    +0.000 C 
ATOM      3  O   UNL     1       3.655   7.373  17.586  0.00  0.00    +0.000 OA
ATOM      4  H   UNL     1       5.625   4.867  17.733  0.00  0.00    +0.000 HD
ENDROOT
BRANCH   1   5
ATOM      5  C   UNL     1       4.485   5.400  19.438  0.00  0.00    +0.000 C 
BRANCH   5  11
ATOM      6  C   UNL     1       3.014   3.310  19.044  0.00  0.00    +0.000 A 
ATOM      7  C   UNL     1       1.793   2.652  19.268  0.00  0.00    +0.000 A 
ATOM      8  C   UNL     1       0.795   3.224  20.050  0.00  0.00    +0.000 A 
ATOM      9  C   UNL     1       0.996   4.470  20.623  0.00  0.00    +0.000 A 
ATOM     10  C   UNL     1       2.193   5.146  20.394  0.00  0.00    +0.000 A 
ATOM     11  C   UNL     1       3.217   4.590  19.600  0.00  0.00    +0.000 A 
BRANCH   6  13
ATOM     12  C   UNL     1       3.937   1.344  18.097  0.00  0.00    +0.000 C 
ATOM     13  O   UNL     1       4.026   2.756  18.295  0.00  0.00    +0.000 OA
ENDBRANCH   6  13
ENDBRANCH   5  11
ENDBRANCH   1   5
BRANCH   2  14
ATOM     14  C   UNL     1       5.127   6.576  15.846  0.00  0.00    +0.000 C 
BRANCH  14  15
ATOM     15  O   UNL     1       6.550   6.463  15.910  0.00  0.00    +0.000 OA
BRANCH  15  16
ATOM     16  C   UNL     1       7.009   5.194  15.809  0.00  0.00    +0.000 C 
ATOM     17  O   UNL     1       7.504   4.538  16.712  0.00  0.00    +0.000 OA
BRANCH  16  18
ATOM     18  C   UNL     1       6.906   4.715  14.415  0.00  0.00    +0.000 A 
ATOM     19  C   UNL     1       6.026   3.698  14.046  0.00  0.00    +0.000 A 
ATOM     20  C   UNL     1       6.011   3.311  12.717  0.00  0.00    +0.000 A 
ATOM     21  N   UNL     1       6.796   3.861  11.767  0.00  0.00    +0.000 NA
ATOM     22  C   UNL     1       7.646   4.835  12.155  0.00  0.00    +0.000 A 
ATOM     23  C   UNL     1       7.741   5.292  13.455  0.00  0.00    +0.000 A 
ENDBRANCH  16  18
ENDBRANCH  15  16
ENDBRANCH  14  15
ENDBRANCH   2  14
TORSDOF 7
ENDMDL
MODEL 3
REMARK VINA RESULT:      -6.9      2.697      6.387
REMARK  Name = 
REMARK  8 active torsions:
REMARK  status: ('A' for Active; 'I' for Inactive)
REMARK    1  A    between atoms: C_1  and  O_2
REMARK    2  A    between atoms: O_2  and  C_3
REMARK    3  A    between atoms: C_8  and  C_9
REMARK    4  A    between atoms: C_9  and  N_10
REMARK    5  A    between atoms: C_11  and  C_13
REMARK    6  A    between atoms: C_13  and  O_14
REMARK    7  A    between atoms: O_14  and  C_15
REMARK    8  A    between atoms: C_15  and  C_17
REMARK                            x       y       z     vdW  Elec       q    Type
REMARK                         _______ _______ _______ _____ _____    ______ ____
ROOT
ATOM      1  N   UNL     1       3.027   6.009  18.865  0.00  0.00    +0.000 N 
ATOM      2  C   UNL     1       2.237   6.612  19.819  0.00  0.00    +0.000 C 
ATOM      3  O   UNL     1       2.085   7.832  19.896  0.00  0.00    +0.000 OA
ATOM      4  H   UNL     1       3.121   5.001  18.848  0.00  0.00    +0.000 HD
ENDROOT
BRANCH   1   5
ATOM      5  C   UNL     1       3.732   6.770  17.854  0.00  0.00    +0.000 C 
BRANCH   5  11
ATOM      6  C   UNL     1       6.143   6.478  16.963  0.00  0.00    +0.000 A 
ATOM      7  C   UNL     1       7.075   5.671  16.289  0.00  0.00    +0.000 A 
ATOM      8  C   UNL     1       6.735   4.405  15.824  0.00  0.00    +0.000 A 
ATOM      9  C   UNL     1       5.452   3.920  16.020  0.00  0.00    +0.000 A 
ATOM     10  C   UNL     1       4.509   4.715  16.668  0.00  0.00    +0.000 A 
ATOM     11  C   UNL     1       4.827   6.003  17.143  0.00  0.00    +0.000 A 
BRANCH   6  13
ATOM     12  C   UNL     1       7.854   7.963  17.656  0.00  0.00    +0.000 C 
ATOM     13  O   UNL     1       6.460   7.722  17.454  0.00  0.00    +0.000 OA
ENDBRANCH   6  13
ENDBRANCH   5  11
ENDBRANCH   1   5
BRANCH   2  14
ATOM     14  C   UNL     1       1.503   5.656  20.768  0.00  0.00    +0.000 C 
BRANCH  14  15
ATOM     15  O   UNL     1       2.405   4.769  21.433  0.00  0.00    +0.000 OA
BRANCH  15  16
ATOM     16  C   UNL     1       2.024   3.471  21.406  0.00  0.00    +0.000 C 
ATOM     17  O   UNL     1       1.408   2.887  22.283  0.00  0.00    +0.000 OA
BRANCH  16  18
ATOM     18  C   UNL     1       2.529   2.809  20.185  0.00  0.00    +0.000 A 
ATOM     19  C   UNL     1       1.708   2.565  19.083  0.00  0.00    +0.000 A 
ATOM     20  C   UNL     1       2.271   1.929  17.991  0.00  0.00    +0.000 A 
ATOM     21  N   UNL     1       3.561   1.535  17.934  0.00  0.00    +0.000 NA
ATOM     22  C   UNL     1       4.327   1.773  19.019  0.00  0.00    +0.000 A 
ATOM     23  C   UNL     1       3.864   2.398  20.159  0.00  0.00    +0.000 A 
ENDBRANCH  16  18
ENDBRANCH  15  16
ENDBRANCH  14  15
ENDBRANCH   2  14
TORSDOF 7
ENDMDL
MODEL 4
REMARK VINA RESULT:      -6.8      1.512      2.433
REMARK  Name = 
REMARK  8 active torsions:
REMARK  status: ('A' for Active; 'I' for Inactive)
REMARK    1  A    between atoms: C_1  and  O_2
REMARK    2  A    between atoms: O_2  and  C_3
REMARK    3  A    between atoms: C_8  and  C_9
REMARK    4  A    between atoms: C_9  and  N_10
REMARK    5  A    between atoms: C_11  and  C_13
REMARK    6  A    between atoms: C_13  and  O_14
REMARK    7  A    between atoms: O_14  and  C_15
REMARK    8  A    between atoms: C_15  and  C_17
REMARK                            x       y       z     vdW  Elec       q    Type
REMARK                         _______ _______ _______ _____ _____    ______ ____
ROOT
ATOM      1  N   UNL     1       5.723   4.609  18.561  0.00  0.00    +0.000 N 
ATOM      2  C   UNL     1       6.798   5.406  18.889  0.00  0.00    +0.000 C 
ATOM      3  O   UNL     1       7.341   5.385  19.994  0.00  0.00    +0.000 OA
ATOM      4  H   UNL     1       5.311   4.668  17.638  0.00  0.00    +0.000 HD
ENDROOT
BRANCH   1   5
ATOM      5  C   UNL     1       5.154   3.659  19.495  0.00  0.00    +0.000 C 
BRANCH   5  11
ATOM      6  C   UNL     1       2.698   4.471  19.502  0.00  0.00    +0.000 A 
ATOM      7  C   UNL     1       1.339   4.158  19.335  0.00  0.00    +0.000 A 
ATOM      8  C   UNL     1       0.928   2.874  18.993  0.00  0.00    +0.000 A 
ATOM      9  C   UNL     1       1.870   1.873  18.812  0.00  0.00    +0.000 A 
ATOM     10  C   UNL     1       3.221   2.161  18.994  0.00  0.00    +0.000 A 
ATOM     11  C   UNL     1       3.662   3.452  19.348  0.00  0.00    +0.000 A 
BRANCH   6  13
ATOM     12  C   UNL     1       2.788   6.753  18.874  0.00  0.00    +0.000 C 
ATOM     13  O   UNL     1       3.132   5.737  19.817  0.00  0.00    +0.000 OA
ENDBRANCH   6  13
ENDBRANCH   5  11
ENDBRANCH   1   5
BRANCH   2  14
ATOM     14  C   UNL     1       7.322   6.303  17.760  0.00  0.00    +0.000 C 
BRANCH  14  15
ATOM     15  O   UNL     1       7.394   5.605  16.515  0.00  0.00    +0.000 OA
BRANCH  15  16
ATOM     16  C   UNL     1       6.357   5.853  15.682  0.00  0.00    +0.000 C 
ATOM     17  O   UNL     1       5.393   6.559  15.930  0.00  0.00    +0.000 OA
BRANCH  16  18
ATOM     18  C   UNL     1       6.502   5.081  14.430  0.00  0.00    +0.000 A 
ATOM     19  C   UNL     1       7.570   5.283  13.556  0.00  0.00    +0.000 A 
ATOM     20  C   UNL     1       7.612   4.518  12.404  0.00  0.00    +0.000 A 
ATOM     21  N   UNL     1       6.682   3.594  12.083  0.00  0.00    +0.000 NA
ATOM     22  C   UNL     1       5.654   3.429  12.941  0.00  0.00    +0.000 A 
ATOM     23  C   UNL     1       5.517   4.142  14.115  0.00  0.00    +0.000 A 
ENDBRANCH  16  18
ENDBRANCH  15  16
ENDBRANCH  14  15
ENDBRANCH   2  14
TORSDOF 7
ENDMDL
MODEL 5
REMARK VINA RESULT:      -6.8      2.638      6.389
REMARK  Name = 
REMARK  8 active torsions:
REMARK  status: ('A' for Active; 'I' for Inactive)
REMARK    1  A    between atoms: C_1  and  O_2
REMARK    2  A    between atoms: O_2  and  C_3
REMARK    3  A    between atoms: C_8  and  C_9
REMARK    4  A    between atoms: C_9  and  N_10
REMARK    5  A    between atoms: C_11  and  C_13
REMARK    6  A    between atoms: C_13  and  O_14
REMARK    7  A    between atoms: O_14  and  C_15
REMARK    8  A    between atoms: C_15  and  C_17
REMARK                            x       y       z     vdW  Elec       q    Type
REMARK                         _______ _______ _______ _____ _____    ______ ____
ROOT
ATOM      1  N   UNL     1       3.255   5.944  18.931  0.00  0.00    +0.000 N 
ATOM      2  C   UNL     1       2.399   6.561  19.816  0.00  0.00    +0.000 C 
ATOM      3  O   UNL     1       1.965   7.702  19.651  0.00  0.00    +0.000 OA
ATOM      4  H   UNL     1       3.585   5.005  19.115  0.00  0.00    +0.000 HD
ENDROOT
BRANCH   1   5
ATOM      5  C   UNL     1       3.702   6.590  17.713  0.00  0.00    +0.000 C 
BRANCH   5  11
ATOM      6  C   UNL     1       6.183   6.402  17.006  0.00  0.00    +0.000 A 
ATOM      7  C   UNL     1       7.181   5.669  16.341  0.00  0.00    +0.000 A 
ATOM      8  C   UNL     1       6.901   4.449  15.735  0.00  0.00    +0.000 A 
ATOM      9  C   UNL     1       5.614   3.937  15.776  0.00  0.00    +0.000 A 
ATOM     10  C   UNL     1       4.607   4.661  16.413  0.00  0.00    +0.000 A 
ATOM     11  C   UNL     1       4.864   5.902  17.029  0.00  0.00    +0.000 A 
BRANCH   6  13
ATOM     12  C   UNL     1       7.798   8.034  17.590  0.00  0.00    +0.000 C 
ATOM     13  O   UNL     1       6.438   7.598  17.634  0.00  0.00    +0.000 OA
ENDBRANCH   6  13
ENDBRANCH   5  11
ENDBRANCH   1   5
BRANCH   2  14
ATOM     14  C   UNL     1       1.967   5.710  21.016  0.00  0.00    +0.000 C 
BRANCH  14  15
ATOM     15  O   UNL     1       1.029   4.699  20.643  0.00  0.00    +0.000 OA
BRANCH  15  16
ATOM     16  C   UNL     1       1.390   3.447  21.009  0.00  0.00    +0.000 C 
ATOM     17  O   UNL     1       1.144   2.916  22.079  0.00  0.00    +0.000 OA
BRANCH  16  18
ATOM     18  C   UNL     1       2.210   2.816  19.954  0.00  0.00    +0.000 A 
ATOM     19  C   UNL     1       3.532   2.428  20.178  0.00  0.00    +0.000 A 
ATOM     20  C   UNL     1       4.221   1.855  19.125  0.00  0.00    +0.000 A 
ATOM     21  N   UNL     1       3.688   1.652  17.901  0.00  0.00    +0.000 NA
ATOM     22  C   UNL     1       2.412   2.048  17.710  0.00  0.00    +0.000 A 
ATOM     23  C   UNL     1       1.638   2.631  18.693  0.00  0.00    +0.000 A 
ENDBRANCH  16  18
ENDBRANCH  15  16
ENDBRANCH  14  15
ENDBRANCH   2  14
TORSDOF 7
ENDMDL
MODEL 6
REMARK VINA RESULT:      -6.8      1.530      1.894
REMARK  Name = 
REMARK  8 active torsions:
REMARK  status: ('A' for Active; 'I' for Inactive)
REMARK    1  A    between atoms: C_1  and  O_2
REMARK    2  A    between atoms: O_2  and  C_3
REMARK    3  A    between atoms: C_8  and  C_9
REMARK    4  A    between atoms: C_9  and  N_10
REMARK    5  A    between atoms: C_11  and  C_13
REMARK    6  A    between atoms: C_13  and  O_14
REMARK    7  A    between atoms: O_14  and  C_15
REMARK    8  A    between atoms: C_15  and  C_17
REMARK                            x       y       z     vdW  Elec       q    Type
REMARK                         _______ _______ _______ _____ _____    ______ ____
ROOT
ATOM      1  N   UNL     1       5.518   3.219  19.061  0.00  0.00    +0.000 N 
ATOM      2  C   UNL     1       5.650   4.590  19.035  0.00  0.00    +0.000 C 
ATOM      3  O   UNL     1       5.155   5.331  19.885  0.00  0.00    +0.000 OA
ATOM      4  H   UNL     1       5.942   2.654  18.335  0.00  0.00    +0.000 HD
ENDROOT
BRANCH   1   5
ATOM      5  C   UNL     1       4.796   2.533  20.113  0.00  0.00    +0.000 C 
BRANCH   5  11
ATOM      6  C   UNL     1       2.521   2.698  18.893  0.00  0.00    +0.000 A 
ATOM      7  C   UNL     1       1.131   2.885  18.982  0.00  0.00    +0.000 A 
ATOM      8  C   UNL     1       0.502   3.066  20.209  0.00  0.00    +0.000 A 
ATOM      9  C   UNL     1       1.251   3.067  21.376  0.00  0.00    +0.000 A 
ATOM     10  C   UNL     1       2.633   2.903  21.304  0.00  0.00    +0.000 A 
ATOM     11  C   UNL     1       3.295   2.726  20.072  0.00  0.00    +0.000 A 
BRANCH   6  13
ATOM     12  C   UNL     1       2.918   3.481  16.693  0.00  0.00    +0.000 C 
ATOM     13  O   UNL     1       3.164   2.494  17.696  0.00  0.00    +0.000 OA
ENDBRANCH   6  13
ENDBRANCH   5  11
ENDBRANCH   1   5
BRANCH   2  14
ATOM     14  C   UNL     1       6.507   5.148  17.892  0.00  0.00    +0.000 C 
BRANCH  14  15
ATOM     15  O   UNL     1       6.205   4.521  16.645  0.00  0.00    +0.000 OA
BRANCH  15  16
ATOM     16  C   UNL     1       5.904   5.388  15.650  0.00  0.00    +0.000 C 
ATOM     17  O   UNL     1       5.342   6.463  15.783  0.00  0.00    +0.000 OA
BRANCH  16  18
ATOM     18  C   UNL     1       6.279   4.821  14.338  0.00  0.00    +0.000 A 
ATOM     19  C   UNL     1       7.437   5.215  13.666  0.00  0.00    +0.000 A 
ATOM     20  C   UNL     1       7.696   4.634  12.437  0.00  0.00    +0.000 A 
ATOM     21  N   UNL     1       6.896   3.715  11.857  0.00  0.00    +0.000 NA
ATOM     22  C   UNL     1       5.777   3.363  12.525  0.00  0.00    +0.000 A 
ATOM     23  C   UNL     1       5.425   3.883  13.754  0.00  0.00    +0.000 A 
ENDBRANCH  16  18
ENDBRANCH  15  16
ENDBRANCH  14  15
ENDBRANCH   2  14
TORSDOF 7
ENDMDL
MODEL 7
REMARK VINA RESULT:      -6.8      2.957      5.114
REMARK  Name = 
REMARK  8 active torsions:
REMARK  status: ('A' for Active; 'I' for Inactive)
REMARK    1  A    between atoms: C_1  and  O_2
REMARK    2  A    between atoms: O_2  and  C_3
REMARK    3  A    between atoms: C_8  and  C_9
REMARK    4  A    between atoms: C_9  and  N_10
REMARK    5  A    between atoms: C_11  and  C_13
REMARK    6  A    between atoms: C_13  and  O_14
REMARK    7  A    between atoms: O_14  and  C_15
REMARK    8  A    between atoms: C_15  and  C_17
REMARK                            x       y       z     vdW  Elec       q    Type
REMARK                         _______ _______ _______ _____ _____    ______ ____
ROOT
ATOM      1  N   UNL     1       3.242   5.501  20.092  0.00  0.00    +0.000 N 
ATOM      2  C   UNL     1       3.248   4.124  20.091  0.00  0.00    +0.000 C 
ATOM      3  O   UNL     1       2.337   3.445  20.566  0.00  0.00    +0.000 OA
ATOM      4  H   UNL     1       4.018   6.013  19.691  0.00  0.00    +0.000 HD
ENDROOT
BRANCH   1   5
ATOM      5  C   UNL     1       2.140   6.267  20.640  0.00  0.00    +0.000 C 
BRANCH   5  11
ATOM      6  C   UNL     1       1.236   8.687  20.504  0.00  0.00    +0.000 A 
ATOM      7  C   UNL     1       1.031   9.841  19.729  0.00  0.00    +0.000 A 
ATOM      8  C   UNL     1       1.456   9.910  18.407  0.00  0.00    +0.000 A 
ATOM      9  C   UNL     1       2.093   8.823  17.828  0.00  0.00    +0.000 A 
ATOM     10  C   UNL     1       2.285   7.663  18.575  0.00  0.00    +0.000 A 
ATOM     11  C   UNL     1       1.858   7.566  19.915  0.00  0.00    +0.000 A 
BRANCH   6  13
ATOM     12  C   UNL     1      -0.360   9.291  22.147  0.00  0.00    +0.000 C 
ATOM     13  O   UNL     1       0.848   8.601  21.820  0.00  0.00    +0.000 OA
ENDBRANCH   6  13
ENDBRANCH   5  11
ENDBRANCH   1   5
BRANCH   2  14
ATOM     14  C   UNL     1       4.455   3.471  19.406  0.00  0.00    +0.000 C 
BRANCH  14  15
ATOM     15  O   UNL     1       4.068   2.698  18.269  0.00  0.00    +0.000 OA
BRANCH  15  16
ATOM     16  C   UNL     1       3.558   3.428  17.251  0.00  0.00    +0.000 C 
ATOM     17  O   UNL     1       2.403   3.396  16.856  0.00  0.00    +0.000 OA
BRANCH  16  18
ATOM     18  C   UNL     1       4.617   4.233  16.608  0.00  0.00    +0.000 A 
ATOM     19  C   UNL     1       5.681   3.644  15.924  0.00  0.00    +0.000 A 
ATOM     20  C   UNL     1       6.629   4.483  15.366  0.00  0.00    +0.000 A 
ATOM     21  N   UNL     1       6.581   5.829  15.446  0.00  0.00    +0.000 NA
ATOM     22  C   UNL     1       5.548   6.370  16.124  0.00  0.00    +0.000 A 
ATOM     23  C   UNL     1       4.550   5.624  16.720  0.00  0.00    +0.000 A 
ENDBRANCH  16  18
ENDBRANCH  15  16
ENDBRANCH  14  15
ENDBRANCH   2  14
TORSDOF 7
ENDMDL
MODEL 8
REMARK VINA RESULT:      -6.8      2.466      4.563
REMARK  Name = 
REMARK  8 active torsions:
REMARK  status: ('A' for Active; 'I' for Inactive)
REMARK    1  A    between atoms: C_1  and  O_2
REMARK    2  A    between atoms: O_2  and  C_3
REMARK    3  A    between atoms: C_8  and  C_9
REMARK    4  A    between atoms: C_9  and  N_10
REMARK    5  A    between atoms: C_11  and  C_13
REMARK    6  A    between atoms: C_13  and  O_14
REMARK    7  A    between atoms: O_14  and  C_15
REMARK    8  A    between atoms: C_15  and  C_17
REMARK                            x       y       z     vdW  Elec       q    Type
REMARK                         _______ _______ _______ _____ _____    ______ ____
ROOT
ATOM      1  N   UNL     1       4.973   3.241  17.573  0.00  0.00    +0.000 N 
ATOM      2  C   UNL     1       5.328   3.844  16.387  0.00  0.00    +0.000 C 
ATOM      3  O   UNL     1       4.743   3.637  15.324  0.00  0.00    +0.000 OA
ATOM      4  H   UNL     1       5.489   3.443  18.420  0.00  0.00    +0.000 HD
ENDROOT
BRANCH   1   5
ATOM      5  C   UNL     1       3.858   2.320  17.667  0.00  0.00    +0.000 C 
BRANCH   5  11
ATOM      6  C   UNL     1       3.453   2.570  20.209  0.00  0.00    +0.000 A 
ATOM      7  C   UNL     1       2.537   2.768  21.256  0.00  0.00    +0.000 A 
ATOM      8  C   UNL     1       1.181   2.950  21.008  0.00  0.00    +0.000 A 
ATOM      9  C   UNL     1       0.709   2.932  19.704  0.00  0.00    +0.000 A 
ATOM     10  C   UNL     1       1.600   2.716  18.655  0.00  0.00    +0.000 A 
ATOM     11  C   UNL     1       2.978   2.522  18.882  0.00  0.00    +0.000 A 
BRANCH   6  13
ATOM     12  C   UNL     1       5.188   1.151  20.976  0.00  0.00    +0.000 C 
ATOM     13  O   UNL     1       4.801   2.412  20.426  0.00  0.00    +0.000 OA
ENDBRANCH   6  13
ENDBRANCH   5  11
ENDBRANCH   1   5
BRANCH   2  14
ATOM     14  C   UNL     1       6.484   4.848  16.479  0.00  0.00    +0.000 C 
BRANCH  14  15
ATOM     15  O   UNL     1       6.107   6.032  17.184  0.00  0.00    +0.000 OA
BRANCH  15  16
ATOM     16  C   UNL     1       5.071   6.700  16.626  0.00  0.00    +0.000 C 
ATOM     17  O   UNL     1       5.019   7.113  15.479  0.00  0.00    +0.000 OA
BRANCH  16  18
ATOM     18  C   UNL     1       4.013   6.944  17.629  0.00  0.00    +0.000 A 
ATOM     19  C   UNL     1       3.156   8.042  17.547  0.00  0.00    +0.000 A 
ATOM     20  C   UNL     1       2.204   8.190  18.540  0.00  0.00    +0.000 A 
ATOM     21  N   UNL     1       2.061   7.337  19.576  0.00  0.00    +0.000 NA
ATOM     22  C   UNL     1       2.912   6.290  19.636  0.00  0.00    +0.000 A 
ATOM     23  C   UNL     1       3.897   6.052  18.698  0.00  0.00    +0.000 A 
ENDBRANCH  16  18
ENDBRANCH  15  16
ENDBRANCH  14  15
ENDBRANCH   2  14
TORSDOF 7
ENDMDL
MODEL 9
REMARK VINA RESULT:      -6.7      2.849      5.226
REMARK  Name = 
REMARK  8 active torsions:
REMARK  status: ('A' for Active; 'I' for Inactive)
REMARK    1  A    between atoms: C_1  and  O_2
REMARK    2  A    between atoms: O_2  and  C_3
REMARK    3  A    between atoms: C_8  and  C_9
REMARK    4  A    between atoms: C_9  and  N_10
REMARK    5  A    between atoms: C_11  and  C_13
REMARK    6  A    between atoms: C_13  and  O_14
REMARK    7  A    between atoms: O_14  and  C_15
REMARK    8  A    between atoms: C_15  and  C_17
REMARK                            x       y       z     vdW  Elec       q    Type
REMARK                         _______ _______ _______ _____ _____    ______ ____
ROOT
ATOM      1  N   UNL     1       2.439   4.684  19.788  0.00  0.00    +0.000 N 
ATOM      2  C   UNL     1       2.499   3.428  20.350  0.00  0.00    +0.000 C 
ATOM      3  O   UNL     1       2.408   3.226  21.561  0.00  0.00    +0.000 OA
ATOM      4  H   UNL     1       2.523   4.796  18.785  0.00  0.00    +0.000 HD
ENDROOT
BRANCH   1   5
ATOM      5  C   UNL     1       2.240   5.877  20.586  0.00  0.00    +0.000 C 
BRANCH   5  11
ATOM      6  C   UNL     1       1.381   8.294  20.256  0.00  0.00    +0.000 A 
ATOM      7  C   UNL     1       1.265   9.414  19.415  0.00  0.00    +0.000 A 
ATOM      8  C   UNL     1       1.818   9.421  18.138  0.00  0.00    +0.000 A 
ATOM      9  C   UNL     1       2.495   8.306  17.673  0.00  0.00    +0.000 A 
ATOM     10  C   UNL     1       2.601   7.179  18.486  0.00  0.00    +0.000 A 
ATOM     11  C   UNL     1       2.044   7.144  19.780  0.00  0.00    +0.000 A 
BRANCH   6  13
ATOM     12  C   UNL     1       0.823   9.533  22.197  0.00  0.00    +0.000 C 
ATOM     13  O   UNL     1       0.865   8.270  21.530  0.00  0.00    +0.000 OA
ENDBRANCH   6  13
ENDBRANCH   5  11
ENDBRANCH   1   5
BRANCH   2  14
ATOM     14  C   UNL     1       2.639   2.268  19.357  0.00  0.00    +0.000 C 
BRANCH  14  15
ATOM     15  O   UNL     1       3.808   2.398  18.546  0.00  0.00    +0.000 OA
BRANCH  15  16
ATOM     16  C   UNL     1       3.653   3.219  17.482  0.00  0.00    +0.000 C 
ATOM     17  O   UNL     1       2.623   3.384  16.849  0.00  0.00    +0.000 OA
BRANCH  16  18
ATOM     18  C   UNL     1       4.941   3.849  17.122  0.00  0.00    +0.000 A 
ATOM     19  C   UNL     1       5.398   3.896  15.804  0.00  0.00    +0.000 A 
ATOM     20  C   UNL     1       6.621   4.498  15.569  0.00  0.00    +0.000 A 
ATOM     21  N   UNL     1       7.391   5.037  16.538  0.00  0.00    +0.000 NA
ATOM     22  C   UNL     1       6.929   4.966  17.804  0.00  0.00    +0.000 A 
ATOM     23  C   UNL     1       5.723   4.387  18.146  0.00  0.00    +0.000 A 
ENDBRANCH  16  18
ENDBRANCH  15  16
ENDBRANCH  14  15
ENDBRANCH   2  14
TORSDOF 7
ENDMDL
