MODEL 1
REMARK VINA RESULT:      -7.9      0.000      0.000
REMARK  Name = 
REMARK  9 active torsions:
REMARK  status: ('A' for Active; 'I' for Inactive)
REMARK    1  A    between atoms: C_1  and  C_2
REMARK    2  A    between atoms: C_2  and  C_3
REMARK    3  A    between atoms: C_2  and  N_15
REMARK    4  A    between atoms: N_5  and  C_6
REMARK    5  A    between atoms: C_6  and  C_7
REMARK    6  A    between atoms: C_7  and  C_8
REMARK    7  A    between atoms: C_8  and  N_9
REMARK    8  A    between atoms: C_19  and  C_20
REMARK    9  A    between atoms: C_20  and  C_22
REMARK                            x       y       z     vdW  Elec       q    Type
REMARK                         _______ _______ _______ _____ _____    ______ ____
ROOT
ATOM      1  C   UNL     1       8.123   5.457  19.006  0.00  0.00    +0.000 C 
ATOM      2  C   UNL     1       6.980   6.207  18.312  0.00  0.00    +0.000 C 
ENDROOT
BRANCH   2   3
ATOM      3  N   UNL     1       6.359   5.392  17.254  0.00  0.00    +0.000 N 
ATOM      4  C   UNL     1       7.055   4.534  16.426  0.00  0.00    +0.000 A 
ATOM      5  C   UNL     1       6.164   3.801  15.689  0.00  0.00    +0.000 A 
ATOM      6  C   UNL     1       4.880   4.218  16.072  0.00  0.00    +0.000 A 
ATOM      7  C   UNL     1       4.997   5.259  16.993  0.00  0.00    +0.000 A 
BRANCH   7   8
ATOM      8  C   UNL     1       3.892   6.002  17.603  0.00  0.00    +0.000 C 
ATOM      9  O   UNL     1       3.700   7.197  17.429  0.00  0.00    +0.000 OA
BRANCH   8  10
ATOM     10  C   UNL     1       2.976   5.264  18.537  0.00  0.00    +0.000 A 
ATOM     11  C   UNL     1       1.950   4.444  18.048  0.00  0.00    +0.000 A 
ATOM     12  C   UNL     1       1.167   3.691  18.926  0.00  0.00    +0.000 A 
ATOM     13  C   UNL     1       1.386   3.778  20.298  0.00  0.00    +0.000 A 
ATOM     14  C   UNL     1       2.370   4.633  20.798  0.00  0.00    +0.000 A 
ATOM     15  C   UNL     1       3.161   5.381  19.920  0.00  0.00    +0.000 A 
ENDBRANCH   8  10
ENDBRANCH   7   8
ENDBRANCH   2   3
BRANCH   2  16
ATOM     16  C   UNL     1       7.431   7.593  17.842  0.00  0.00    +0.000 C 
ATOM     17  O   UNL     1       6.949   8.130  16.846  0.00  0.00    +0.000 OA
ATOM     18  N   UNL     1       8.354   8.247  18.632  0.00  0.00    +0.000 N 
ATOM     19  H   UNL     1       8.766   7.783  19.425  0.00  0.00    +0.000 HD
BRANCH  18  20
ATOM     20  C   UNL     1       8.800   9.586  18.318  0.00  0.00    +0.000 C 
BRANCH  20  21
ATOM     21  C   UNL     1       9.374  10.274  19.550  0.00  0.00    +0.000 C 
BRANCH  21  22
ATOM     22  C   UNL     1      10.526  11.196  19.150  0.00  0.00    +0.000 C 
BRANCH  22  23
ATOM     23  N   UNL     1      10.088  12.385  18.402  0.00  0.00    +0.000 NA
ATOM     24  C   UNL     1      11.076  12.866  17.410  0.00  0.00    +0.000 C 
ATOM     25  C   UNL     1      12.333  13.487  18.041  0.00  0.00    +0.000 C 
ATOM     26  O   UNL     1      11.992  14.572  18.912  0.00  0.00    +0.000 OA
ATOM     27  C   UNL     1      11.080  14.144  19.933  0.00  0.00    +0.000 C 
ATOM     28  C   UNL     1       9.811  13.509  19.331  0.00  0.00    +0.000 C 
ENDBRANCH  22  23
ENDBRANCH  21  22
ENDBRANCH  20  21
ENDBRANCH  18  20
ENDBRANCH   2  16
TORSDOF 8
ENDMDL
MODEL 2
REMARK VINA RESULT:      -7.8      0.731      1.152
REMARK  Name = 
REMARK  9 active torsions:
REMARK  status: ('A' for Active; 'I' for Inactive)
REMARK    1  A    between atoms: C_1  and  C_2
REMARK    2  A    between atoms: C_2  and  C_3
REMARK    3  A    between atoms: C_2  and  N_15
REMARK    4  A    between atoms: N_5  and  C_6
REMARK    5  A    between atoms: C_6  and  C_7
REMARK    6  A    between atoms: C_7  and  C_8
REMARK    7  A    between atoms: C_8  and  N_9
REMARK    8  A    between atoms: C_19  and  C_20
REMARK    9  A    between atoms: C_20  and  C_22
REMARK                            x       y       z     vdW  Elec       q    Type
REMARK                         _______ _______ _______ _____ _____    ______ ____
ROOT
ATOM      1  C   UNL     1       8.164   5.439  19.128  0.00  0.00    +0.000 C 
ATOM      2  C   UNL     1       7.045   6.202  18.412  0.00  0.00    +0.000 C 
ENDROOT
BRANCH   2   3
ATOM      3  N   UNL     1       6.422   5.387  17.354  0.00  0.00    +0.000 N 
ATOM      4  C   UNL     1       7.106   4.478  16.571  0.00  0.00    +0.000 A 
ATOM      5  C   UNL     1       6.207   3.765  15.824  0.00  0.00    +0.000 A 
ATOM      6  C   UNL     1       4.931   4.247  16.155  0.00  0.00    +0.000 A 
ATOM      7  C   UNL     1       5.065   5.306  17.053  0.00  0.00    +0.000 A 
BRANCH   7   8
ATOM      8  C   UNL     1       3.975   6.111  17.608  0.00  0.00    +0.000 C 
ATOM      9  O   UNL     1       3.878   7.320  17.456  0.00  0.00    +0.000 OA
BRANCH   8  10
ATOM     10  C   UNL     1       2.948   5.419  18.458  0.00  0.00    +0.000 A 
ATOM     11  C   UNL     1       2.234   4.312  17.976  0.00  0.00    +0.000 A 
ATOM     12  C   UNL     1       1.352   3.622  18.809  0.00  0.00    +0.000 A 
ATOM     13  C   UNL     1       1.155   4.052  20.118  0.00  0.00    +0.000 A 
ATOM     14  C   UNL     1       1.820   5.186  20.591  0.00  0.00    +0.000 A 
ATOM     15  C   UNL     1       2.711   5.873  19.761  0.00  0.00    +0.000 A 
ENDBRANCH   8  10
ENDBRANCH   7   8
ENDBRANCH   2   3
BRANCH   2  16
ATOM     16  C   UNL     1       7.528   7.574  17.933  0.00  0.00    +0.000 C 
ATOM     17  O   UNL     1       7.093   8.093  16.905  0.00  0.00    +0.000 OA
ATOM     18  N   UNL     1       8.423   8.237  18.747  0.00  0.00    +0.000 N 
ATOM     19  H   UNL     1       8.796   7.787  19.566  0.00  0.00    +0.000 HD
BRANCH  18  20
ATOM     20  C   UNL     1       8.893   9.565  18.425  0.00  0.00    +0.000 C 
BRANCH  20  21
ATOM     21  C   UNL     1       9.347  10.304  19.678  0.00  0.00    +0.000 C 
BRANCH  21  22
ATOM     22  C   UNL     1      10.497  11.254  19.342  0.00  0.00    +0.000 C 
BRANCH  22  23
ATOM     23  N   UNL     1      10.318  12.604  19.897  0.00  0.00    +0.000 NA
ATOM     24  C   UNL     1       9.046  13.251  19.504  0.00  0.00    +0.000 C 
ATOM     25  C   UNL     1       8.984  13.643  18.019  0.00  0.00    +0.000 C 
ATOM     26  O   UNL     1      10.068  14.513  17.670  0.00  0.00    +0.000 OA
ATOM     27  C   UNL     1      11.332  13.908  17.975  0.00  0.00    +0.000 C 
ATOM     28  C   UNL     1      11.421  13.496  19.457  0.00  0.00    +0.000 C 
ENDBRANCH  22  23
ENDBRANCH  21  22
ENDBRANCH  20  21
ENDBRANCH  18  20
ENDBRANCH   2  16
TORSDOF 8
ENDMDL
MODEL 3
REMARK VINA RESULT:      -7.8      0.940      1.253
REMARK  Name = 
REMARK  9 active torsions:
REMARK  status: ('A' for Active; 'I' for Inactive)
REMARK    1  A    between atoms: C_1  and  C_2
REMARK    2  A    between atoms: C_2  and  C_3
REMARK    3  A    between atoms: C_2  and  N_15
REMARK    4  A    between atoms: N_5  and  C_6
REMARK    5  A    between atoms: C_6  and  C_7
REMARK    6  A    between atoms: C_7  and  C_8
REMARK    7  A    between atoms: C_8  and  N_9
REMARK    8  A    between atoms: C_19  and  C_20
REMARK    9  A    between atoms: C_20  and  C_22
REMARK                            x       y       z     vdW  Elec       q    Type
REMARK                         _______ _______ _______ _____ _____    ______ ____
ROOT
ATOM      1  C   UNL     1       7.968   5.457  19.243  0.00  0.00    +0.000 C 
ATOM      2  C   UNL     1       6.944   6.213  18.389  0.00  0.00    +0.000 C 
ENDROOT
BRANCH   2   3
ATOM      3  N   UNL     1       6.382   5.356  17.330  0.00  0.00    +0.000 N 
ATOM      4  C   UNL     1       7.140   4.689  16.388  0.00  0.00    +0.000 A 
ATOM      5  C   UNL     1       6.329   3.845  15.676  0.00  0.00    +0.000 A 
ATOM      6  C   UNL     1       5.033   3.996  16.193  0.00  0.00    +0.000 A 
ATOM      7  C   UNL     1       5.048   4.988  17.174  0.00  0.00    +0.000 A 
BRANCH   7   8
ATOM      8  C   UNL     1       3.890   5.479  17.924  0.00  0.00    +0.000 C 
ATOM      9  O   UNL     1       3.525   6.646  17.923  0.00  0.00    +0.000 OA
BRANCH   8  10
ATOM     10  C   UNL     1       3.143   4.502  18.787  0.00  0.00    +0.000 A 
ATOM     11  C   UNL     1       3.819   3.656  19.677  0.00  0.00    +0.000 A 
ATOM     12  C   UNL     1       3.105   2.821  20.539  0.00  0.00    +0.000 A 
ATOM     13  C   UNL     1       1.714   2.805  20.495  0.00  0.00    +0.000 A 
ATOM     14  C   UNL     1       1.033   3.605  19.574  0.00  0.00    +0.000 A 
ATOM     15  C   UNL     1       1.746   4.449  18.716  0.00  0.00    +0.000 A 
ENDBRANCH   8  10
ENDBRANCH   7   8
ENDBRANCH   2   3
BRANCH   2  16
ATOM     16  C   UNL     1       7.518   7.536  17.876  0.00  0.00    +0.000 C 
ATOM     17  O   UNL     1       7.140   8.042  16.820  0.00  0.00    +0.000 OA
ATOM     18  N   UNL     1       8.431   8.175  18.690  0.00  0.00    +0.000 N 
ATOM     19  H   UNL     1       8.757   7.733  19.534  0.00  0.00    +0.000 HD
BRANCH  18  20
ATOM     20  C   UNL     1       8.986   9.461  18.334  0.00  0.00    +0.000 C 
BRANCH  20  21
ATOM     21  C   UNL     1       9.231  10.313  19.574  0.00  0.00    +0.000 C 
BRANCH  21  22
ATOM     22  C   UNL     1      10.099  11.520  19.220  0.00  0.00    +0.000 C 
BRANCH  22  23
ATOM     23  N   UNL     1       9.885  12.010  17.850  0.00  0.00    +0.000 NA
ATOM     24  C   UNL     1      11.058  12.702  17.270  0.00  0.00    +0.000 C 
ATOM     25  C   UNL     1      11.355  14.064  17.918  0.00  0.00    +0.000 C 
ATOM     26  O   UNL     1      10.221  14.935  17.833  0.00  0.00    +0.000 OA
ATOM     27  C   UNL     1       9.066  14.336  18.436  0.00  0.00    +0.000 C 
ATOM     28  C   UNL     1       8.747  12.963  17.812  0.00  0.00    +0.000 C 
ENDBRANCH  22  23
ENDBRANCH  21  22
ENDBRANCH  20  21
ENDBRANCH  18  20
ENDBRANCH   2  16
TORSDOF 8
ENDMDL
MODEL 4
REMARK VINA RESULT:      -7.4      0.789      1.516
REMARK  Name = 
REMARK  9 active torsions:
REMARK  status: ('A' for Active; 'I' for Inactive)
REMARK    1  A    between atoms: C_1  and  C_2
REMARK    2  A    between atoms: C_2  and  C_3
REMARK    3  A    between atoms: C_2  and  N_15
REMARK    4  A    between atoms: N_5  and  C_6
REMARK    5  A    between atoms: C_6  and  C_7
REMARK    6  A    between atoms: C_7  and  C_8
REMARK    7  A    between atoms: C_8  and  N_9
REMARK    8  A    between atoms: C_19  and  C_20
REMARK    9  A    between atoms: C_20  and  C_22
REMARK                            x       y       z     vdW  Elec       q    Type
REMARK                         _______ _______ _______ _____ _____    ______ ____
ROOT
ATOM      1  C   UNL     1       7.695   5.409  19.215  0.00  0.00    +0.000 C 
ATOM      2  C   UNL     1       6.827   6.184  18.217  0.00  0.00    +0.000 C 
ENDROOT
BRANCH   2   3
ATOM      3  N   UNL     1       6.188   5.286  17.240  0.00  0.00    +0.000 N 
ATOM      4  C   UNL     1       6.880   4.422  16.413  0.00  0.00    +0.000 A 
ATOM      5  C   UNL     1       5.987   3.607  15.769  0.00  0.00    +0.000 A 
ATOM      6  C   UNL     1       4.707   3.979  16.210  0.00  0.00    +0.000 A 
ATOM      7  C   UNL     1       4.823   5.070  17.071  0.00  0.00    +0.000 A 
BRANCH   7   8
ATOM      8  C   UNL     1       3.718   5.787  17.712  0.00  0.00    +0.000 C 
ATOM      9  O   UNL     1       3.473   6.969  17.519  0.00  0.00    +0.000 OA
BRANCH   8  10
ATOM     10  C   UNL     1       2.872   5.039  18.703  0.00  0.00    +0.000 A 
ATOM     11  C   UNL     1       3.070   5.188  20.083  0.00  0.00    +0.000 A 
ATOM     12  C   UNL     1       2.216   4.561  20.991  0.00  0.00    +0.000 A 
ATOM     13  C   UNL     1       1.178   3.757  20.526  0.00  0.00    +0.000 A 
ATOM     14  C   UNL     1       1.006   3.559  19.154  0.00  0.00    +0.000 A 
ATOM     15  C   UNL     1       1.855   4.195  18.242  0.00  0.00    +0.000 A 
ENDBRANCH   8  10
ENDBRANCH   7   8
ENDBRANCH   2   3
BRANCH   2  16
ATOM     16  C   UNL     1       7.609   7.337  17.580  0.00  0.00    +0.000 C 
ATOM     17  O   UNL     1       7.979   7.299  16.408  0.00  0.00    +0.000 OA
ATOM     18  N   UNL     1       7.817   8.454  18.362  0.00  0.00    +0.000 N 
ATOM     19  H   UNL     1       7.539   8.457  19.330  0.00  0.00    +0.000 HD
BRANCH  18  20
ATOM     20  C   UNL     1       8.484   9.624  17.840  0.00  0.00    +0.000 C 
BRANCH  20  21
ATOM     21  C   UNL     1       9.341  10.289  18.912  0.00  0.00    +0.000 C 
BRANCH  21  22
ATOM     22  C   UNL     1      10.091  11.483  18.321  0.00  0.00    +0.000 C 
BRANCH  22  23
ATOM     23  N   UNL     1      11.354  11.779  19.015  0.00  0.00    +0.000 NA
ATOM     24  C   UNL     1      11.198  12.017  20.467  0.00  0.00    +0.000 C 
ATOM     25  C   UNL     1      10.480  13.333  20.805  0.00  0.00    +0.000 C 
ATOM     26  O   UNL     1      11.158  14.455  20.226  0.00  0.00    +0.000 OA
ATOM     27  C   UNL     1      11.283  14.304  18.806  0.00  0.00    +0.000 C 
ATOM     28  C   UNL     1      11.993  12.987  18.435  0.00  0.00    +0.000 C 
ENDBRANCH  22  23
ENDBRANCH  21  22
ENDBRANCH  20  21
ENDBRANCH  18  20
ENDBRANCH   2  16
TORSDOF 8
ENDMDL
MODEL 5
REMARK VINA RESULT:      -7.4      1.099      1.525
REMARK  Name = 
REMARK  9 active torsions:
REMARK  status: ('A' for Active; 'I' for Inactive)
REMARK    1  A    between atoms: C_1  and  C_2
REMARK    2  A    between atoms: C_2  and  C_3
REMARK    3  A    between atoms: C_2  and  N_15
REMARK    4  A    between atoms: N_5  and  C_6
REMARK    5  A    between atoms: C_6  and  C_7
REMARK    6  A    between atoms: C_7  and  C_8
REMARK    7  A    between atoms: C_8  and  N_9
REMARK    8  A    between atoms: C_19  and  C_20
REMARK    9  A    between atoms: C_20  and  C_22
REMARK                            x       y       z     vdW  Elec       q    Type
REMARK                         _______ _______ _______ _____ _____    ______ ____
ROOT
ATOM      1  C   UNL     1       7.792   5.466  19.273  0.00  0.00    +0.000 C 
ATOM      2  C   UNL     1       6.786   6.188  18.370  0.00  0.00    +0.000 C 
ENDROOT
BRANCH   2   3
ATOM      3  N   UNL     1       6.266   5.298  17.317  0.00  0.00    +0.000 N 
ATOM      4  C   UNL     1       7.057   4.644  16.392  0.00  0.00    +0.000 A 
ATOM      5  C   UNL     1       6.284   3.763  15.684  0.00  0.00    +0.000 A 
ATOM      6  C   UNL     1       4.977   3.876  16.186  0.00  0.00    +0.000 A 
ATOM      7  C   UNL     1       4.947   4.881  17.152  0.00  0.00    +0.000 A 
BRANCH   7   8
ATOM      8  C   UNL     1       3.765   5.341  17.884  0.00  0.00    +0.000 C 
ATOM      9  O   UNL     1       3.208   6.408  17.672  0.00  0.00    +0.000 OA
BRANCH   8  10
ATOM     10  C   UNL     1       3.242   4.475  18.995  0.00  0.00    +0.000 A 
ATOM     11  C   UNL     1       3.930   3.324  19.403  0.00  0.00    +0.000 A 
ATOM     12  C   UNL     1       3.482   2.583  20.497  0.00  0.00    +0.000 A 
ATOM     13  C   UNL     1       2.326   2.970  21.171  0.00  0.00    +0.000 A 
ATOM     14  C   UNL     1       1.603   4.084  20.738  0.00  0.00    +0.000 A 
ATOM     15  C   UNL     1       2.056   4.833  19.647  0.00  0.00    +0.000 A 
ENDBRANCH   8  10
ENDBRANCH   7   8
ENDBRANCH   2   3
BRANCH   2  16
ATOM     16  C   UNL     1       7.362   7.504  17.839  0.00  0.00    +0.000 C 
ATOM     17  O   UNL     1       6.981   7.998  16.779  0.00  0.00    +0.000 OA
ATOM     18  N   UNL     1       8.278   8.150  18.643  0.00  0.00    +0.000 N 
ATOM     19  H   UNL     1       8.607   7.717  19.490  0.00  0.00    +0.000 HD
BRANCH  18  20
ATOM     20  C   UNL     1       8.835   9.430  18.271  0.00  0.00    +0.000 C 
BRANCH  20  21
ATOM     21  C   UNL     1       9.291  10.207  19.500  0.00  0.00    +0.000 C 
BRANCH  21  22
ATOM     22  C   UNL     1      10.267  11.311  19.094  0.00  0.00    +0.000 C 
BRANCH  22  23
ATOM     23  N   UNL     1      11.055  11.835  20.220  0.00  0.00    +0.000 NA
ATOM     24  C   UNL     1      10.362  12.886  20.999  0.00  0.00    +0.000 C 
ATOM     25  C   UNL     1      10.201  14.213  20.241  0.00  0.00    +0.000 C 
ATOM     26  O   UNL     1      11.471  14.722  19.815  0.00  0.00    +0.000 OA
ATOM     27  C   UNL     1      12.162  13.763  19.003  0.00  0.00    +0.000 C 
ATOM     28  C   UNL     1      12.332  12.417  19.733  0.00  0.00    +0.000 C 
ENDBRANCH  22  23
ENDBRANCH  21  22
ENDBRANCH  20  21
ENDBRANCH  18  20
ENDBRANCH   2  16
TORSDOF 8
ENDMDL
MODEL 6
REMARK VINA RESULT:      -7.4      1.596      2.035
REMARK  Name = 
REMARK  9 active torsions:
REMARK  status: ('A' for Active; 'I' for Inactive)
REMARK    1  A    between atoms: C_1  and  C_2
REMARK    2  A    between atoms: C_2  and  C_3
REMARK    3  A    between atoms: C_2  and  N_15
REMARK    4  A    between atoms: N_5  and  C_6
REMARK    5  A    between atoms: C_6  and  C_7
REMARK    6  A    between atoms: C_7  and  C_8
REMARK    7  A    between atoms: C_8  and  N_9
REMARK    8  A    between atoms: C_19  and  C_20
REMARK    9  A    between atoms: C_20  and  C_22
REMARK                            x       y       z     vdW  Elec       q    Type
REMARK                         _______ _______ _______ _____ _____    ______ ____
ROOT
ATOM      1  C   UNL     1       4.417   7.032  17.793  0.00  0.00    +0.000 C 
ATOM      2  C   UNL     1       5.596   6.832  16.834  0.00  0.00    +0.000 C 
ENDROOT
BRANCH   2   3
ATOM      3  N   UNL     1       5.569   5.497  16.211  0.00  0.00    +0.000 N 
ATOM      4  C   UNL     1       5.839   5.257  14.878  0.00  0.00    +0.000 A 
ATOM      5  C   UNL     1       5.909   3.906  14.670  0.00  0.00    +0.000 A 
ATOM      6  C   UNL     1       5.675   3.292  15.911  0.00  0.00    +0.000 A 
ATOM      7  C   UNL     1       5.392   4.277  16.858  0.00  0.00    +0.000 A 
BRANCH   7   8
ATOM      8  C   UNL     1       5.048   4.051  18.264  0.00  0.00    +0.000 C 
ATOM      9  O   UNL     1       5.863   4.075  19.175  0.00  0.00    +0.000 OA
BRANCH   8  10
ATOM     10  C   UNL     1       3.622   3.717  18.596  0.00  0.00    +0.000 A 
ATOM     11  C   UNL     1       2.593   3.925  17.667  0.00  0.00    +0.000 A 
ATOM     12  C   UNL     1       1.288   3.523  17.955  0.00  0.00    +0.000 A 
ATOM     13  C   UNL     1       0.998   2.938  19.185  0.00  0.00    +0.000 A 
ATOM     14  C   UNL     1       2.005   2.775  20.138  0.00  0.00    +0.000 A 
ATOM     15  C   UNL     1       3.315   3.169  19.847  0.00  0.00    +0.000 A 
ENDBRANCH   8  10
ENDBRANCH   7   8
ENDBRANCH   2   3
BRANCH   2  16
ATOM     16  C   UNL     1       6.927   7.172  17.512  0.00  0.00    +0.000 C 
ATOM     17  O   UNL     1       7.667   6.299  17.962  0.00  0.00    +0.000 OA
ATOM     18  N   UNL     1       7.293   8.501  17.530  0.00  0.00    +0.000 N 
ATOM     19  H   UNL     1       6.662   9.208  17.189  0.00  0.00    +0.000 HD
BRANCH  18  20
ATOM     20  C   UNL     1       8.558   8.927  18.084  0.00  0.00    +0.000 C 
BRANCH  20  21
ATOM     21  C   UNL     1       8.665  10.447  18.100  0.00  0.00    +0.000 C 
BRANCH  21  22
ATOM     22  C   UNL     1       9.447  10.906  19.331  0.00  0.00    +0.000 C 
BRANCH  22  23
ATOM     23  N   UNL     1      10.842  11.268  19.034  0.00  0.00    +0.000 NA
ATOM     24  C   UNL     1      11.505  12.032  20.115  0.00  0.00    +0.000 C 
ATOM     25  C   UNL     1      10.966  13.462  20.282  0.00  0.00    +0.000 C 
ATOM     26  O   UNL     1      11.079  14.202  19.060  0.00  0.00    +0.000 OA
ATOM     27  C   UNL     1      10.399  13.534  17.989  0.00  0.00    +0.000 C 
ATOM     28  C   UNL     1      10.912  12.093  17.802  0.00  0.00    +0.000 C 
ENDBRANCH  22  23
ENDBRANCH  21  22
ENDBRANCH  20  21
ENDBRANCH  18  20
ENDBRANCH   2  16
TORSDOF 8
ENDMDL
MODEL 7
REMARK VINA RESULT:      -7.3      1.481      2.067
REMARK  Name = 
REMARK  9 active torsions:
REMARK  status: ('A' for Active; 'I' for Inactive)
REMARK    1  A    between atoms: C_1  and  C_2
REMARK    2  A    between atoms: C_2  and  C_3
REMARK    3  A    between atoms: C_2  and  N_15
REMARK    4  A    between atoms: N_5  and  C_6
REMARK    5  A    between atoms: C_6  and  C_7
REMARK    6  A    between atoms: C_7  and  C_8
REMARK    7  A    between atoms: C_8  and  N_9
REMARK    8  A    between atoms: C_19  and  C_20
REMARK    9  A    between atoms: C_20  and  C_22
REMARK                            x       y       z     vdW  Elec       q    Type
REMARK                         _______ _______ _______ _____ _____    ______ ____
ROOT
ATOM      1  C   UNL     1       8.093   5.429  19.349  0.00  0.00    +0.000 C 
ATOM      2  C   UNL     1       7.021   6.183  18.554  0.00  0.00    +0.000 C 
ENDROOT
BRANCH   2   3
ATOM      3  N   UNL     1       6.383   5.317  17.547  0.00  0.00    +0.000 N 
ATOM      4  C   UNL     1       6.985   4.924  16.368  0.00  0.00    +0.000 A 
ATOM      5  C   UNL     1       6.200   3.984  15.755  0.00  0.00    +0.000 A 
ATOM      6  C   UNL     1       5.081   3.790  16.580  0.00  0.00    +0.000 A 
ATOM      7  C   UNL     1       5.155   4.670  17.660  0.00  0.00    +0.000 A 
BRANCH   7   8
ATOM      8  C   UNL     1       4.160   4.817  18.724  0.00  0.00    +0.000 C 
ATOM      9  O   UNL     1       3.924   3.953  19.557  0.00  0.00    +0.000 OA
BRANCH   8  10
ATOM     10  C   UNL     1       3.348   6.080  18.761  0.00  0.00    +0.000 A 
ATOM     11  C   UNL     1       2.573   6.410  19.882  0.00  0.00    +0.000 A 
ATOM     12  C   UNL     1       1.898   7.631  19.940  0.00  0.00    +0.000 A 
ATOM     13  C   UNL     1       1.969   8.515  18.867  0.00  0.00    +0.000 A 
ATOM     14  C   UNL     1       2.694   8.171  17.723  0.00  0.00    +0.000 A 
ATOM     15  C   UNL     1       3.378   6.952  17.667  0.00  0.00    +0.000 A 
ENDBRANCH   8  10
ENDBRANCH   7   8
ENDBRANCH   2   3
BRANCH   2  16
ATOM     16  C   UNL     1       7.572   7.493  17.984  0.00  0.00    +0.000 C 
ATOM     17  O   UNL     1       7.209   7.929  16.892  0.00  0.00    +0.000 OA
ATOM     18  N   UNL     1       8.442   8.202  18.786  0.00  0.00    +0.000 N 
ATOM     19  H   UNL     1       8.757   7.817  19.661  0.00  0.00    +0.000 HD
BRANCH  18  20
ATOM     20  C   UNL     1       8.971   9.483  18.375  0.00  0.00    +0.000 C 
BRANCH  20  21
ATOM     21  C   UNL     1       9.348  10.332  19.583  0.00  0.00    +0.000 C 
BRANCH  21  22
ATOM     22  C   UNL     1      10.223  11.508  19.148  0.00  0.00    +0.000 C 
BRANCH  22  23
ATOM     23  N   UNL     1       9.815  12.093  17.861  0.00  0.00    +0.000 NA
ATOM     24  C   UNL     1      10.892  12.842  17.175  0.00  0.00    +0.000 C 
ATOM     25  C   UNL     1      11.272  14.157  17.874  0.00  0.00    +0.000 C 
ATOM     26  O   UNL     1      10.133  15.015  18.013  0.00  0.00    +0.000 OA
ATOM     27  C   UNL     1       9.078  14.358  18.727  0.00  0.00    +0.000 C 
ATOM     28  C   UNL     1       8.680  13.029  18.054  0.00  0.00    +0.000 C 
ENDBRANCH  22  23
ENDBRANCH  21  22
ENDBRANCH  20  21
ENDBRANCH  18  20
ENDBRANCH   2  16
TORSDOF 8
ENDMDL
MODEL 8
REMARK VINA RESULT:      -7.3      1.359      1.866
REMARK  Name = 
REMARK  9 active torsions:
REMARK  status: ('A' for Active; 'I' for Inactive)
REMARK    1  A    between atoms: C_1  and  C_2
REMARK    2  A    between atoms: C_2  and  C_3
REMARK    3  A    between atoms: C_2  and  N_15
REMARK    4  A    between atoms: N_5  and  C_6
REMARK    5  A    between atoms: C_6  and  C_7
REMARK    6  A    between atoms: C_7  and  C_8
REMARK    7  A    between atoms: C_8  and  N_9
REMARK    8  A    between atoms: C_19  and  C_20
REMARK    9  A    between atoms: C_20  and  C_22
REMARK                            x       y       z     vdW  Elec       q    Type
REMARK                         _______ _______ _______ _____ _____    ______ ____
ROOT
ATOM      1  C   UNL     1       8.240   5.540  19.093  0.00  0.00    +0.000 C 
ATOM      2  C   UNL     1       7.104   6.222  18.322  0.00  0.00    +0.000 C 
ENDROOT
BRANCH   2   3
ATOM      3  N   UNL     1       6.581   5.358  17.249  0.00  0.00    +0.000 N 
ATOM      4  C   UNL     1       6.987   5.425  15.931  0.00  0.00    +0.000 A 
ATOM      5  C   UNL     1       6.448   4.372  15.241  0.00  0.00    +0.000 A 
ATOM      6  C   UNL     1       5.686   3.633  16.160  0.00  0.00    +0.000 A 
ATOM      7  C   UNL     1       5.708   4.282  17.394  0.00  0.00    +0.000 A 
BRANCH   7   8
ATOM      8  C   UNL     1       5.000   3.861  18.605  0.00  0.00    +0.000 C 
ATOM      9  O   UNL     1       5.556   3.622  19.667  0.00  0.00    +0.000 OA
BRANCH   8  10
ATOM     10  C   UNL     1       3.514   3.659  18.520  0.00  0.00    +0.000 A 
ATOM     11  C   UNL     1       2.688   4.609  17.904  0.00  0.00    +0.000 A 
ATOM     12  C   UNL     1       1.322   4.364  17.749  0.00  0.00    +0.000 A 
ATOM     13  C   UNL     1       0.770   3.183  18.236  0.00  0.00    +0.000 A 
ATOM     14  C   UNL     1       1.575   2.255  18.900  0.00  0.00    +0.000 A 
ATOM     15  C   UNL     1       2.945   2.494  19.048  0.00  0.00    +0.000 A 
ENDBRANCH   8  10
ENDBRANCH   7   8
ENDBRANCH   2   3
BRANCH   2  16
ATOM     16  C   UNL     1       7.515   7.618  17.847  0.00  0.00    +0.000 C 
ATOM     17  O   UNL     1       7.014   8.139  16.852  0.00  0.00    +0.000 OA
ATOM     18  N   UNL     1       8.425   8.298  18.630  0.00  0.00    +0.000 N 
ATOM     19  H   UNL     1       8.853   7.847  19.422  0.00  0.00    +0.000 HD
BRANCH  18  20
ATOM     20  C   UNL     1       8.833   9.647  18.311  0.00  0.00    +0.000 C 
BRANCH  20  21
ATOM     21  C   UNL     1       9.362  10.365  19.547  0.00  0.00    +0.000 C 
BRANCH  21  22
ATOM     22  C   UNL     1       9.645  11.832  19.223  0.00  0.00    +0.000 C 
BRANCH  22  23
ATOM     23  N   UNL     1      11.079  12.164  19.231  0.00  0.00    +0.000 NA
ATOM     24  C   UNL     1      11.379  13.510  19.768  0.00  0.00    +0.000 C 
ATOM     25  C   UNL     1      10.920  14.657  18.853  0.00  0.00    +0.000 C 
ATOM     26  O   UNL     1      11.503  14.543  17.549  0.00  0.00    +0.000 OA
ATOM     27  C   UNL     1      11.191  13.275  16.956  0.00  0.00    +0.000 C 
ATOM     28  C   UNL     1      11.632  12.103  17.854  0.00  0.00    +0.000 C 
ENDBRANCH  22  23
ENDBRANCH  21  22
ENDBRANCH  20  21
ENDBRANCH  18  20
ENDBRANCH   2  16
TORSDOF 8
ENDMDL
MODEL 9
REMARK VINA RESULT:      -7.3      5.068      7.815
REMARK  Name = 
REMARK  9 active torsions:
REMARK  status: ('A' for Active; 'I' for Inactive)
REMARK    1  A    between atoms: C_1  and  C_2
REMARK    2  A    between atoms: C_2  and  C_3
REMARK    3  A    between atoms: C_2  and  N_15
REMARK    4  A    between atoms: N_5  and  C_6
REMARK    5  A    between atoms: C_6  and  C_7
REMARK    6  A    between atoms: C_7  and  C_8
REMARK    7  A    between atoms: C_8  and  N_9
REMARK    8  A    between atoms: C_19  and  C_20
REMARK    9  A    between atoms: C_20  and  C_22
REMARK                            x       y       z     vdW  Elec       q    Type
REMARK                         _______ _______ _______ _____ _____    ______ ____
ROOT
ATOM      1  C   UNL     1       2.772   7.538  17.977  0.00  0.00    +0.000 C 
ATOM      2  C   UNL     1       2.873   6.442  19.044  0.00  0.00    +0.000 C 
ENDROOT
BRANCH   2   3
ATOM      3  N   UNL     1       2.671   5.101  18.468  0.00  0.00    +0.000 N 
ATOM      4  C   UNL     1       1.511   4.695  17.838  0.00  0.00    +0.000 A 
ATOM      5  C   UNL     1       1.720   3.471  17.261  0.00  0.00    +0.000 A 
ATOM      6  C   UNL     1       3.047   3.110  17.542  0.00  0.00    +0.000 A 
ATOM      7  C   UNL     1       3.621   4.089  18.354  0.00  0.00    +0.000 A 
BRANCH   7   8
ATOM      8  C   UNL     1       4.977   4.068  18.907  0.00  0.00    +0.000 C 
ATOM      9  O   UNL     1       5.359   3.255  19.736  0.00  0.00    +0.000 OA
BRANCH   8  10
ATOM     10  C   UNL     1       5.934   5.139  18.469  0.00  0.00    +0.000 A 
ATOM     11  C   UNL     1       6.964   5.580  19.312  0.00  0.00    +0.000 A 
ATOM     12  C   UNL     1       7.902   6.507  18.857  0.00  0.00    +0.000 A 
ATOM     13  C   UNL     1       7.800   7.023  17.568  0.00  0.00    +0.000 A 
ATOM     14  C   UNL     1       6.746   6.631  16.739  0.00  0.00    +0.000 A 
ATOM     15  C   UNL     1       5.810   5.695  17.190  0.00  0.00    +0.000 A 
ENDBRANCH   8  10
ENDBRANCH   7   8
ENDBRANCH   2   3
BRANCH   2  16
ATOM     16  C   UNL     1       1.965   6.746  20.239  0.00  0.00    +0.000 C 
ATOM     17  O   UNL     1       1.612   5.868  21.026  0.00  0.00    +0.000 OA
ATOM     18  N   UNL     1       1.618   8.066  20.437  0.00  0.00    +0.000 N 
ATOM     19  H   UNL     1       1.885   8.769  19.766  0.00  0.00    +0.000 HD
BRANCH  18  20
ATOM     20  C   UNL     1       0.820   8.474  21.570  0.00  0.00    +0.000 C 
BRANCH  20  21
ATOM     21  C   UNL     1       0.788   9.992  21.699  0.00  0.00    +0.000 C 
BRANCH  21  22
ATOM     22  C   UNL     1      -0.185  10.587  20.681  0.00  0.00    +0.000 C 
BRANCH  22  23
ATOM     23  N   UNL     1       0.412  10.786  19.351  0.00  0.00    +0.000 NA
ATOM     24  C   UNL     1       0.498  12.206  18.939  0.00  0.00    +0.000 C 
ATOM     25  C   UNL     1      -0.867  12.844  18.635  0.00  0.00    +0.000 C 
ATOM     26  O   UNL     1      -1.565  12.112  17.619  0.00  0.00    +0.000 OA
ATOM     27  C   UNL     1      -1.728  10.739  17.996  0.00  0.00    +0.000 C 
ATOM     28  C   UNL     1      -0.376  10.072  18.316  0.00  0.00    +0.000 C 
ENDBRANCH  22  23
ENDBRANCH  21  22
ENDBRANCH  20  21
ENDBRANCH  18  20
ENDBRANCH   2  16
TORSDOF 8
ENDMDL
