MODEL 1
REMARK VINA RESULT:      -7.4      0.000      0.000
REMARK  Name = 
REMARK  6 active torsions:
REMARK  status: ('A' for Active; 'I' for Inactive)
REMARK    1  A    between atoms: C_1  and  C_2
REMARK    2  A    between atoms: C_4  and  C_5
REMARK    3  A    between atoms: C_11  and  C_12
REMARK    4  A    between atoms: C_14  and  C_15
REMARK    5  A    between atoms: C_15  and  C_16
REMARK    6  A    between atoms: C_15  and  C_17
REMARK                            x       y       z     vdW  Elec       q    Type
REMARK                         _______ _______ _______ _____ _____    ______ ____
ROOT
ATOM      1  C   UNL     1       5.692   5.969  15.442  0.00  0.00    +0.000 C 
ATOM      2  O   UNL     1       4.919   6.892  15.184  0.00  0.00    +0.000 OA
ATOM      3  N   UNL     1       6.113   5.705  16.753  0.00  0.00    +0.000 N 
ATOM      4  C   UNL     1       6.957   4.590  17.186  0.00  0.00    +0.000 C 
ATOM      5  C   UNL     1       6.482   3.982  18.510  0.00  0.00    +0.000 C 
ATOM      6  O   UNL     1       6.237   4.961  19.534  0.00  0.00    +0.000 OA
ATOM      7  C   UNL     1       5.321   5.991  19.107  0.00  0.00    +0.000 C 
ATOM      8  C   UNL     1       5.797   6.670  17.809  0.00  0.00    +0.000 C 
ENDROOT
BRANCH   1  12
ATOM      9  C   UNL     1       6.279   2.519  11.750  0.00  0.00    +0.000 C 
ATOM     10  C   UNL     1       6.344   3.581  12.766  0.00  0.00    +0.000 A 
ATOM     11  C   UNL     1       5.513   4.010  13.770  0.00  0.00    +0.000 A 
ATOM     12  C   UNL     1       6.190   5.116  14.353  0.00  0.00    +0.000 A 
ATOM     13  N   UNL     1       7.343   5.348  13.702  0.00  0.00    +0.000 NA
ATOM     14  O   UNL     1       7.448   4.369  12.734  0.00  0.00    +0.000 OA
ENDBRANCH   1  12
BRANCH   7  15
ATOM     15  C   UNL     1       3.956   5.403  18.985  0.00  0.00    +0.000 A 
ATOM     16  N   UNL     1       3.338   4.617  19.837  0.00  0.00    +0.000 NA
ATOM     17  C   UNL     1       2.104   4.436  19.281  0.00  0.00    +0.000 A 
ATOM     18  N   UNL     1       1.923   5.065  18.112  0.00  0.00    +0.000 NA
ATOM     19  N   UNL     1       3.113   5.670  17.943  0.00  0.00    +0.000 N 
ATOM     20  H   UNL     1       3.268   6.263  17.137  0.00  0.00    +0.000 HD
BRANCH  17  21
ATOM     21  C   UNL     1       1.052   3.623  19.962  0.00  0.00    +0.000 C 
ATOM     22  C   UNL     1       0.616   2.444  19.090  0.00  0.00    +0.000 C 
ATOM     23  C   UNL     1       1.544   3.107  21.317  0.00  0.00    +0.000 C 
ENDBRANCH  17  21
ENDBRANCH   7  15
TORSDOF 3
ENDMDL
MODEL 2
REMARK VINA RESULT:      -7.2      2.472      3.671
REMARK  Name = 
REMARK  6 active torsions:
REMARK  status: ('A' for Active; 'I' for Inactive)
REMARK    1  A    between atoms: C_1  and  C_2
REMARK    2  A    between atoms: C_4  and  C_5
REMARK    3  A    between atoms: C_11  and  C_12
REMARK    4  A    between atoms: C_14  and  C_15
REMARK    5  A    between atoms: C_15  and  C_16
REMARK    6  A    between atoms: C_15  and  C_17
REMARK                            x       y       z     vdW  Elec       q    Type
REMARK                         _______ _______ _______ _____ _____    ______ ____
ROOT
ATOM      1  C   UNL     1       5.956   4.512  18.045  0.00  0.00    +0.000 C 
ATOM      2  O   UNL     1       6.599   4.922  19.011  0.00  0.00    +0.000 OA
ATOM      3  N   UNL     1       4.738   3.836  18.204  0.00  0.00    +0.000 N 
ATOM      4  C   UNL     1       3.850   3.383  17.132  0.00  0.00    +0.000 C 
ATOM      5  C   UNL     1       2.372   3.614  17.464  0.00  0.00    +0.000 C 
ATOM      6  O   UNL     1       1.998   3.142  18.770  0.00  0.00    +0.000 OA
ATOM      7  C   UNL     1       2.831   3.689  19.814  0.00  0.00    +0.000 C 
ATOM      8  C   UNL     1       4.325   3.422  19.546  0.00  0.00    +0.000 C 
ENDROOT
BRANCH   1  12
ATOM      9  C   UNL     1       6.958   4.350  13.060  0.00  0.00    +0.000 C 
ATOM     10  C   UNL     1       6.835   4.583  14.507  0.00  0.00    +0.000 A 
ATOM     11  C   UNL     1       6.183   3.949  15.535  0.00  0.00    +0.000 A 
ATOM     12  C   UNL     1       6.469   4.735  16.685  0.00  0.00    +0.000 A 
ATOM     13  N   UNL     1       7.221   5.796  16.344  0.00  0.00    +0.000 NA
ATOM     14  O   UNL     1       7.471   5.679  14.992  0.00  0.00    +0.000 OA
ENDBRANCH   1  12
BRANCH   7  15
ATOM     15  C   UNL     1       2.522   5.140  19.970  0.00  0.00    +0.000 A 
ATOM     16  N   UNL     1       2.737   6.107  19.106  0.00  0.00    +0.000 NA
ATOM     17  C   UNL     1       2.207   7.210  19.711  0.00  0.00    +0.000 A 
ATOM     18  N   UNL     1       1.679   6.981  20.921  0.00  0.00    +0.000 NA
ATOM     19  N   UNL     1       1.893   5.661  21.065  0.00  0.00    +0.000 N 
ATOM     20  H   UNL     1       1.563   5.183  21.895  0.00  0.00    +0.000 HD
BRANCH  17  21
ATOM     21  C   UNL     1       2.204   8.544  19.039  0.00  0.00    +0.000 C 
ATOM     22  C   UNL     1       2.262   8.394  17.518  0.00  0.00    +0.000 C 
ATOM     23  C   UNL     1       0.964   9.355  19.429  0.00  0.00    +0.000 C 
ENDBRANCH  17  21
ENDBRANCH   7  15
TORSDOF 3
ENDMDL
MODEL 3
REMARK VINA RESULT:      -7.1      2.752      3.794
REMARK  Name = 
REMARK  6 active torsions:
REMARK  status: ('A' for Active; 'I' for Inactive)
REMARK    1  A    between atoms: C_1  and  C_2
REMARK    2  A    between atoms: C_4  and  C_5
REMARK    3  A    between atoms: C_11  and  C_12
REMARK    4  A    between atoms: C_14  and  C_15
REMARK    5  A    between atoms: C_15  and  C_16
REMARK    6  A    between atoms: C_15  and  C_17
REMARK                            x       y       z     vdW  Elec       q    Type
REMARK                         _______ _______ _______ _____ _____    ______ ____
ROOT
ATOM      1  C   UNL     1       5.624   4.401  18.345  0.00  0.00    +0.000 C 
ATOM      2  O   UNL     1       6.260   4.915  19.265  0.00  0.00    +0.000 OA
ATOM      3  N   UNL     1       4.357   3.836  18.551  0.00  0.00    +0.000 N 
ATOM      4  C   UNL     1       3.478   3.278  17.521  0.00  0.00    +0.000 C 
ATOM      5  C   UNL     1       2.008   3.651  17.747  0.00  0.00    +0.000 C 
ATOM      6  O   UNL     1       1.558   3.414  19.092  0.00  0.00    +0.000 OA
ATOM      7  C   UNL     1       2.390   4.063  20.076  0.00  0.00    +0.000 C 
ATOM      8  C   UNL     1       3.869   3.664  19.921  0.00  0.00    +0.000 C 
ENDROOT
BRANCH   1  12
ATOM      9  C   UNL     1       6.451   4.011  13.341  0.00  0.00    +0.000 C 
ATOM     10  C   UNL     1       6.454   4.181  14.802  0.00  0.00    +0.000 A 
ATOM     11  C   UNL     1       5.537   3.969  15.801  0.00  0.00    +0.000 A 
ATOM     12  C   UNL     1       6.199   4.377  16.992  0.00  0.00    +0.000 A 
ATOM     13  N   UNL     1       7.428   4.837  16.704  0.00  0.00    +0.000 NA
ATOM     14  O   UNL     1       7.593   4.683  15.342  0.00  0.00    +0.000 OA
ENDBRANCH   1  12
BRANCH   7  15
ATOM     15  C   UNL     1       2.176   5.537  19.993  0.00  0.00    +0.000 A 
ATOM     16  N   UNL     1       1.485   6.299  20.811  0.00  0.00    +0.000 NA
ATOM     17  C   UNL     1       1.675   7.560  20.324  0.00  0.00    +0.000 A 
ATOM     18  N   UNL     1       2.445   7.623  19.230  0.00  0.00    +0.000 NA
ATOM     19  N   UNL     1       2.749   6.326  19.037  0.00  0.00    +0.000 N 
ATOM     20  H   UNL     1       3.364   6.060  18.278  0.00  0.00    +0.000 HD
BRANCH  17  21
ATOM     21  C   UNL     1       1.084   8.754  20.998  0.00  0.00    +0.000 C 
ATOM     22  C   UNL     1       0.811   9.875  19.993  0.00  0.00    +0.000 C 
ATOM     23  C   UNL     1      -0.211   8.391  21.729  0.00  0.00    +0.000 C 
ENDBRANCH  17  21
ENDBRANCH   7  15
TORSDOF 3
ENDMDL
MODEL 4
REMARK VINA RESULT:      -7.0      2.403      3.530
REMARK  Name = 
REMARK  6 active torsions:
REMARK  status: ('A' for Active; 'I' for Inactive)
REMARK    1  A    between atoms: C_1  and  C_2
REMARK    2  A    between atoms: C_4  and  C_5
REMARK    3  A    between atoms: C_11  and  C_12
REMARK    4  A    between atoms: C_14  and  C_15
REMARK    5  A    between atoms: C_15  and  C_16
REMARK    6  A    between atoms: C_15  and  C_17
REMARK                            x       y       z     vdW  Elec       q    Type
REMARK                         _______ _______ _______ _____ _____    ______ ____
ROOT
ATOM      1  C   UNL     1       5.629   4.280  17.924  0.00  0.00    +0.000 C 
ATOM      2  O   UNL     1       6.271   4.877  18.788  0.00  0.00    +0.000 OA
ATOM      3  N   UNL     1       4.651   3.332  18.257  0.00  0.00    +0.000 N 
ATOM      4  C   UNL     1       3.771   2.627  17.323  0.00  0.00    +0.000 C 
ATOM      5  C   UNL     1       2.339   2.501  17.856  0.00  0.00    +0.000 C 
ATOM      6  O   UNL     1       2.272   2.010  19.205  0.00  0.00    +0.000 OA
ATOM      7  C   UNL     1       3.072   2.791  20.118  0.00  0.00    +0.000 C 
ATOM      8  C   UNL     1       4.536   2.888  19.648  0.00  0.00    +0.000 C 
ENDROOT
BRANCH   1  12
ATOM      9  C   UNL     1       6.574   4.017  12.933  0.00  0.00    +0.000 C 
ATOM     10  C   UNL     1       6.300   4.340  14.341  0.00  0.00    +0.000 A 
ATOM     11  C   UNL     1       6.222   3.611  15.502  0.00  0.00    +0.000 A 
ATOM     12  C   UNL     1       5.886   4.562  16.504  0.00  0.00    +0.000 A 
ATOM     13  N   UNL     1       5.739   5.781  15.955  0.00  0.00    +0.000 NA
ATOM     14  O   UNL     1       6.029   5.641  14.613  0.00  0.00    +0.000 OA
ENDBRANCH   1  12
BRANCH   7  15
ATOM     15  C   UNL     1       2.433   4.126  20.302  0.00  0.00    +0.000 A 
ATOM     16  N   UNL     1       2.966   5.309  20.096  0.00  0.00    +0.000 NA
ATOM     17  C   UNL     1       1.941   6.177  20.340  0.00  0.00    +0.000 A 
ATOM     18  N   UNL     1       0.791   5.592  20.702  0.00  0.00    +0.000 NA
ATOM     19  N   UNL     1       1.129   4.290  20.673  0.00  0.00    +0.000 N 
ATOM     20  H   UNL     1       0.432   3.583  20.876  0.00  0.00    +0.000 HD
BRANCH  17  21
ATOM     21  C   UNL     1       2.111   7.652  20.178  0.00  0.00    +0.000 C 
ATOM     22  C   UNL     1       2.067   8.053  18.703  0.00  0.00    +0.000 C 
ATOM     23  C   UNL     1       1.035   8.420  20.953  0.00  0.00    +0.000 C 
ENDBRANCH  17  21
ENDBRANCH   7  15
TORSDOF 3
ENDMDL
MODEL 5
REMARK VINA RESULT:      -7.0      2.617      3.304
REMARK  Name = 
REMARK  6 active torsions:
REMARK  status: ('A' for Active; 'I' for Inactive)
REMARK    1  A    between atoms: C_1  and  C_2
REMARK    2  A    between atoms: C_4  and  C_5
REMARK    3  A    between atoms: C_11  and  C_12
REMARK    4  A    between atoms: C_14  and  C_15
REMARK    5  A    between atoms: C_15  and  C_16
REMARK    6  A    between atoms: C_15  and  C_17
REMARK                            x       y       z     vdW  Elec       q    Type
REMARK                         _______ _______ _______ _____ _____    ______ ____
ROOT
ATOM      1  C   UNL     1       6.331   5.429  16.783  0.00  0.00    +0.000 C 
ATOM      2  O   UNL     1       6.978   6.391  17.195  0.00  0.00    +0.000 OA
ATOM      3  N   UNL     1       5.394   4.770  17.591  0.00  0.00    +0.000 N 
ATOM      4  C   UNL     1       4.511   3.676  17.182  0.00  0.00    +0.000 C 
ATOM      5  C   UNL     1       3.100   3.819  17.763  0.00  0.00    +0.000 C 
ATOM      6  O   UNL     1       3.087   4.083  19.176  0.00  0.00    +0.000 OA
ATOM      7  C   UNL     1       3.887   5.230  19.532  0.00  0.00    +0.000 C 
ATOM      8  C   UNL     1       5.333   5.094  19.018  0.00  0.00    +0.000 C 
ENDROOT
BRANCH   1  12
ATOM      9  C   UNL     1       5.935   3.253  12.202  0.00  0.00    +0.000 C 
ATOM     10  C   UNL     1       6.269   3.966  13.444  0.00  0.00    +0.000 A 
ATOM     11  C   UNL     1       5.702   4.053  14.691  0.00  0.00    +0.000 A 
ATOM     12  C   UNL     1       6.538   4.953  15.407  0.00  0.00    +0.000 A 
ATOM     13  N   UNL     1       7.525   5.400  14.611  0.00  0.00    +0.000 NA
ATOM     14  O   UNL     1       7.371   4.758  13.400  0.00  0.00    +0.000 OA
ENDBRANCH   1  12
BRANCH   7  15
ATOM     15  C   UNL     1       3.211   6.463  19.038  0.00  0.00    +0.000 A 
ATOM     16  N   UNL     1       2.251   7.145  19.621  0.00  0.00    +0.000 NA
ATOM     17  C   UNL     1       2.053   8.210  18.790  0.00  0.00    +0.000 A 
ATOM     18  N   UNL     1       2.839   8.222  17.705  0.00  0.00    +0.000 NA
ATOM     19  N   UNL     1       3.563   7.102  17.883  0.00  0.00    +0.000 N 
ATOM     20  H   UNL     1       4.286   6.857  17.216  0.00  0.00    +0.000 HD
BRANCH  17  21
ATOM     21  C   UNL     1       1.057   9.276  19.109  0.00  0.00    +0.000 C 
ATOM     22  C   UNL     1       0.877   9.428  20.620  0.00  0.00    +0.000 C 
ATOM     23  C   UNL     1       1.472  10.619  18.502  0.00  0.00    +0.000 C 
ENDBRANCH  17  21
ENDBRANCH   7  15
TORSDOF 3
ENDMDL
MODEL 6
REMARK VINA RESULT:      -7.0      2.988      3.664
REMARK  Name = 
REMARK  6 active torsions:
REMARK  status: ('A' for Active; 'I' for Inactive)
REMARK    1  A    between atoms: C_1  and  C_2
REMARK    2  A    between atoms: C_4  and  C_5
REMARK    3  A    between atoms: C_11  and  C_12
REMARK    4  A    between atoms: C_14  and  C_15
REMARK    5  A    between atoms: C_15  and  C_16
REMARK    6  A    between atoms: C_15  and  C_17
REMARK                            x       y       z     vdW  Elec       q    Type
REMARK                         _______ _______ _______ _____ _____    ______ ____
ROOT
ATOM      1  C   UNL     1       5.925   5.747  17.247  0.00  0.00    +0.000 C 
ATOM      2  O   UNL     1       6.578   6.655  17.762  0.00  0.00    +0.000 OA
ATOM      3  N   UNL     1       4.830   5.165  17.900  0.00  0.00    +0.000 N 
ATOM      4  C   UNL     1       3.933   4.145  17.351  0.00  0.00    +0.000 C 
ATOM      5  C   UNL     1       2.468   4.401  17.719  0.00  0.00    +0.000 C 
ATOM      6  O   UNL     1       2.266   4.664  19.118  0.00  0.00    +0.000 OA
ATOM      7  C   UNL     1       3.093   5.743  19.602  0.00  0.00    +0.000 C 
ATOM      8  C   UNL     1       4.584   5.493  19.306  0.00  0.00    +0.000 C 
ENDROOT
BRANCH   1  12
ATOM      9  C   UNL     1       6.084   3.515  12.679  0.00  0.00    +0.000 C 
ATOM     10  C   UNL     1       6.266   4.245  13.943  0.00  0.00    +0.000 A 
ATOM     11  C   UNL     1       5.555   4.342  15.113  0.00  0.00    +0.000 A 
ATOM     12  C   UNL     1       6.295   5.257  15.911  0.00  0.00    +0.000 A 
ATOM     13  N   UNL     1       7.367   5.701  15.232  0.00  0.00    +0.000 NA
ATOM     14  O   UNL     1       7.360   5.044  14.018  0.00  0.00    +0.000 OA
ENDBRANCH   1  12
BRANCH   7  15
ATOM     15  C   UNL     1       2.597   7.027  19.028  0.00  0.00    +0.000 A 
ATOM     16  N   UNL     1       1.797   7.906  19.590  0.00  0.00    +0.000 NA
ATOM     17  C   UNL     1       1.725   8.916  18.675  0.00  0.00    +0.000 A 
ATOM     18  N   UNL     1       2.435   8.706  17.558  0.00  0.00    +0.000 NA
ATOM     19  N   UNL     1       2.977   7.500  17.805  0.00  0.00    +0.000 N 
ATOM     20  H   UNL     1       3.609   7.084  17.131  0.00  0.00    +0.000 HD
BRANCH  17  21
ATOM     21  C   UNL     1       0.935  10.155  18.941  0.00  0.00    +0.000 C 
ATOM     22  C   UNL     1      -0.396  10.132  18.188  0.00  0.00    +0.000 C 
ATOM     23  C   UNL     1       0.677  10.335  20.440  0.00  0.00    +0.000 C 
ENDBRANCH  17  21
ENDBRANCH   7  15
TORSDOF 3
ENDMDL
MODEL 7
REMARK VINA RESULT:      -6.9      0.982      1.298
REMARK  Name = 
REMARK  6 active torsions:
REMARK  status: ('A' for Active; 'I' for Inactive)
REMARK    1  A    between atoms: C_1  and  C_2
REMARK    2  A    between atoms: C_4  and  C_5
REMARK    3  A    between atoms: C_11  and  C_12
REMARK    4  A    between atoms: C_14  and  C_15
REMARK    5  A    between atoms: C_15  and  C_16
REMARK    6  A    between atoms: C_15  and  C_17
REMARK                            x       y       z     vdW  Elec       q    Type
REMARK                         _______ _______ _______ _____ _____    ______ ____
ROOT
ATOM      1  C   UNL     1       5.825   5.709  15.319  0.00  0.00    +0.000 C 
ATOM      2  O   UNL     1       4.779   6.353  15.231  0.00  0.00    +0.000 OA
ATOM      3  N   UNL     1       6.558   5.654  16.512  0.00  0.00    +0.000 N 
ATOM      4  C   UNL     1       7.761   4.856  16.756  0.00  0.00    +0.000 C 
ATOM      5  C   UNL     1       7.762   4.215  18.148  0.00  0.00    +0.000 C 
ATOM      6  O   UNL     1       7.450   5.140  19.204  0.00  0.00    +0.000 OA
ATOM      7  C   UNL     1       6.205   5.835  18.980  0.00  0.00    +0.000 C 
ATOM      8  C   UNL     1       6.191   6.546  17.614  0.00  0.00    +0.000 C 
ENDROOT
BRANCH   1  12
ATOM      9  C   UNL     1       6.527   2.482  11.450  0.00  0.00    +0.000 C 
ATOM     10  C   UNL     1       6.537   3.519  12.492  0.00  0.00    +0.000 A 
ATOM     11  C   UNL     1       5.773   3.782  13.601  0.00  0.00    +0.000 A 
ATOM     12  C   UNL     1       6.323   4.974  14.147  0.00  0.00    +0.000 A 
ATOM     13  N   UNL     1       7.337   5.409  13.378  0.00  0.00    +0.000 NA
ATOM     14  O   UNL     1       7.485   4.482  12.367  0.00  0.00    +0.000 OA
ENDBRANCH   1  12
BRANCH   7  15
ATOM     15  C   UNL     1       5.078   4.873  19.144  0.00  0.00    +0.000 A 
ATOM     16  N   UNL     1       3.790   5.119  19.058  0.00  0.00    +0.000 NA
ATOM     17  C   UNL     1       3.210   3.893  19.214  0.00  0.00    +0.000 A 
ATOM     18  N   UNL     1       4.077   2.889  19.406  0.00  0.00    +0.000 NA
ATOM     19  N   UNL     1       5.256   3.537  19.360  0.00  0.00    +0.000 N 
ATOM     20  H   UNL     1       6.121   3.016  19.445  0.00  0.00    +0.000 HD
BRANCH  17  21
ATOM     21  C   UNL     1       1.730   3.713  19.140  0.00  0.00    +0.000 C 
ATOM     22  C   UNL     1       1.366   2.259  18.838  0.00  0.00    +0.000 C 
ATOM     23  C   UNL     1       1.055   4.153  20.443  0.00  0.00    +0.000 C 
ENDBRANCH  17  21
ENDBRANCH   7  15
TORSDOF 3
ENDMDL
MODEL 8
REMARK VINA RESULT:      -6.9      2.628      3.457
REMARK  Name = 
REMARK  6 active torsions:
REMARK  status: ('A' for Active; 'I' for Inactive)
REMARK    1  A    between atoms: C_1  and  C_2
REMARK    2  A    between atoms: C_4  and  C_5
REMARK    3  A    between atoms: C_11  and  C_12
REMARK    4  A    between atoms: C_14  and  C_15
REMARK    5  A    between atoms: C_15  and  C_16
REMARK    6  A    between atoms: C_15  and  C_17
REMARK                            x       y       z     vdW  Elec       q    Type
REMARK                         _______ _______ _______ _____ _____    ______ ____
ROOT
ATOM      1  C   UNL     1       6.059   4.871  17.747  0.00  0.00    +0.000 C 
ATOM      2  O   UNL     1       6.702   5.568  18.533  0.00  0.00    +0.000 OA
ATOM      3  N   UNL     1       4.947   4.126  18.164  0.00  0.00    +0.000 N 
ATOM      4  C   UNL     1       4.060   3.336  17.307  0.00  0.00    +0.000 C 
ATOM      5  C   UNL     1       2.587   3.480  17.704  0.00  0.00    +0.000 C 
ATOM      6  O   UNL     1       2.354   3.298  19.111  0.00  0.00    +0.000 OA
ATOM      7  C   UNL     1       3.172   4.166  19.924  0.00  0.00    +0.000 C 
ATOM      8  C   UNL     1       4.668   4.004  19.596  0.00  0.00    +0.000 C 
ENDROOT
BRANCH   1  12
ATOM      9  C   UNL     1       6.520   3.847  12.786  0.00  0.00    +0.000 C 
ATOM     10  C   UNL     1       6.578   4.299  14.184  0.00  0.00    +0.000 A 
ATOM     11  C   UNL     1       5.949   3.928  15.346  0.00  0.00    +0.000 A 
ATOM     12  C   UNL     1       6.459   4.816  16.334  0.00  0.00    +0.000 A 
ATOM     13  N   UNL     1       7.316   5.686  15.774  0.00  0.00    +0.000 NA
ATOM     14  O   UNL     1       7.410   5.340  14.441  0.00  0.00    +0.000 OA
ENDBRANCH   1  12
BRANCH   7  15
ATOM     15  C   UNL     1       2.693   5.569  19.766  0.00  0.00    +0.000 A 
ATOM     16  N   UNL     1       1.818   6.211  20.508  0.00  0.00    +0.000 NA
ATOM     17  C   UNL     1       1.801   7.470  19.980  0.00  0.00    +0.000 A 
ATOM     18  N   UNL     1       2.619   7.645  18.933  0.00  0.00    +0.000 NA
ATOM     19  N   UNL     1       3.172   6.424  18.815  0.00  0.00    +0.000 N 
ATOM     20  H   UNL     1       3.876   6.256  18.106  0.00  0.00    +0.000 HD
BRANCH  17  21
ATOM     21  C   UNL     1       0.954   8.551  20.566  0.00  0.00    +0.000 C 
ATOM     22  C   UNL     1       1.385   8.875  21.997  0.00  0.00    +0.000 C 
ATOM     23  C   UNL     1       1.011   9.821  19.710  0.00  0.00    +0.000 C 
ENDBRANCH  17  21
ENDBRANCH   7  15
TORSDOF 3
ENDMDL
MODEL 9
REMARK VINA RESULT:      -6.9      2.686      3.749
REMARK  Name = 
REMARK  6 active torsions:
REMARK  status: ('A' for Active; 'I' for Inactive)
REMARK    1  A    between atoms: C_1  and  C_2
REMARK    2  A    between atoms: C_4  and  C_5
REMARK    3  A    between atoms: C_11  and  C_12
REMARK    4  A    between atoms: C_14  and  C_15
REMARK    5  A    between atoms: C_15  and  C_16
REMARK    6  A    between atoms: C_15  and  C_17
REMARK                            x       y       z     vdW  Elec       q    Type
REMARK                         _______ _______ _______ _____ _____    ______ ____
ROOT
ATOM      1  C   UNL     1       5.900   5.103  17.753  0.00  0.00    +0.000 C 
ATOM      2  O   UNL     1       6.556   5.777  18.548  0.00  0.00    +0.000 OA
ATOM      3  N   UNL     1       4.720   4.451  18.139  0.00  0.00    +0.000 N 
ATOM      4  C   UNL     1       3.818   3.699  17.264  0.00  0.00    +0.000 C 
ATOM      5  C   UNL     1       2.343   3.959  17.588  0.00  0.00    +0.000 C 
ATOM      6  O   UNL     1       2.035   3.839  18.988  0.00  0.00    +0.000 OA
ATOM      7  C   UNL     1       2.876   4.672  19.813  0.00  0.00    +0.000 C 
ATOM      8  C   UNL     1       4.371   4.395  19.560  0.00  0.00    +0.000 C 
ENDROOT
BRANCH   1  12
ATOM      9  C   UNL     1       6.526   3.867  12.859  0.00  0.00    +0.000 C 
ATOM     10  C   UNL     1       6.545   4.370  14.241  0.00  0.00    +0.000 A 
ATOM     11  C   UNL     1       5.850   4.073  15.387  0.00  0.00    +0.000 A 
ATOM     12  C   UNL     1       6.358   4.974  16.362  0.00  0.00    +0.000 A 
ATOM     13  N   UNL     1       7.278   5.783  15.809  0.00  0.00    +0.000 NA
ATOM     14  O   UNL     1       7.413   5.381  14.496  0.00  0.00    +0.000 OA
ENDBRANCH   1  12
BRANCH   7  15
ATOM     15  C   UNL     1       2.507   6.100  19.593  0.00  0.00    +0.000 A 
ATOM     16  N   UNL     1       2.372   6.730  18.448  0.00  0.00    +0.000 NA
ATOM     17  C   UNL     1       1.957   7.980  18.808  0.00  0.00    +0.000 A 
ATOM     18  N   UNL     1       1.837   8.166  20.130  0.00  0.00    +0.000 NA
ATOM     19  N   UNL     1       2.194   6.960  20.607  0.00  0.00    +0.000 N 
ATOM     20  H   UNL     1       2.169   6.784  21.604  0.00  0.00    +0.000 HD
BRANCH  17  21
ATOM     21  C   UNL     1       1.640   9.023  17.788  0.00  0.00    +0.000 C 
ATOM     22  C   UNL     1       0.171   9.442  17.865  0.00  0.00    +0.000 C 
ATOM     23  C   UNL     1       2.536  10.254  17.960  0.00  0.00    +0.000 C 
ENDBRANCH  17  21
ENDBRANCH   7  15
TORSDOF 3
ENDMDL
