MODEL 1
REMARK VINA RESULT:      -8.3      0.000      0.000
REMARK  Name = 
REMARK  6 active torsions:
REMARK  status: ('A' for Active; 'I' for Inactive)
REMARK    1  A    between atoms: C_1  and  C_2
REMARK    2  A    between atoms: C_8  and  C_9
REMARK    3  A    between atoms: C_10  and  C_11
REMARK    4  A    between atoms: C_11  and  O_12
REMARK    5  A    between atoms: N_16  and  C_17
REMARK    6  A    between atoms: C_24  and  C_25
REMARK                            x       y       z     vdW  Elec       q    Type
REMARK                         _______ _______ _______ _____ _____    ______ ____
ROOT
ATOM      1  C   UNL     1       2.644   2.008  17.935  0.00  0.00    +0.000 C 
ATOM      2  C   UNL     1       2.587   3.448  18.457  0.00  0.00    +0.000 C 
ATOM      3  C   UNL     1       2.869   3.459  19.960  0.00  0.00    +0.000 C 
ATOM      4  O   UNL     1       2.499   4.620  20.697  0.00  0.00    +0.000 OA
ATOM      5  C   UNL     1       2.280   5.853  20.162  0.00  0.00    +0.000 A 
ATOM      6  C   UNL     1       1.420   6.598  20.989  0.00  0.00    +0.000 A 
ATOM      7  C   UNL     1       1.046   7.902  20.672  0.00  0.00    +0.000 A 
ATOM      8  C   UNL     1       1.549   8.500  19.525  0.00  0.00    +0.000 A 
ATOM      9  C   UNL     1       2.435   7.779  18.701  0.00  0.00    +0.000 A 
ATOM     10  C   UNL     1       2.810   6.444  18.998  0.00  0.00    +0.000 A 
ATOM     11  C   UNL     1       3.700   5.741  18.066  0.00  0.00    +0.000 A 
ATOM     12  N   UNL     1       4.714   6.376  17.344  0.00  0.00    +0.000 NA
ATOM     13  C   UNL     1       5.350   5.482  16.598  0.00  0.00    +0.000 A 
ATOM     14  S   UNL     1       4.750   3.887  16.680  0.00  0.00    +0.000 S 
ATOM     15  C   UNL     1       3.569   4.385  17.811  0.00  0.00    +0.000 A 
ENDROOT
BRANCH  13  16
ATOM     16  C   UNL     1       6.498   5.769  15.740  0.00  0.00    +0.000 C 
ATOM     17  N   UNL     1       7.522   6.460  16.332  0.00  0.00    +0.000 N 
ATOM     18  O   UNL     1       6.616   5.438  14.559  0.00  0.00    +0.000 OA
ATOM     19  H   UNL     1       7.461   6.711  17.309  0.00  0.00    +0.000 HD
ATOM     20  H   UNL     1       8.356   6.647  15.794  0.00  0.00    +0.000 HD
ENDBRANCH  13  16
BRANCH   8  21
ATOM     21  C   UNL     1       1.149   9.842  19.214  0.00  0.00    +0.000 C 
ATOM     22  C   UNL     1       0.789  10.971  18.987  0.00  0.00    +0.000 C 
BRANCH  22  23
ATOM     23  C   UNL     1       0.278  12.354  18.946  0.00  0.00    +0.000 C 
ATOM     24  C   UNL     1       1.469  13.303  18.741  0.00  0.00    +0.000 C 
ATOM     25  C   UNL     1       1.023  14.756  18.662  0.00  0.00    +0.000 C 
ATOM     26  C   UNL     1       0.223  15.115  19.900  0.00  0.00    +0.000 C 
ATOM     27  N   UNL     1      -0.897  14.196  20.076  0.00  0.00    +0.000 N 
ATOM     28  C   UNL     1      -2.094  14.696  20.727  0.00  0.00    +0.000 C 
ATOM     29  C   UNL     1      -0.603  12.810  20.152  0.00  0.00    +0.000 C 
ATOM     30  O   UNL     1      -1.165  12.058  20.943  0.00  0.00    +0.000 OA
BRANCH  23  31
ATOM     31  O   UNL     1      -0.575  12.460  17.790  0.00  0.00    +0.000 OA
ATOM     32  H   UNL     1       0.015  12.425  17.015  0.00  0.00    +0.000 HD
ENDBRANCH  23  31
ENDBRANCH  22  23
ENDBRANCH   8  21
TORSDOF 4
ENDMDL
MODEL 2
REMARK VINA RESULT:      -8.3      0.915      1.015
REMARK  Name = 
REMARK  6 active torsions:
REMARK  status: ('A' for Active; 'I' for Inactive)
REMARK    1  A    between atoms: C_1  and  C_2
REMARK    2  A    between atoms: C_8  and  C_9
REMARK    3  A    between atoms: C_10  and  C_11
REMARK    4  A    between atoms: C_11  and  O_12
REMARK    5  A    between atoms: N_16  and  C_17
REMARK    6  A    between atoms: C_24  and  C_25
REMARK                            x       y       z     vdW  Elec       q    Type
REMARK                         _______ _______ _______ _____ _____    ______ ____
ROOT
ATOM      1  C   UNL     1       2.537   2.016  17.788  0.00  0.00    +0.000 C 
ATOM      2  C   UNL     1       2.517   3.437  18.364  0.00  0.00    +0.000 C 
ATOM      3  C   UNL     1       2.638   3.372  19.888  0.00  0.00    +0.000 C 
ATOM      4  O   UNL     1       2.267   4.527  20.633  0.00  0.00    +0.000 OA
ATOM      5  C   UNL     1       2.186   5.792  20.133  0.00  0.00    +0.000 A 
ATOM      6  C   UNL     1       1.292   6.562  20.899  0.00  0.00    +0.000 A 
ATOM      7  C   UNL     1       1.038   7.900  20.603  0.00  0.00    +0.000 A 
ATOM      8  C   UNL     1       1.697   8.505  19.542  0.00  0.00    +0.000 A 
ATOM      9  C   UNL     1       2.619   7.755  18.783  0.00  0.00    +0.000 A 
ATOM     10  C   UNL     1       2.873   6.388  19.058  0.00  0.00    +0.000 A 
ATOM     11  C   UNL     1       3.811   5.661  18.193  0.00  0.00    +0.000 A 
ATOM     12  N   UNL     1       4.934   6.252  17.609  0.00  0.00    +0.000 NA
ATOM     13  C   UNL     1       5.587   5.345  16.894  0.00  0.00    +0.000 A 
ATOM     14  S   UNL     1       4.881   3.793  16.842  0.00  0.00    +0.000 S 
ATOM     15  C   UNL     1       3.621   4.328  17.866  0.00  0.00    +0.000 A 
ENDROOT
BRANCH  13  16
ATOM     16  C   UNL     1       6.836   5.584  16.173  0.00  0.00    +0.000 C 
ATOM     17  N   UNL     1       7.492   6.743  16.495  0.00  0.00    +0.000 N 
ATOM     18  O   UNL     1       7.336   4.839  15.328  0.00  0.00    +0.000 OA
ATOM     19  H   UNL     1       7.119   7.352  17.209  0.00  0.00    +0.000 HD
ATOM     20  H   UNL     1       8.381   6.936  16.054  0.00  0.00    +0.000 HD
ENDBRANCH  13  16
BRANCH   8  21
ATOM     21  C   UNL     1       1.420   9.881  19.251  0.00  0.00    +0.000 C 
ATOM     22  C   UNL     1       1.219  11.050  19.031  0.00  0.00    +0.000 C 
BRANCH  22  23
ATOM     23  C   UNL     1       1.206  12.513  18.842  0.00  0.00    +0.000 C 
ATOM     24  C   UNL     1       2.556  12.936  18.245  0.00  0.00    +0.000 C 
ATOM     25  C   UNL     1       2.616  14.436  17.993  0.00  0.00    +0.000 C 
ATOM     26  C   UNL     1       2.307  15.184  19.277  0.00  0.00    +0.000 C 
ATOM     27  N   UNL     1       1.023  14.760  19.826  0.00  0.00    +0.000 N 
ATOM     28  C   UNL     1       0.258  15.724  20.594  0.00  0.00    +0.000 C 
ATOM     29  C   UNL     1       0.848  13.377  20.093  0.00  0.00    +0.000 C 
ATOM     30  O   UNL     1       0.277  12.965  21.099  0.00  0.00    +0.000 OA
BRANCH  23  31
ATOM     31  O   UNL     1       0.182  12.807  17.871  0.00  0.00    +0.000 OA
ATOM     32  H   UNL     1       0.013  13.765  17.938  0.00  0.00    +0.000 HD
ENDBRANCH  23  31
ENDBRANCH  22  23
ENDBRANCH   8  21
TORSDOF 4
ENDMDL
MODEL 3
REMARK VINA RESULT:      -8.2      1.231      1.873
REMARK  Name = 
REMARK  6 active torsions:
REMARK  status: ('A' for Active; 'I' for Inactive)
REMARK    1  A    between atoms: C_1  and  C_2
REMARK    2  A    between atoms: C_8  and  C_9
REMARK    3  A    between atoms: C_10  and  C_11
REMARK    4  A    between atoms: C_11  and  O_12
REMARK    5  A    between atoms: N_16  and  C_17
REMARK    6  A    between atoms: C_24  and  C_25
REMARK                            x       y       z     vdW  Elec       q    Type
REMARK                         _______ _______ _______ _____ _____    ______ ____
ROOT
ATOM      1  C   UNL     1       2.896   1.944  17.417  0.00  0.00    +0.000 C 
ATOM      2  C   UNL     1       2.799   3.288  18.148  0.00  0.00    +0.000 C 
ATOM      3  C   UNL     1       2.947   3.063  19.654  0.00  0.00    +0.000 C 
ATOM      4  O   UNL     1       2.517   4.103  20.526  0.00  0.00    +0.000 OA
ATOM      5  C   UNL     1       2.352   5.408  20.171  0.00  0.00    +0.000 A 
ATOM      6  C   UNL     1       1.424   6.031  21.025  0.00  0.00    +0.000 A 
ATOM      7  C   UNL     1       1.084   7.375  20.882  0.00  0.00    +0.000 A 
ATOM      8  C   UNL     1       1.690   8.133  19.890  0.00  0.00    +0.000 A 
ATOM      9  C   UNL     1       2.643   7.531  19.044  0.00  0.00    +0.000 A 
ATOM     10  C   UNL     1       2.985   6.160  19.163  0.00  0.00    +0.000 A 
ATOM     11  C   UNL     1       3.952   5.593  18.215  0.00  0.00    +0.000 A 
ATOM     12  N   UNL     1       5.028   6.314  17.691  0.00  0.00    +0.000 NA
ATOM     13  C   UNL     1       5.724   5.534  16.874  0.00  0.00    +0.000 A 
ATOM     14  S   UNL     1       5.113   3.956  16.655  0.00  0.00    +0.000 S 
ATOM     15  C   UNL     1       3.838   4.295  17.743  0.00  0.00    +0.000 A 
ENDROOT
BRANCH  13  16
ATOM     16  C   UNL     1       6.945   5.929  16.174  0.00  0.00    +0.000 C 
ATOM     17  N   UNL     1       7.251   5.194  15.059  0.00  0.00    +0.000 N 
ATOM     18  O   UNL     1       7.694   6.853  16.495  0.00  0.00    +0.000 OA
ATOM     19  H   UNL     1       6.633   4.455  14.757  0.00  0.00    +0.000 HD
ATOM     20  H   UNL     1       8.063   5.453  14.515  0.00  0.00    +0.000 HD
ENDBRANCH  13  16
BRANCH   8  21
ATOM     21  C   UNL     1       1.325   9.513  19.756  0.00  0.00    +0.000 C 
ATOM     22  C   UNL     1       1.026  10.680  19.685  0.00  0.00    +0.000 C 
BRANCH  22  23
ATOM     23  C   UNL     1       0.785  12.130  19.810  0.00  0.00    +0.000 C 
ATOM     24  C   UNL     1      -0.726  12.381  19.700  0.00  0.00    +0.000 C 
ATOM     25  C   UNL     1      -1.064  13.858  19.846  0.00  0.00    +0.000 C 
ATOM     26  C   UNL     1      -0.282  14.666  18.826  0.00  0.00    +0.000 C 
ATOM     27  N   UNL     1       1.148  14.405  18.947  0.00  0.00    +0.000 N 
ATOM     28  C   UNL     1       2.068  15.468  18.589  0.00  0.00    +0.000 C 
ATOM     29  C   UNL     1       1.582  13.058  18.839  0.00  0.00    +0.000 C 
ATOM     30  O   UNL     1       2.596  12.737  18.225  0.00  0.00    +0.000 OA
BRANCH  23  31
ATOM     31  O   UNL     1       1.202  12.518  21.134  0.00  0.00    +0.000 OA
ATOM     32  H   UNL     1       1.865  11.861  21.412  0.00  0.00    +0.000 HD
ENDBRANCH  23  31
ENDBRANCH  22  23
ENDBRANCH   8  21
TORSDOF 4
ENDMDL
MODEL 4
REMARK VINA RESULT:      -8.1      1.401      1.543
REMARK  Name = 
REMARK  6 active torsions:
REMARK  status: ('A' for Active; 'I' for Inactive)
REMARK    1  A    between atoms: C_1  and  C_2
REMARK    2  A    between atoms: C_8  and  C_9
REMARK    3  A    between atoms: C_10  and  C_11
REMARK    4  A    between atoms: C_11  and  O_12
REMARK    5  A    between atoms: N_16  and  C_17
REMARK    6  A    between atoms: C_24  and  C_25
REMARK                            x       y       z     vdW  Elec       q    Type
REMARK                         _______ _______ _______ _____ _____    ______ ____
ROOT
ATOM      1  C   UNL     1       1.184   2.346  18.487  0.00  0.00    +0.000 C 
ATOM      2  C   UNL     1       1.463   3.793  18.908  0.00  0.00    +0.000 C 
ATOM      3  C   UNL     1       1.778   3.838  20.405  0.00  0.00    +0.000 C 
ATOM      4  O   UNL     1       1.695   5.098  21.064  0.00  0.00    +0.000 OA
ATOM      5  C   UNL     1       1.744   6.311  20.446  0.00  0.00    +0.000 A 
ATOM      6  C   UNL     1       1.093   7.282  21.228  0.00  0.00    +0.000 A 
ATOM      7  C   UNL     1       1.012   8.614  20.826  0.00  0.00    +0.000 A 
ATOM      8  C   UNL     1       1.607   9.008  19.636  0.00  0.00    +0.000 A 
ATOM      9  C   UNL     1       2.289   8.053  18.854  0.00  0.00    +0.000 A 
ATOM     10  C   UNL     1       2.363   6.690  19.240  0.00  0.00    +0.000 A 
ATOM     11  C   UNL     1       3.050   5.746  18.350  0.00  0.00    +0.000 A 
ATOM     12  N   UNL     1       4.162   6.089  17.576  0.00  0.00    +0.000 NA
ATOM     13  C   UNL     1       4.563   5.029  16.887  0.00  0.00    +0.000 A 
ATOM     14  S   UNL     1       3.624   3.618  17.084  0.00  0.00    +0.000 S 
ATOM     15  C   UNL     1       2.613   4.441  18.190  0.00  0.00    +0.000 A 
ENDROOT
BRANCH  13  16
ATOM     16  C   UNL     1       5.724   4.994  16.000  0.00  0.00    +0.000 C 
ATOM     17  N   UNL     1       5.812   6.023  15.100  0.00  0.00    +0.000 N 
ATOM     18  O   UNL     1       6.611   4.138  16.005  0.00  0.00    +0.000 OA
ATOM     19  H   UNL     1       5.116   6.754  15.100  0.00  0.00    +0.000 HD
ATOM     20  H   UNL     1       6.619   6.068  14.491  0.00  0.00    +0.000 HD
ENDBRANCH  13  16
BRANCH   8  21
ATOM     21  C   UNL     1       1.510  10.381  19.237  0.00  0.00    +0.000 C 
ATOM     22  C   UNL     1       1.456  11.547  18.932  0.00  0.00    +0.000 C 
BRANCH  22  23
ATOM     23  C   UNL     1       1.605  12.993  18.679  0.00  0.00    +0.000 C 
ATOM     24  C   UNL     1       2.779  13.513  19.522  0.00  0.00    +0.000 C 
ATOM     25  C   UNL     1       3.019  14.999  19.298  0.00  0.00    +0.000 C 
ATOM     26  C   UNL     1       1.741  15.771  19.574  0.00  0.00    +0.000 C 
ATOM     27  N   UNL     1       0.641  15.255  18.767  0.00  0.00    +0.000 N 
ATOM     28  C   UNL     1      -0.408  16.176  18.374  0.00  0.00    +0.000 C 
ATOM     29  C   UNL     1       0.332  13.875  18.884  0.00  0.00    +0.000 C 
ATOM     30  O   UNL     1      -0.822  13.456  18.916  0.00  0.00    +0.000 OA
BRANCH  23  31
ATOM     31  O   UNL     1       1.956  13.149  17.290  0.00  0.00    +0.000 OA
ATOM     32  H   UNL     1       2.717  12.560  17.136  0.00  0.00    +0.000 HD
ENDBRANCH  23  31
ENDBRANCH  22  23
ENDBRANCH   8  21
TORSDOF 4
ENDMDL
MODEL 5
REMARK VINA RESULT:      -7.8      2.685      4.438
REMARK  Name = 
REMARK  6 active torsions:
REMARK  status: ('A' for Active; 'I' for Inactive)
REMARK    1  A    between atoms: C_1  and  C_2
REMARK    2  A    between atoms: C_8  and  C_9
REMARK    3  A    between atoms: C_10  and  C_11
REMARK    4  A    between atoms: C_11  and  O_12
REMARK    5  A    between atoms: N_16  and  C_17
REMARK    6  A    between atoms: C_24  and  C_25
REMARK                            x       y       z     vdW  Elec       q    Type
REMARK                         _______ _______ _______ _____ _____    ______ ____
ROOT
ATOM      1  C   UNL     1       6.379   5.062  18.231  0.00  0.00    +0.000 C 
ATOM      2  C   UNL     1       5.119   5.927  18.356  0.00  0.00    +0.000 C 
ATOM      3  C   UNL     1       4.505   6.137  16.971  0.00  0.00    +0.000 C 
ATOM      4  O   UNL     1       3.569   7.199  16.814  0.00  0.00    +0.000 OA
ATOM      5  C   UNL     1       2.877   7.792  17.827  0.00  0.00    +0.000 A 
ATOM      6  C   UNL     1       2.505   9.099  17.463  0.00  0.00    +0.000 A 
ATOM      7  C   UNL     1       1.776   9.920  18.320  0.00  0.00    +0.000 A 
ATOM      8  C   UNL     1       1.381   9.436  19.560  0.00  0.00    +0.000 A 
ATOM      9  C   UNL     1       1.720   8.119  19.929  0.00  0.00    +0.000 A 
ATOM     10  C   UNL     1       2.479   7.278  19.076  0.00  0.00    +0.000 A 
ATOM     11  C   UNL     1       2.834   5.934  19.550  0.00  0.00    +0.000 A 
ATOM     12  N   UNL     1       2.006   5.165  20.372  0.00  0.00    +0.000 NA
ATOM     13  C   UNL     1       2.592   4.002  20.622  0.00  0.00    +0.000 A 
ATOM     14  S   UNL     1       4.145   3.794  19.948  0.00  0.00    +0.000 S 
ATOM     15  C   UNL     1       4.048   5.345  19.236  0.00  0.00    +0.000 A 
ENDROOT
BRANCH  13  16
ATOM     16  C   UNL     1       2.007   2.920  21.413  0.00  0.00    +0.000 C 
ATOM     17  N   UNL     1       0.673   2.689  21.203  0.00  0.00    +0.000 N 
ATOM     18  O   UNL     1       2.608   2.213  22.223  0.00  0.00    +0.000 OA
ATOM     19  H   UNL     1       0.169   3.233  20.518  0.00  0.00    +0.000 HD
ATOM     20  H   UNL     1       0.230   1.924  21.695  0.00  0.00    +0.000 HD
ENDBRANCH  13  16
BRANCH   8  21
ATOM     21  C   UNL     1       0.634  10.297  20.430  0.00  0.00    +0.000 C 
ATOM     22  C   UNL     1      -0.013  11.038  21.129  0.00  0.00    +0.000 C 
BRANCH  22  23
ATOM     23  C   UNL     1      -0.953  11.965  21.787  0.00  0.00    +0.000 C 
ATOM     24  C   UNL     1      -1.666  11.210  22.918  0.00  0.00    +0.000 C 
ATOM     25  C   UNL     1      -2.640  12.107  23.668  0.00  0.00    +0.000 C 
ATOM     26  C   UNL     1      -3.626  12.722  22.692  0.00  0.00    +0.000 C 
ATOM     27  N   UNL     1      -2.925  13.427  21.624  0.00  0.00    +0.000 N 
ATOM     28  C   UNL     1      -3.581  14.569  21.016  0.00  0.00    +0.000 C 
ATOM     29  C   UNL     1      -1.980  12.692  20.861  0.00  0.00    +0.000 C 
ATOM     30  O   UNL     1      -1.874  12.815  19.645  0.00  0.00    +0.000 OA
BRANCH  23  31
ATOM     31  O   UNL     1      -0.168  13.016  22.383  0.00  0.00    +0.000 OA
ATOM     32  H   UNL     1       0.160  12.661  23.229  0.00  0.00    +0.000 HD
ENDBRANCH  23  31
ENDBRANCH  22  23
ENDBRANCH   8  21
TORSDOF 4
ENDMDL
MODEL 6
REMARK VINA RESULT:      -7.8      7.191     10.803
REMARK  Name = 
REMARK  6 active torsions:
REMARK  status: ('A' for Active; 'I' for Inactive)
REMARK    1  A    between atoms: C_1  and  C_2
REMARK    2  A    between atoms: C_8  and  C_9
REMARK    3  A    between atoms: C_10  and  C_11
REMARK    4  A    between atoms: C_11  and  O_12
REMARK    5  A    between atoms: N_16  and  C_17
REMARK    6  A    between atoms: C_24  and  C_25
REMARK                            x       y       z     vdW  Elec       q    Type
REMARK                         _______ _______ _______ _____ _____    ______ ____
ROOT
ATOM      1  C   UNL     1       9.200  16.412  21.437  0.00  0.00    +0.000 C 
ATOM      2  C   UNL     1       9.399  14.968  20.962  0.00  0.00    +0.000 C 
ATOM      3  C   UNL     1      10.888  14.710  20.721  0.00  0.00    +0.000 C 
ATOM      4  O   UNL     1      11.246  13.581  19.932  0.00  0.00    +0.000 OA
ATOM      5  C   UNL     1      10.448  12.502  19.696  0.00  0.00    +0.000 A 
ATOM      6  C   UNL     1      10.821  11.873  18.495  0.00  0.00    +0.000 A 
ATOM      7  C   UNL     1      10.167  10.734  18.029  0.00  0.00    +0.000 A 
ATOM      8  C   UNL     1       9.135  10.184  18.775  0.00  0.00    +0.000 A 
ATOM      9  C   UNL     1       8.767  10.785  19.997  0.00  0.00    +0.000 A 
ATOM     10  C   UNL     1       9.409  11.955  20.474  0.00  0.00    +0.000 A 
ATOM     11  C   UNL     1       8.939  12.550  21.731  0.00  0.00    +0.000 A 
ATOM     12  N   UNL     1       8.450  11.798  22.803  0.00  0.00    +0.000 NA
ATOM     13  C   UNL     1       8.113  12.612  23.794  0.00  0.00    +0.000 A 
ATOM     14  S   UNL     1       8.308  14.278  23.485  0.00  0.00    +0.000 S 
ATOM     15  C   UNL     1       8.916  13.922  21.928  0.00  0.00    +0.000 A 
ENDROOT
BRANCH  13  16
ATOM     16  C   UNL     1       7.603  12.183  25.096  0.00  0.00    +0.000 C 
ATOM     17  N   UNL     1       6.600  11.250  25.060  0.00  0.00    +0.000 N 
ATOM     18  O   UNL     1       8.002  12.578  26.193  0.00  0.00    +0.000 OA
ATOM     19  H   UNL     1       6.281  10.887  24.173  0.00  0.00    +0.000 HD
ATOM     20  H   UNL     1       6.241  10.890  25.934  0.00  0.00    +0.000 HD
ENDBRANCH  13  16
BRANCH   8  21
ATOM     21  C   UNL     1       8.472   9.014  18.279  0.00  0.00    +0.000 C 
ATOM     22  C   UNL     1       7.882   8.036  17.887  0.00  0.00    +0.000 C 
BRANCH  22  23
ATOM     23  C   UNL     1       6.962   6.947  17.510  0.00  0.00    +0.000 C 
ATOM     24  C   UNL     1       5.712   7.569  16.869  0.00  0.00    +0.000 C 
ATOM     25  C   UNL     1       4.718   6.506  16.426  0.00  0.00    +0.000 C 
ATOM     26  C   UNL     1       4.364   5.613  17.601  0.00  0.00    +0.000 C 
ATOM     27  N   UNL     1       5.567   5.040  18.195  0.00  0.00    +0.000 N 
ATOM     28  C   UNL     1       5.461   3.739  18.829  0.00  0.00    +0.000 C 
ATOM     29  C   UNL     1       6.573   5.938  18.638  0.00  0.00    +0.000 C 
ATOM     30  O   UNL     1       7.191   5.775  19.686  0.00  0.00    +0.000 OA
BRANCH  23  31
ATOM     31  O   UNL     1       7.626   6.156  16.505  0.00  0.00    +0.000 OA
ATOM     32  H   UNL     1       7.923   6.783  15.820  0.00  0.00    +0.000 HD
ENDBRANCH  23  31
ENDBRANCH  22  23
ENDBRANCH   8  21
TORSDOF 4
ENDMDL
MODEL 7
REMARK VINA RESULT:      -7.7      1.216      1.274
REMARK  Name = 
REMARK  6 active torsions:
REMARK  status: ('A' for Active; 'I' for Inactive)
REMARK    1  A    between atoms: C_1  and  C_2
REMARK    2  A    between atoms: C_8  and  C_9
REMARK    3  A    between atoms: C_10  and  C_11
REMARK    4  A    between atoms: C_11  and  O_12
REMARK    5  A    between atoms: N_16  and  C_17
REMARK    6  A    between atoms: C_24  and  C_25
REMARK                            x       y       z     vdW  Elec       q    Type
REMARK                         _______ _______ _______ _____ _____    ______ ____
ROOT
ATOM      1  C   UNL     1       3.273   1.871  17.173  0.00  0.00    +0.000 C 
ATOM      2  C   UNL     1       3.094   3.154  17.992  0.00  0.00    +0.000 C 
ATOM      3  C   UNL     1       3.251   2.836  19.481  0.00  0.00    +0.000 C 
ATOM      4  O   UNL     1       2.758   3.787  20.419  0.00  0.00    +0.000 OA
ATOM      5  C   UNL     1       2.517   5.101  20.152  0.00  0.00    +0.000 A 
ATOM      6  C   UNL     1       1.551   5.609  21.040  0.00  0.00    +0.000 A 
ATOM      7  C   UNL     1       1.133   6.937  20.987  0.00  0.00    +0.000 A 
ATOM      8  C   UNL     1       1.695   7.796  20.052  0.00  0.00    +0.000 A 
ATOM      9  C   UNL     1       2.684   7.310  19.174  0.00  0.00    +0.000 A 
ATOM     10  C   UNL     1       3.106   5.957  19.202  0.00  0.00    +0.000 A 
ATOM     11  C   UNL     1       4.108   5.514  18.223  0.00  0.00    +0.000 A 
ATOM     12  N   UNL     1       5.141   6.331  17.756  0.00  0.00    +0.000 NA
ATOM     13  C   UNL     1       5.883   5.651  16.893  0.00  0.00    +0.000 A 
ATOM     14  S   UNL     1       5.368   4.059  16.564  0.00  0.00    +0.000 S 
ATOM     15  C   UNL     1       4.072   4.246  17.664  0.00  0.00    +0.000 A 
ENDROOT
BRANCH  13  16
ATOM     16  C   UNL     1       7.081   6.164  16.229  0.00  0.00    +0.000 C 
ATOM     17  N   UNL     1       7.466   5.489  15.101  0.00  0.00    +0.000 N 
ATOM     18  O   UNL     1       7.746   7.136  16.591  0.00  0.00    +0.000 OA
ATOM     19  H   UNL     1       6.917   4.711  14.766  0.00  0.00    +0.000 HD
ATOM     20  H   UNL     1       8.264   5.829  14.581  0.00  0.00    +0.000 HD
ENDBRANCH  13  16
BRANCH   8  21
ATOM     21  C   UNL     1       1.249   9.158  20.011  0.00  0.00    +0.000 C 
ATOM     22  C   UNL     1       0.836  10.291  19.985  0.00  0.00    +0.000 C 
BRANCH  22  23
ATOM     23  C   UNL     1       0.139  11.588  20.084  0.00  0.00    +0.000 C 
ATOM     24  C   UNL     1       0.898  12.612  19.227  0.00  0.00    +0.000 C 
ATOM     25  C   UNL     1       0.226  13.977  19.255  0.00  0.00    +0.000 C 
ATOM     26  C   UNL     1       0.075  14.445  20.690  0.00  0.00    +0.000 C 
ATOM     27  N   UNL     1      -0.643  13.453  21.484  0.00  0.00    +0.000 N 
ATOM     28  C   UNL     1      -1.443  13.922  22.600  0.00  0.00    +0.000 C 
ATOM     29  C   UNL     1      -0.115  12.137  21.525  0.00  0.00    +0.000 C 
ATOM     30  O   UNL     1      -0.086  11.467  22.553  0.00  0.00    +0.000 OA
BRANCH  23  31
ATOM     31  O   UNL     1      -1.170  11.413  19.508  0.00  0.00    +0.000 OA
ATOM     32  H   UNL     1      -1.038  11.377  18.543  0.00  0.00    +0.000 HD
ENDBRANCH  23  31
ENDBRANCH  22  23
ENDBRANCH   8  21
TORSDOF 4
ENDMDL
MODEL 8
REMARK VINA RESULT:      -7.7      2.824      4.478
REMARK  Name = 
REMARK  6 active torsions:
REMARK  status: ('A' for Active; 'I' for Inactive)
REMARK    1  A    between atoms: C_1  and  C_2
REMARK    2  A    between atoms: C_8  and  C_9
REMARK    3  A    between atoms: C_10  and  C_11
REMARK    4  A    between atoms: C_11  and  O_12
REMARK    5  A    between atoms: N_16  and  C_17
REMARK    6  A    between atoms: C_24  and  C_25
REMARK                            x       y       z     vdW  Elec       q    Type
REMARK                         _______ _______ _______ _____ _____    ______ ____
ROOT
ATOM      1  C   UNL     1       6.299   5.490  18.394  0.00  0.00    +0.000 C 
ATOM      2  C   UNL     1       4.993   6.288  18.495  0.00  0.00    +0.000 C 
ATOM      3  C   UNL     1       4.421   6.510  17.094  0.00  0.00    +0.000 C 
ATOM      4  O   UNL     1       3.439   7.529  16.931  0.00  0.00    +0.000 OA
ATOM      5  C   UNL     1       2.682   8.056  17.934  0.00  0.00    +0.000 A 
ATOM      6  C   UNL     1       2.259   9.354  17.593  0.00  0.00    +0.000 A 
ATOM      7  C   UNL     1       1.458  10.111  18.445  0.00  0.00    +0.000 A 
ATOM      8  C   UNL     1       1.042   9.572  19.655  0.00  0.00    +0.000 A 
ATOM      9  C   UNL     1       1.433   8.262  19.998  0.00  0.00    +0.000 A 
ATOM     10  C   UNL     1       2.264   7.486  19.151  0.00  0.00    +0.000 A 
ATOM     11  C   UNL     1       2.668   6.147  19.600  0.00  0.00    +0.000 A 
ATOM     12  N   UNL     1       1.850   5.314  20.367  0.00  0.00    +0.000 NA
ATOM     13  C   UNL     1       2.484   4.173  20.606  0.00  0.00    +0.000 A 
ATOM     14  S   UNL     1       4.069   4.063  19.987  0.00  0.00    +0.000 S 
ATOM     15  C   UNL     1       3.921   5.628  19.316  0.00  0.00    +0.000 A 
ENDROOT
BRANCH  13  16
ATOM     16  C   UNL     1       1.925   3.040  21.342  0.00  0.00    +0.000 C 
ATOM     17  N   UNL     1       0.738   2.551  20.863  0.00  0.00    +0.000 N 
ATOM     18  O   UNL     1       2.431   2.499  22.327  0.00  0.00    +0.000 OA
ATOM     19  H   UNL     1       0.323   2.957  20.036  0.00  0.00    +0.000 HD
ATOM     20  H   UNL     1       0.331   1.742  21.311  0.00  0.00    +0.000 HD
ENDBRANCH  13  16
BRANCH   8  21
ATOM     21  C   UNL     1       0.221  10.368  20.520  0.00  0.00    +0.000 C 
ATOM     22  C   UNL     1      -0.437  11.063  21.254  0.00  0.00    +0.000 C 
BRANCH  22  23
ATOM     23  C   UNL     1      -1.071  12.087  22.106  0.00  0.00    +0.000 C 
ATOM     24  C   UNL     1      -2.524  12.270  21.643  0.00  0.00    +0.000 C 
ATOM     25  C   UNL     1      -3.261  13.296  22.492  0.00  0.00    +0.000 C 
ATOM     26  C   UNL     1      -2.498  14.608  22.486  0.00  0.00    +0.000 C 
ATOM     27  N   UNL     1      -1.120  14.407  22.923  0.00  0.00    +0.000 N 
ATOM     28  C   UNL     1      -0.453  15.503  23.599  0.00  0.00    +0.000 C 
ATOM     29  C   UNL     1      -0.337  13.462  22.210  0.00  0.00    +0.000 C 
ATOM     30  O   UNL     1       0.841  13.659  21.928  0.00  0.00    +0.000 OA
BRANCH  23  31
ATOM     31  O   UNL     1      -1.098  11.567  23.449  0.00  0.00    +0.000 OA
ATOM     32  H   UNL     1      -0.197  11.244  23.632  0.00  0.00    +0.000 HD
ENDBRANCH  23  31
ENDBRANCH  22  23
ENDBRANCH   8  21
TORSDOF 4
ENDMDL
MODEL 9
REMARK VINA RESULT:      -7.7      3.485      9.103
REMARK  Name = 
REMARK  6 active torsions:
REMARK  status: ('A' for Active; 'I' for Inactive)
REMARK    1  A    between atoms: C_1  and  C_2
REMARK    2  A    between atoms: C_8  and  C_9
REMARK    3  A    between atoms: C_10  and  C_11
REMARK    4  A    between atoms: C_11  and  O_12
REMARK    5  A    between atoms: N_16  and  C_17
REMARK    6  A    between atoms: C_24  and  C_25
REMARK                            x       y       z     vdW  Elec       q    Type
REMARK                         _______ _______ _______ _____ _____    ______ ____
ROOT
ATOM      1  C   UNL     1       0.073  15.503  21.407  0.00  0.00    +0.000 C 
ATOM      2  C   UNL     1       0.291  14.306  20.474  0.00  0.00    +0.000 C 
ATOM      3  C   UNL     1      -0.802  14.286  19.404  0.00  0.00    +0.000 C 
ATOM      4  O   UNL     1      -1.005  13.074  18.684  0.00  0.00    +0.000 OA
ATOM      5  C   UNL     1      -0.095  12.066  18.571  0.00  0.00    +0.000 A 
ATOM      6  C   UNL     1      -0.749  10.846  18.319  0.00  0.00    +0.000 A 
ATOM      7  C   UNL     1      -0.042   9.658  18.150  0.00  0.00    +0.000 A 
ATOM      8  C   UNL     1       1.345   9.671  18.206  0.00  0.00    +0.000 A 
ATOM      9  C   UNL     1       2.017  10.890  18.428  0.00  0.00    +0.000 A 
ATOM     10  C   UNL     1       1.311  12.104  18.623  0.00  0.00    +0.000 A 
ATOM     11  C   UNL     1       2.080  13.326  18.897  0.00  0.00    +0.000 A 
ATOM     12  N   UNL     1       3.338  13.582  18.347  0.00  0.00    +0.000 NA
ATOM     13  C   UNL     1       3.772  14.762  18.772  0.00  0.00    +0.000 A 
ATOM     14  S   UNL     1       2.747  15.579  19.863  0.00  0.00    +0.000 S 
ATOM     15  C   UNL     1       1.614  14.304  19.761  0.00  0.00    +0.000 A 
ENDROOT
BRANCH  13  16
ATOM     16  C   UNL     1       5.032  15.386  18.373  0.00  0.00    +0.000 C 
ATOM     17  N   UNL     1       5.916  14.569  17.718  0.00  0.00    +0.000 N 
ATOM     18  O   UNL     1       5.348  16.561  18.566  0.00  0.00    +0.000 OA
ATOM     19  H   UNL     1       5.664  13.611  17.519  0.00  0.00    +0.000 HD
ATOM     20  H   UNL     1       6.785  14.963  17.385  0.00  0.00    +0.000 HD
ENDBRANCH  13  16
BRANCH   8  21
ATOM     21  C   UNL     1       2.055   8.437  18.032  0.00  0.00    +0.000 C 
ATOM     22  C   UNL     1       2.662   7.400  17.926  0.00  0.00    +0.000 C 
BRANCH  22  23
ATOM     23  C   UNL     1       3.386   6.120  18.044  0.00  0.00    +0.000 C 
ATOM     24  C   UNL     1       4.671   6.212  17.208  0.00  0.00    +0.000 C 
ATOM     25  C   UNL     1       5.493   4.934  17.296  0.00  0.00    +0.000 C 
ATOM     26  C   UNL     1       4.640   3.747  16.891  0.00  0.00    +0.000 C 
ATOM     27  N   UNL     1       3.424   3.685  17.695  0.00  0.00    +0.000 N 
ATOM     28  C   UNL     1       2.840   2.382  17.950  0.00  0.00    +0.000 C 
ATOM     29  C   UNL     1       2.581   4.827  17.699  0.00  0.00    +0.000 C 
ATOM     30  O   UNL     1       1.357   4.745  17.657  0.00  0.00    +0.000 OA
BRANCH  23  31
ATOM     31  O   UNL     1       3.769   5.973  19.426  0.00  0.00    +0.000 OA
ATOM     32  H   UNL     1       3.436   5.101  19.707  0.00  0.00    +0.000 HD
ENDBRANCH  23  31
ENDBRANCH  22  23
ENDBRANCH   8  21
TORSDOF 4
ENDMDL
