MODEL 1
REMARK VINA RESULT:      -7.1      0.000      0.000
REMARK  Name = 
REMARK  8 active torsions:
REMARK  status: ('A' for Active; 'I' for Inactive)
REMARK    1  A    between atoms: C_1  and  O_2
REMARK    2  A    between atoms: O_2  and  C_3
REMARK    3  A    between atoms: C_6  and  N_7
REMARK    4  A    between atoms: N_7  and  C_8
REMARK    5  A    between atoms: C_14  and  C_15
REMARK    6  A    between atoms: C_15  and  O_17
REMARK    7  A    between atoms: C_20  and  O_21
REMARK    8  A    between atoms: O_21  and  C_22
REMARK                            x       y       z     vdW  Elec       q    Type
REMARK                         _______ _______ _______ _____ _____    ______ ____
ROOT
ATOM      1  C   UNL     1       2.248   5.656  19.997  0.00  0.00    +0.000 A 
ATOM      2  N   UNL     1       1.290   5.001  20.705  0.00  0.00    +0.000 NA
ATOM      3  C   UNL     1       1.049   3.707  20.469  0.00  0.00    +0.000 A 
ATOM      4  N   UNL     1       1.667   2.925  19.586  0.00  0.00    +0.000 NA
ATOM      5  C   UNL     1       2.599   3.587  18.887  0.00  0.00    +0.000 A 
ATOM      6  S   UNL     1       3.516   2.765  17.715  0.00  0.00    +0.000 S 
ATOM      7  C   UNL     1       4.403   4.167  17.320  0.00  0.00    +0.000 A 
ATOM      8  C   UNL     1       3.989   5.250  18.078  0.00  0.00    +0.000 A 
ATOM      9  C   UNL     1       2.940   4.927  19.006  0.00  0.00    +0.000 A 
ENDROOT
BRANCH   1  10
ATOM     10  N   UNL     1       2.502   7.004  20.289  0.00  0.00    +0.000 N 
ATOM     11  H   UNL     1       3.022   7.205  21.132  0.00  0.00    +0.000 HD
BRANCH  10  15
ATOM     12  C   UNL     1       0.389  10.388  18.851  0.00  0.00    +0.000 A 
ATOM     13  C   UNL     1       1.166   9.620  17.993  0.00  0.00    +0.000 A 
ATOM     14  C   UNL     1       1.862   8.515  18.474  0.00  0.00    +0.000 A 
ATOM     15  C   UNL     1       1.777   8.127  19.819  0.00  0.00    +0.000 A 
ATOM     16  C   UNL     1       0.984   8.905  20.692  0.00  0.00    +0.000 A 
ATOM     17  C   UNL     1       0.307  10.037  20.201  0.00  0.00    +0.000 A 
BRANCH  12  19
ATOM     18  C   UNL     1      -1.589  11.691  18.626  0.00  0.00    +0.000 C 
ATOM     19  O   UNL     1      -0.243  11.439  18.247  0.00  0.00    +0.000 OA
ENDBRANCH  12  19
BRANCH  16  20
ATOM     20  O   UNL     1       0.921   8.481  22.002  0.00  0.00    +0.000 OA
ATOM     21  C   UNL     1       0.335   9.379  22.941  0.00  0.00    +0.000 C 
ENDBRANCH  16  20
ENDBRANCH  10  15
ENDBRANCH   1  10
BRANCH   7  22
ATOM     22  C   UNL     1       5.444   4.157  16.313  0.00  0.00    +0.000 C 
ATOM     23  O   UNL     1       5.249   4.301  15.112  0.00  0.00    +0.000 OA
BRANCH  22  24
ATOM     24  O   UNL     1       6.691   3.978  16.819  0.00  0.00    +0.000 OA
ATOM     25  H   UNL     1       6.672   3.724  17.762  0.00  0.00    +0.000 HD
ENDBRANCH  22  24
ENDBRANCH   7  22
TORSDOF 6
ENDMDL
MODEL 2
REMARK VINA RESULT:      -7.0      3.113      6.311
REMARK  Name = 
REMARK  8 active torsions:
REMARK  status: ('A' for Active; 'I' for Inactive)
REMARK    1  A    between atoms: C_1  and  O_2
REMARK    2  A    between atoms: O_2  and  C_3
REMARK    3  A    between atoms: C_6  and  N_7
REMARK    4  A    between atoms: N_7  and  C_8
REMARK    5  A    between atoms: C_14  and  C_15
REMARK    6  A    between atoms: C_15  and  O_17
REMARK    7  A    between atoms: C_20  and  O_21
REMARK    8  A    between atoms: O_21  and  C_22
REMARK                            x       y       z     vdW  Elec       q    Type
REMARK                         _______ _______ _______ _____ _____    ______ ____
ROOT
ATOM      1  C   UNL     1       4.799   3.587  19.327  0.00  0.00    +0.000 A 
ATOM      2  N   UNL     1       4.668   2.383  19.944  0.00  0.00    +0.000 NA
ATOM      3  C   UNL     1       3.626   2.154  20.751  0.00  0.00    +0.000 A 
ATOM      4  N   UNL     1       2.637   2.996  21.042  0.00  0.00    +0.000 NA
ATOM      5  C   UNL     1       2.787   4.183  20.438  0.00  0.00    +0.000 A 
ATOM      6  S   UNL     1       1.621   5.399  20.666  0.00  0.00    +0.000 S 
ATOM      7  C   UNL     1       2.454   6.489  19.652  0.00  0.00    +0.000 A 
ATOM      8  C   UNL     1       3.615   5.921  19.154  0.00  0.00    +0.000 A 
ATOM      9  C   UNL     1       3.821   4.569  19.597  0.00  0.00    +0.000 A 
ENDROOT
BRANCH   1  10
ATOM     10  N   UNL     1       5.882   3.788  18.460  0.00  0.00    +0.000 N 
ATOM     11  H   UNL     1       6.510   3.009  18.315  0.00  0.00    +0.000 HD
BRANCH  10  15
ATOM     12  C   UNL     1       7.617   7.524  17.450  0.00  0.00    +0.000 A 
ATOM     13  C   UNL     1       7.978   6.868  18.619  0.00  0.00    +0.000 A 
ATOM     14  C   UNL     1       7.399   5.645  18.947  0.00  0.00    +0.000 A 
ATOM     15  C   UNL     1       6.466   5.028  18.101  0.00  0.00    +0.000 A 
ATOM     16  C   UNL     1       6.100   5.693  16.909  0.00  0.00    +0.000 A 
ATOM     17  C   UNL     1       6.671   6.943  16.602  0.00  0.00    +0.000 A 
BRANCH  12  19
ATOM     18  C   UNL     1       8.569   9.487  18.400  0.00  0.00    +0.000 C 
ATOM     19  O   UNL     1       8.264   8.711  17.249  0.00  0.00    +0.000 OA
ENDBRANCH  12  19
BRANCH  16  20
ATOM     20  O   UNL     1       5.188   5.047  16.104  0.00  0.00    +0.000 OA
ATOM     21  C   UNL     1       5.646   4.627  14.821  0.00  0.00    +0.000 C 
ENDBRANCH  16  20
ENDBRANCH  10  15
ENDBRANCH   1  10
BRANCH   7  22
ATOM     22  C   UNL     1       1.953   7.822  19.385  0.00  0.00    +0.000 C 
ATOM     23  O   UNL     1       1.426   8.545  20.222  0.00  0.00    +0.000 OA
BRANCH  22  24
ATOM     24  O   UNL     1       2.127   8.223  18.100  0.00  0.00    +0.000 OA
ATOM     25  H   UNL     1       1.298   8.551  17.702  0.00  0.00    +0.000 HD
ENDBRANCH  22  24
ENDBRANCH   7  22
TORSDOF 6
ENDMDL
MODEL 3
REMARK VINA RESULT:      -7.0      2.638      6.838
REMARK  Name = 
REMARK  8 active torsions:
REMARK  status: ('A' for Active; 'I' for Inactive)
REMARK    1  A    between atoms: C_1  and  O_2
REMARK    2  A    between atoms: O_2  and  C_3
REMARK    3  A    between atoms: C_6  and  N_7
REMARK    4  A    between atoms: N_7  and  C_8
REMARK    5  A    between atoms: C_14  and  C_15
REMARK    6  A    between atoms: C_15  and  O_17
REMARK    7  A    between atoms: C_20  and  O_21
REMARK    8  A    between atoms: O_21  and  C_22
REMARK                            x       y       z     vdW  Elec       q    Type
REMARK                         _______ _______ _______ _____ _____    ______ ____
ROOT
ATOM      1  C   UNL     1       4.167   3.268  19.167  0.00  0.00    +0.000 A 
ATOM      2  N   UNL     1       3.730   1.981  19.165  0.00  0.00    +0.000 NA
ATOM      3  C   UNL     1       2.469   1.701  19.513  0.00  0.00    +0.000 A 
ATOM      4  N   UNL     1       1.526   2.568  19.874  0.00  0.00    +0.000 NA
ATOM      5  C   UNL     1       1.974   3.831  19.884  0.00  0.00    +0.000 A 
ATOM      6  S   UNL     1       0.920   5.096  20.304  0.00  0.00    +0.000 S 
ATOM      7  C   UNL     1       2.133   6.276  20.085  0.00  0.00    +0.000 A 
ATOM      8  C   UNL     1       3.331   5.696  19.702  0.00  0.00    +0.000 A 
ATOM      9  C   UNL     1       3.254   4.267  19.571  0.00  0.00    +0.000 A 
ENDROOT
BRANCH   1  10
ATOM     10  N   UNL     1       5.483   3.536  18.765  0.00  0.00    +0.000 N 
ATOM     11  H   UNL     1       6.155   3.747  19.490  0.00  0.00    +0.000 HD
BRANCH  10  15
ATOM     12  C   UNL     1       6.736   4.798  14.915  0.00  0.00    +0.000 A 
ATOM     13  C   UNL     1       5.477   4.244  15.104  0.00  0.00    +0.000 A 
ATOM     14  C   UNL     1       5.075   3.827  16.370  0.00  0.00    +0.000 A 
ATOM     15  C   UNL     1       5.909   3.978  17.487  0.00  0.00    +0.000 A 
ATOM     16  C   UNL     1       7.189   4.544  17.297  0.00  0.00    +0.000 A 
ATOM     17  C   UNL     1       7.595   4.937  16.008  0.00  0.00    +0.000 A 
BRANCH  12  19
ATOM     18  C   UNL     1       6.866   4.170  12.624  0.00  0.00    +0.000 C 
ATOM     19  O   UNL     1       6.999   5.169  13.625  0.00  0.00    +0.000 OA
ENDBRANCH  12  19
BRANCH  16  20
ATOM     20  O   UNL     1       7.970   4.683  18.424  0.00  0.00    +0.000 OA
ATOM     21  C   UNL     1       7.901   5.933  19.105  0.00  0.00    +0.000 C 
ENDBRANCH  16  20
ENDBRANCH  10  15
ENDBRANCH   1  10
BRANCH   7  22
ATOM     22  C   UNL     1       1.875   7.687  20.289  0.00  0.00    +0.000 C 
ATOM     23  O   UNL     1       1.774   8.511  19.388  0.00  0.00    +0.000 OA
BRANCH  22  24
ATOM     24  O   UNL     1       1.740   8.033  21.594  0.00  0.00    +0.000 OA
ATOM     25  H   UNL     1       2.493   8.568  21.912  0.00  0.00    +0.000 HD
ENDBRANCH  22  24
ENDBRANCH   7  22
TORSDOF 6
ENDMDL
MODEL 4
REMARK VINA RESULT:      -7.0      1.327      1.510
REMARK  Name = 
REMARK  8 active torsions:
REMARK  status: ('A' for Active; 'I' for Inactive)
REMARK    1  A    between atoms: C_1  and  O_2
REMARK    2  A    between atoms: O_2  and  C_3
REMARK    3  A    between atoms: C_6  and  N_7
REMARK    4  A    between atoms: N_7  and  C_8
REMARK    5  A    between atoms: C_14  and  C_15
REMARK    6  A    between atoms: C_15  and  O_17
REMARK    7  A    between atoms: C_20  and  O_21
REMARK    8  A    between atoms: O_21  and  C_22
REMARK                            x       y       z     vdW  Elec       q    Type
REMARK                         _______ _______ _______ _____ _____    ______ ____
ROOT
ATOM      1  C   UNL     1       2.538   5.602  19.054  0.00  0.00    +0.000 A 
ATOM      2  N   UNL     1       1.475   4.755  19.009  0.00  0.00    +0.000 NA
ATOM      3  C   UNL     1       1.529   3.652  18.254  0.00  0.00    +0.000 A 
ATOM      4  N   UNL     1       2.550   3.244  17.503  0.00  0.00    +0.000 NA
ATOM      5  C   UNL     1       3.584   4.094  17.547  0.00  0.00    +0.000 A 
ATOM      6  S   UNL     1       4.998   3.749  16.668  0.00  0.00    +0.000 S 
ATOM      7  C   UNL     1       5.768   5.172  17.208  0.00  0.00    +0.000 A 
ATOM      8  C   UNL     1       4.941   5.901  18.047  0.00  0.00    +0.000 A 
ATOM      9  C   UNL     1       3.662   5.280  18.263  0.00  0.00    +0.000 A 
ENDROOT
BRANCH   1  10
ATOM     10  N   UNL     1       2.467   6.732  19.880  0.00  0.00    +0.000 N 
ATOM     11  H   UNL     1       2.451   6.576  20.879  0.00  0.00    +0.000 HD
BRANCH  10  15
ATOM     12  C   UNL     1       1.079  10.590  18.796  0.00  0.00    +0.000 A 
ATOM     13  C   UNL     1       1.848   9.841  17.916  0.00  0.00    +0.000 A 
ATOM     14  C   UNL     1       2.305   8.577  18.281  0.00  0.00    +0.000 A 
ATOM     15  C   UNL     1       1.982   8.016  19.525  0.00  0.00    +0.000 A 
ATOM     16  C   UNL     1       1.197   8.776  20.420  0.00  0.00    +0.000 A 
ATOM     17  C   UNL     1       0.764  10.063  20.051  0.00  0.00    +0.000 A 
BRANCH  12  19
ATOM     18  C   UNL     1      -0.541  12.333  18.777  0.00  0.00    +0.000 C 
ATOM     19  O   UNL     1       0.693  11.808  18.308  0.00  0.00    +0.000 OA
ENDBRANCH  12  19
BRANCH  16  20
ATOM     20  O   UNL     1       0.895   8.181  21.626  0.00  0.00    +0.000 OA
ATOM     21  C   UNL     1      -0.309   8.597  22.266  0.00  0.00    +0.000 C 
ENDBRANCH  16  20
ENDBRANCH  10  15
ENDBRANCH   1  10
BRANCH   7  22
ATOM     22  C   UNL     1       7.117   5.513  16.804  0.00  0.00    +0.000 C 
ATOM     23  O   UNL     1       7.485   6.641  16.497  0.00  0.00    +0.000 OA
BRANCH  22  24
ATOM     24  O   UNL     1       7.968   4.456  16.800  0.00  0.00    +0.000 OA
ATOM     25  H   UNL     1       8.840   4.684  17.179  0.00  0.00    +0.000 HD
ENDBRANCH  22  24
ENDBRANCH   7  22
TORSDOF 6
ENDMDL
MODEL 5
REMARK VINA RESULT:      -7.0      3.068      4.884
REMARK  Name = 
REMARK  8 active torsions:
REMARK  status: ('A' for Active; 'I' for Inactive)
REMARK    1  A    between atoms: C_1  and  O_2
REMARK    2  A    between atoms: O_2  and  C_3
REMARK    3  A    between atoms: C_6  and  N_7
REMARK    4  A    between atoms: N_7  and  C_8
REMARK    5  A    between atoms: C_14  and  C_15
REMARK    6  A    between atoms: C_15  and  O_17
REMARK    7  A    between atoms: C_20  and  O_21
REMARK    8  A    between atoms: O_21  and  C_22
REMARK                            x       y       z     vdW  Elec       q    Type
REMARK                         _______ _______ _______ _____ _____    ______ ____
ROOT
ATOM      1  C   UNL     1       5.070   5.273  16.947  0.00  0.00    +0.000 A 
ATOM      2  N   UNL     1       5.888   6.035  17.720  0.00  0.00    +0.000 NA
ATOM      3  C   UNL     1       7.103   6.376  17.277  0.00  0.00    +0.000 A 
ATOM      4  N   UNL     1       7.648   6.056  16.106  0.00  0.00    +0.000 NA
ATOM      5  C   UNL     1       6.836   5.295  15.360  0.00  0.00    +0.000 A 
ATOM      6  S   UNL     1       7.337   4.788  13.816  0.00  0.00    +0.000 S 
ATOM      7  C   UNL     1       5.877   3.950  13.538  0.00  0.00    +0.000 A 
ATOM      8  C   UNL     1       5.025   4.056  14.624  0.00  0.00    +0.000 A 
ATOM      9  C   UNL     1       5.566   4.847  15.696  0.00  0.00    +0.000 A 
ENDROOT
BRANCH   1  10
ATOM     10  N   UNL     1       3.789   4.960  17.422  0.00  0.00    +0.000 N 
ATOM     11  H   UNL     1       3.198   4.397  16.825  0.00  0.00    +0.000 HD
BRANCH  10  15
ATOM     12  C   UNL     1       1.628   7.119  20.364  0.00  0.00    +0.000 A 
ATOM     13  C   UNL     1       2.092   7.752  19.218  0.00  0.00    +0.000 A 
ATOM     14  C   UNL     1       2.806   7.038  18.260  0.00  0.00    +0.000 A 
ATOM     15  C   UNL     1       3.051   5.665  18.406  0.00  0.00    +0.000 A 
ATOM     16  C   UNL     1       2.577   5.019  19.569  0.00  0.00    +0.000 A 
ATOM     17  C   UNL     1       1.881   5.757  20.545  0.00  0.00    +0.000 A 
BRANCH  12  19
ATOM     18  C   UNL     1       0.919   9.323  20.913  0.00  0.00    +0.000 C 
ATOM     19  O   UNL     1       0.939   7.935  21.217  0.00  0.00    +0.000 OA
ENDBRANCH  12  19
BRANCH  16  20
ATOM     20  O   UNL     1       2.832   3.668  19.666  0.00  0.00    +0.000 OA
ATOM     21  C   UNL     1       1.710   2.793  19.577  0.00  0.00    +0.000 C 
ENDBRANCH  16  20
ENDBRANCH  10  15
ENDBRANCH   1  10
BRANCH   7  22
ATOM     22  C   UNL     1       5.626   3.240  12.300  0.00  0.00    +0.000 C 
ATOM     23  O   UNL     1       4.589   3.319  11.653  0.00  0.00    +0.000 OA
BRANCH  22  24
ATOM     24  O   UNL     1       6.664   2.463  11.897  0.00  0.00    +0.000 OA
ATOM     25  H   UNL     1       7.237   2.198  12.643  0.00  0.00    +0.000 HD
ENDBRANCH  22  24
ENDBRANCH   7  22
TORSDOF 6
ENDMDL
MODEL 6
REMARK VINA RESULT:      -7.0      2.624      6.898
REMARK  Name = 
REMARK  8 active torsions:
REMARK  status: ('A' for Active; 'I' for Inactive)
REMARK    1  A    between atoms: C_1  and  O_2
REMARK    2  A    between atoms: O_2  and  C_3
REMARK    3  A    between atoms: C_6  and  N_7
REMARK    4  A    between atoms: N_7  and  C_8
REMARK    5  A    between atoms: C_14  and  C_15
REMARK    6  A    between atoms: C_15  and  O_17
REMARK    7  A    between atoms: C_20  and  O_21
REMARK    8  A    between atoms: O_21  and  C_22
REMARK                            x       y       z     vdW  Elec       q    Type
REMARK                         _______ _______ _______ _____ _____    ______ ____
ROOT
ATOM      1  C   UNL     1       5.013   3.910  19.268  0.00  0.00    +0.000 A 
ATOM      2  N   UNL     1       4.841   2.698  19.859  0.00  0.00    +0.000 NA
ATOM      3  C   UNL     1       3.714   2.434  20.530  0.00  0.00    +0.000 A 
ATOM      4  N   UNL     1       2.672   3.245  20.697  0.00  0.00    +0.000 NA
ATOM      5  C   UNL     1       2.861   4.439  20.120  0.00  0.00    +0.000 A 
ATOM      6  S   UNL     1       1.640   5.619  20.204  0.00  0.00    +0.000 S 
ATOM      7  C   UNL     1       2.560   6.740  19.305  0.00  0.00    +0.000 A 
ATOM      8  C   UNL     1       3.791   6.209  18.955  0.00  0.00    +0.000 A 
ATOM      9  C   UNL     1       3.980   4.861  19.416  0.00  0.00    +0.000 A 
ENDROOT
BRANCH   1  10
ATOM     10  N   UNL     1       6.189   4.148  18.543  0.00  0.00    +0.000 N 
ATOM     11  H   UNL     1       6.961   4.572  19.040  0.00  0.00    +0.000 HD
BRANCH  10  15
ATOM     12  C   UNL     1       6.559   4.481  14.332  0.00  0.00    +0.000 A 
ATOM     13  C   UNL     1       5.712   3.537  14.896  0.00  0.00    +0.000 A 
ATOM     14  C   UNL     1       5.600   3.429  16.280  0.00  0.00    +0.000 A 
ATOM     15  C   UNL     1       6.310   4.282  17.138  0.00  0.00    +0.000 A 
ATOM     16  C   UNL     1       7.170   5.245  16.565  0.00  0.00    +0.000 A 
ATOM     17  C   UNL     1       7.296   5.326  15.165  0.00  0.00    +0.000 A 
BRANCH  12  19
ATOM     18  C   UNL     1       6.031   3.340  12.312  0.00  0.00    +0.000 C 
ATOM     19  O   UNL     1       6.568   4.482  12.964  0.00  0.00    +0.000 OA
ENDBRANCH  12  19
BRANCH  16  20
ATOM     20  O   UNL     1       7.840   6.067  17.445  0.00  0.00    +0.000 OA
ATOM     21  C   UNL     1       7.445   7.437  17.473  0.00  0.00    +0.000 C 
ENDBRANCH  16  20
ENDBRANCH  10  15
ENDBRANCH   1  10
BRANCH   7  22
ATOM     22  C   UNL     1       2.057   8.059  18.982  0.00  0.00    +0.000 C 
ATOM     23  O   UNL     1       2.186   8.604  17.892  0.00  0.00    +0.000 OA
BRANCH  22  24
ATOM     24  O   UNL     1       1.406   8.661  20.010  0.00  0.00    +0.000 OA
ATOM     25  H   UNL     1       1.622   9.611  20.077  0.00  0.00    +0.000 HD
ENDBRANCH  22  24
ENDBRANCH   7  22
TORSDOF 6
ENDMDL
MODEL 7
REMARK VINA RESULT:      -6.9      2.832      6.422
REMARK  Name = 
REMARK  8 active torsions:
REMARK  status: ('A' for Active; 'I' for Inactive)
REMARK    1  A    between atoms: C_1  and  O_2
REMARK    2  A    between atoms: O_2  and  C_3
REMARK    3  A    between atoms: C_6  and  N_7
REMARK    4  A    between atoms: N_7  and  C_8
REMARK    5  A    between atoms: C_14  and  C_15
REMARK    6  A    between atoms: C_15  and  O_17
REMARK    7  A    between atoms: C_20  and  O_21
REMARK    8  A    between atoms: O_21  and  C_22
REMARK                            x       y       z     vdW  Elec       q    Type
REMARK                         _______ _______ _______ _____ _____    ______ ____
ROOT
ATOM      1  C   UNL     1       4.152   3.297  18.365  0.00  0.00    +0.000 A 
ATOM      2  N   UNL     1       3.831   1.982  18.487  0.00  0.00    +0.000 NA
ATOM      3  C   UNL     1       2.751   1.618  19.188  0.00  0.00    +0.000 A 
ATOM      4  N   UNL     1       1.892   2.421  19.811  0.00  0.00    +0.000 NA
ATOM      5  C   UNL     1       2.228   3.713  19.693  0.00  0.00    +0.000 A 
ATOM      6  S   UNL     1       1.250   4.906  20.406  0.00  0.00    +0.000 S 
ATOM      7  C   UNL     1       2.254   6.167  19.846  0.00  0.00    +0.000 A 
ATOM      8  C   UNL     1       3.329   5.667  19.128  0.00  0.00    +0.000 A 
ATOM      9  C   UNL     1       3.324   4.234  19.021  0.00  0.00    +0.000 A 
ENDROOT
BRANCH   1  10
ATOM     10  N   UNL     1       5.269   3.652  17.597  0.00  0.00    +0.000 N 
ATOM     11  H   UNL     1       5.713   2.919  17.060  0.00  0.00    +0.000 HD
BRANCH  10  15
ATOM     12  C   UNL     1       7.785   7.002  18.259  0.00  0.00    +0.000 A 
ATOM     13  C   UNL     1       7.674   5.999  19.213  0.00  0.00    +0.000 A 
ATOM     14  C   UNL     1       6.841   4.905  18.991  0.00  0.00    +0.000 A 
ATOM     15  C   UNL     1       6.119   4.768  17.797  0.00  0.00    +0.000 A 
ATOM     16  C   UNL     1       6.233   5.786  16.824  0.00  0.00    +0.000 A 
ATOM     17  C   UNL     1       7.056   6.901  17.071  0.00  0.00    +0.000 A 
BRANCH  12  19
ATOM     18  C   UNL     1       8.349   9.307  18.095  0.00  0.00    +0.000 C 
ATOM     19  O   UNL     1       8.639   8.012  18.603  0.00  0.00    +0.000 OA
ENDBRANCH  12  19
BRANCH  16  20
ATOM     20  O   UNL     1       5.513   5.606  15.663  0.00  0.00    +0.000 OA
ATOM     21  C   UNL     1       6.190   4.975  14.578  0.00  0.00    +0.000 C 
ENDBRANCH  16  20
ENDBRANCH  10  15
ENDBRANCH   1  10
BRANCH   7  22
ATOM     22  C   UNL     1       1.962   7.558  20.120  0.00  0.00    +0.000 C 
ATOM     23  O   UNL     1       1.827   8.422  19.261  0.00  0.00    +0.000 OA
BRANCH  22  24
ATOM     24  O   UNL     1       1.837   7.839  21.442  0.00  0.00    +0.000 OA
ATOM     25  H   UNL     1       2.177   7.117  22.005  0.00  0.00    +0.000 HD
ENDBRANCH  22  24
ENDBRANCH   7  22
TORSDOF 6
ENDMDL
MODEL 8
REMARK VINA RESULT:      -6.8      0.916      1.035
REMARK  Name = 
REMARK  8 active torsions:
REMARK  status: ('A' for Active; 'I' for Inactive)
REMARK    1  A    between atoms: C_1  and  O_2
REMARK    2  A    between atoms: O_2  and  C_3
REMARK    3  A    between atoms: C_6  and  N_7
REMARK    4  A    between atoms: N_7  and  C_8
REMARK    5  A    between atoms: C_14  and  C_15
REMARK    6  A    between atoms: C_15  and  O_17
REMARK    7  A    between atoms: C_20  and  O_21
REMARK    8  A    between atoms: O_21  and  C_22
REMARK                            x       y       z     vdW  Elec       q    Type
REMARK                         _______ _______ _______ _____ _____    ______ ____
ROOT
ATOM      1  C   UNL     1       2.074   5.654  20.331  0.00  0.00    +0.000 A 
ATOM      2  N   UNL     1       0.948   4.915  20.523  0.00  0.00    +0.000 NA
ATOM      3  C   UNL     1       0.879   3.665  20.054  0.00  0.00    +0.000 A 
ATOM      4  N   UNL     1       1.826   3.003  19.393  0.00  0.00    +0.000 NA
ATOM      5  C   UNL     1       2.924   3.747  19.199  0.00  0.00    +0.000 A 
ATOM      6  S   UNL     1       4.260   3.083  18.385  0.00  0.00    +0.000 S 
ATOM      7  C   UNL     1       5.164   4.521  18.542  0.00  0.00    +0.000 A 
ATOM      8  C   UNL     1       4.438   5.497  19.207  0.00  0.00    +0.000 A 
ATOM      9  C   UNL     1       3.129   5.058  19.606  0.00  0.00    +0.000 A 
ENDROOT
BRANCH   1  10
ATOM     10  N   UNL     1       2.131   6.949  20.862  0.00  0.00    +0.000 N 
ATOM     11  H   UNL     1       2.260   7.035  21.861  0.00  0.00    +0.000 HD
BRANCH  10  15
ATOM     12  C   UNL     1       0.626  10.494  19.086  0.00  0.00    +0.000 A 
ATOM     13  C   UNL     1       1.218   9.508  18.308  0.00  0.00    +0.000 A 
ATOM     14  C   UNL     1       1.715   8.350  18.899  0.00  0.00    +0.000 A 
ATOM     15  C   UNL     1       1.608   8.131  20.280  0.00  0.00    +0.000 A 
ATOM     16  C   UNL     1       1.003   9.132  21.072  0.00  0.00    +0.000 A 
ATOM     17  C   UNL     1       0.529  10.311  20.468  0.00  0.00    +0.000 A 
BRANCH  12  19
ATOM     18  C   UNL     1      -1.224  11.810  18.374  0.00  0.00    +0.000 C 
ATOM     19  O   UNL     1       0.177  11.574  18.378  0.00  0.00    +0.000 OA
ENDBRANCH  12  19
BRANCH  16  20
ATOM     20  O   UNL     1       0.911   8.871  22.423  0.00  0.00    +0.000 OA
ATOM     21  C   UNL     1      -0.125   9.540  23.138  0.00  0.00    +0.000 C 
ENDBRANCH  16  20
ENDBRANCH  10  15
ENDBRANCH   1  10
BRANCH   7  22
ATOM     22  C   UNL     1       6.512   4.639  18.027  0.00  0.00    +0.000 C 
ATOM     23  O   UNL     1       6.821   4.487  16.851  0.00  0.00    +0.000 OA
BRANCH  22  24
ATOM     24  O   UNL     1       7.433   4.949  18.974  0.00  0.00    +0.000 OA
ATOM     25  H   UNL     1       7.059   4.916  19.876  0.00  0.00    +0.000 HD
ENDBRANCH  22  24
ENDBRANCH   7  22
TORSDOF 6
ENDMDL
MODEL 9
REMARK VINA RESULT:      -6.8      3.425      5.977
REMARK  Name = 
REMARK  8 active torsions:
REMARK  status: ('A' for Active; 'I' for Inactive)
REMARK    1  A    between atoms: C_1  and  O_2
REMARK    2  A    between atoms: O_2  and  C_3
REMARK    3  A    between atoms: C_6  and  N_7
REMARK    4  A    between atoms: N_7  and  C_8
REMARK    5  A    between atoms: C_14  and  C_15
REMARK    6  A    between atoms: C_15  and  O_17
REMARK    7  A    between atoms: C_20  and  O_21
REMARK    8  A    between atoms: O_21  and  C_22
REMARK                            x       y       z     vdW  Elec       q    Type
REMARK                         _______ _______ _______ _____ _____    ______ ____
ROOT
ATOM      1  C   UNL     1       5.066   5.360  16.757  0.00  0.00    +0.000 A 
ATOM      2  N   UNL     1       5.849   6.168  17.520  0.00  0.00    +0.000 NA
ATOM      3  C   UNL     1       7.069   6.514  17.096  0.00  0.00    +0.000 A 
ATOM      4  N   UNL     1       7.652   6.156  15.954  0.00  0.00    +0.000 NA
ATOM      5  C   UNL     1       6.875   5.349  15.219  0.00  0.00    +0.000 A 
ATOM      6  S   UNL     1       7.428   4.789  13.712  0.00  0.00    +0.000 S 
ATOM      7  C   UNL     1       5.992   3.912  13.429  0.00  0.00    +0.000 A 
ATOM      8  C   UNL     1       5.107   4.047  14.487  0.00  0.00    +0.000 A 
ATOM      9  C   UNL     1       5.604   4.892  15.538  0.00  0.00    +0.000 A 
ENDROOT
BRANCH   1  10
ATOM     10  N   UNL     1       3.778   5.042  17.210  0.00  0.00    +0.000 N 
ATOM     11  H   UNL     1       3.002   5.515  16.768  0.00  0.00    +0.000 HD
BRANCH  10  15
ATOM     12  C   UNL     1       2.723   3.335  20.946  0.00  0.00    +0.000 A 
ATOM     13  C   UNL     1       3.535   2.645  20.056  0.00  0.00    +0.000 A 
ATOM     14  C   UNL     1       3.872   3.209  18.829  0.00  0.00    +0.000 A 
ATOM     15  C   UNL     1       3.432   4.491  18.469  0.00  0.00    +0.000 A 
ATOM     16  C   UNL     1       2.608   5.195  19.375  0.00  0.00    +0.000 A 
ATOM     17  C   UNL     1       2.250   4.603  20.601  0.00  0.00    +0.000 A 
BRANCH  12  19
ATOM     18  C   UNL     1       1.129   2.303  22.379  0.00  0.00    +0.000 C 
ATOM     19  O   UNL     1       2.476   2.668  22.114  0.00  0.00    +0.000 OA
ENDBRANCH  12  19
BRANCH  16  20
ATOM     20  O   UNL     1       2.206   6.455  18.985  0.00  0.00    +0.000 OA
ATOM     21  C   UNL     1       2.076   7.436  20.011  0.00  0.00    +0.000 C 
ENDBRANCH  16  20
ENDBRANCH  10  15
ENDBRANCH   1  10
BRANCH   7  22
ATOM     22  C   UNL     1       5.788   3.147  12.216  0.00  0.00    +0.000 C 
ATOM     23  O   UNL     1       4.739   3.116  11.583  0.00  0.00    +0.000 OA
BRANCH  22  24
ATOM     24  O   UNL     1       6.884   2.452  11.819  0.00  0.00    +0.000 OA
ATOM     25  H   UNL     1       7.042   1.664  12.374  0.00  0.00    +0.000 HD
ENDBRANCH  22  24
ENDBRANCH   7  22
TORSDOF 6
ENDMDL
