MODEL 1
REMARK VINA RESULT:      -6.9      0.000      0.000
REMARK  Name = 
REMARK  12 active torsions:
REMARK  status: ('A' for Active; 'I' for Inactive)
REMARK    1  A    between atoms: C_1  and  C_2
REMARK    2  A    between atoms: C_2  and  C_3
REMARK    3  A    between atoms: C_3  and  C_4
REMARK    4  A    between atoms: C_4  and  C_5
REMARK    5  A    between atoms: C_5  and  C_6
REMARK    6  A    between atoms: C_6  and  O_7
REMARK    7  A    between atoms: O_7  and  C_8
REMARK    8  A    between atoms: C_11  and  C_12
REMARK    9  A    between atoms: C_12  and  C_13
REMARK   10  A    between atoms: C_13  and  C_14
REMARK   11  A    between atoms: C_14  and  C_16
REMARK   12  A    between atoms: C_16  and  C_19
REMARK                            x       y       z     vdW  Elec       q    Type
REMARK                         _______ _______ _______ _____ _____    ______ ____
ROOT
ATOM      1  C   UNL     1       6.058   5.932  16.994  0.00  0.00    +0.000 A 
ATOM      2  C   UNL     1       4.796   6.456  16.701  0.00  0.00    +0.000 A 
ATOM      3  C   UNL     1       3.799   6.483  17.667  0.00  0.00    +0.000 A 
ATOM      4  C   UNL     1       4.025   5.951  18.937  0.00  0.00    +0.000 A 
ATOM      5  C   UNL     1       5.290   5.430  19.238  0.00  0.00    +0.000 A 
ATOM      6  C   UNL     1       6.302   5.424  18.270  0.00  0.00    +0.000 A 
ENDROOT
BRANCH   1   7
ATOM      7  O   UNL     1       7.104   5.882  16.103  0.00  0.00    +0.000 OA
BRANCH   7   8
ATOM      8  C   UNL     1       7.245   4.619  15.453  0.00  0.00    +0.000 C 
BRANCH   8   9
ATOM      9  C   UNL     1       6.932   4.728  13.972  0.00  0.00    +0.000 C 
BRANCH   9  10
ATOM     10  C   UNL     1       5.553   4.122  13.705  0.00  0.00    +0.000 C 
BRANCH  10  11
ATOM     11  C   UNL     1       5.565   3.262  12.451  0.00  0.00    +0.000 C 
BRANCH  11  13
ATOM     12  C   UNL     1       7.190   1.927  11.091  0.00  0.00    +0.000 C 
ATOM     13  C   UNL     1       6.944   3.249  11.798  0.00  0.00    +0.000 C 
ENDBRANCH  11  13
ENDBRANCH  10  11
ENDBRANCH   9  10
ENDBRANCH   8   9
ENDBRANCH   7   8
ENDBRANCH   1   7
BRANCH   4  14
ATOM     14  C   UNL     1       2.900   5.942  19.940  0.00  0.00    +0.000 C 
BRANCH  14  15
ATOM     15  C   UNL     1       1.823   4.931  19.544  0.00  0.00    +0.000 C 
BRANCH  15  16
ATOM     16  C   UNL     1       2.147   3.531  20.008  0.00  0.00    +0.000 C 
ATOM     17  O   UNL     1       2.406   3.278  21.187  0.00  0.00    +0.000 OA
BRANCH  16  18
ATOM     18  C   UNL     1       2.168   2.464  18.933  0.00  0.00    +0.000 C 
ATOM     19  F   UNL     1       1.430   1.369  19.289  0.00  0.00    +0.000 F 
ATOM     20  F   UNL     1       1.577   2.919  17.785  0.00  0.00    +0.000 F 
BRANCH  18  21
ATOM     21  C   UNL     1       3.621   2.079  18.670  0.00  0.00    +0.000 C 
ATOM     22  F   UNL     1       4.450   2.374  19.703  0.00  0.00    +0.000 F 
ATOM     23  F   UNL     1       3.766   0.757  18.413  0.00  0.00    +0.000 F 
ATOM     24  F   UNL     1       4.116   2.740  17.592  0.00  0.00    +0.000 F 
ENDBRANCH  18  21
ENDBRANCH  16  18
ENDBRANCH  15  16
ENDBRANCH  14  15
ENDBRANCH   4  14
TORSDOF 11
ENDMDL
MODEL 2
REMARK VINA RESULT:      -6.9      3.568      5.561
REMARK  Name = 
REMARK  12 active torsions:
REMARK  status: ('A' for Active; 'I' for Inactive)
REMARK    1  A    between atoms: C_1  and  C_2
REMARK    2  A    between atoms: C_2  and  C_3
REMARK    3  A    between atoms: C_3  and  C_4
REMARK    4  A    between atoms: C_4  and  C_5
REMARK    5  A    between atoms: C_5  and  C_6
REMARK    6  A    between atoms: C_6  and  O_7
REMARK    7  A    between atoms: O_7  and  C_8
REMARK    8  A    between atoms: C_11  and  C_12
REMARK    9  A    between atoms: C_12  and  C_13
REMARK   10  A    between atoms: C_13  and  C_14
REMARK   11  A    between atoms: C_14  and  C_16
REMARK   12  A    between atoms: C_16  and  C_19
REMARK                            x       y       z     vdW  Elec       q    Type
REMARK                         _______ _______ _______ _____ _____    ______ ____
ROOT
ATOM      1  C   UNL     1       6.952   6.535  16.716  0.00  0.00    +0.000 A 
ATOM      2  C   UNL     1       7.229   5.208  16.375  0.00  0.00    +0.000 A 
ATOM      3  C   UNL     1       6.209   4.267  16.305  0.00  0.00    +0.000 A 
ATOM      4  C   UNL     1       4.895   4.620  16.614  0.00  0.00    +0.000 A 
ATOM      5  C   UNL     1       4.611   5.950  16.950  0.00  0.00    +0.000 A 
ATOM      6  C   UNL     1       5.637   6.902  16.998  0.00  0.00    +0.000 A 
ENDROOT
BRANCH   1   7
ATOM      7  O   UNL     1       7.898   7.529  16.792  0.00  0.00    +0.000 OA
BRANCH   7   8
ATOM      8  C   UNL     1       8.065   8.065  18.104  0.00  0.00    +0.000 C 
BRANCH   8   9
ATOM      9  C   UNL     1       8.276   9.567  18.060  0.00  0.00    +0.000 C 
BRANCH   9  10
ATOM     10  C   UNL     1       9.215   9.975  19.196  0.00  0.00    +0.000 C 
BRANCH  10  11
ATOM     11  C   UNL     1       9.588  11.446  19.099  0.00  0.00    +0.000 C 
BRANCH  11  13
ATOM     12  C   UNL     1      12.088  11.546  19.196  0.00  0.00    +0.000 C 
ATOM     13  C   UNL     1      10.870  11.643  18.295  0.00  0.00    +0.000 C 
ENDBRANCH  11  13
ENDBRANCH  10  11
ENDBRANCH   9  10
ENDBRANCH   8   9
ENDBRANCH   7   8
ENDBRANCH   1   7
BRANCH   4  14
ATOM     14  C   UNL     1       3.825   3.559  16.587  0.00  0.00    +0.000 C 
BRANCH  14  15
ATOM     15  C   UNL     1       3.356   3.220  18.003  0.00  0.00    +0.000 C 
BRANCH  15  16
ATOM     16  C   UNL     1       1.862   3.367  18.167  0.00  0.00    +0.000 C 
ATOM     17  O   UNL     1       1.191   4.089  17.424  0.00  0.00    +0.000 OA
BRANCH  16  18
ATOM     18  C   UNL     1       1.243   2.603  19.318  0.00  0.00    +0.000 C 
ATOM     19  F   UNL     1      -0.064   2.283  19.071  0.00  0.00    +0.000 F 
ATOM     20  F   UNL     1       1.867   1.396  19.492  0.00  0.00    +0.000 F 
BRANCH  18  21
ATOM     21  C   UNL     1       1.365   3.455  20.579  0.00  0.00    +0.000 C 
ATOM     22  F   UNL     1       0.698   4.633  20.496  0.00  0.00    +0.000 F 
ATOM     23  F   UNL     1       0.904   2.816  21.680  0.00  0.00    +0.000 F 
ATOM     24  F   UNL     1       2.661   3.775  20.830  0.00  0.00    +0.000 F 
ENDBRANCH  18  21
ENDBRANCH  16  18
ENDBRANCH  15  16
ENDBRANCH  14  15
ENDBRANCH   4  14
TORSDOF 11
ENDMDL
MODEL 3
REMARK VINA RESULT:      -6.9      1.642      2.190
REMARK  Name = 
REMARK  12 active torsions:
REMARK  status: ('A' for Active; 'I' for Inactive)
REMARK    1  A    between atoms: C_1  and  C_2
REMARK    2  A    between atoms: C_2  and  C_3
REMARK    3  A    between atoms: C_3  and  C_4
REMARK    4  A    between atoms: C_4  and  C_5
REMARK    5  A    between atoms: C_5  and  C_6
REMARK    6  A    between atoms: C_6  and  O_7
REMARK    7  A    between atoms: O_7  and  C_8
REMARK    8  A    between atoms: C_11  and  C_12
REMARK    9  A    between atoms: C_12  and  C_13
REMARK   10  A    between atoms: C_13  and  C_14
REMARK   11  A    between atoms: C_14  and  C_16
REMARK   12  A    between atoms: C_16  and  C_19
REMARK                            x       y       z     vdW  Elec       q    Type
REMARK                         _______ _______ _______ _____ _____    ______ ____
ROOT
ATOM      1  C   UNL     1       6.464   5.422  16.010  0.00  0.00    +0.000 A 
ATOM      2  C   UNL     1       5.636   6.548  16.007  0.00  0.00    +0.000 A 
ATOM      3  C   UNL     1       4.632   6.690  16.955  0.00  0.00    +0.000 A 
ATOM      4  C   UNL     1       4.402   5.692  17.904  0.00  0.00    +0.000 A 
ATOM      5  C   UNL     1       5.233   4.564  17.915  0.00  0.00    +0.000 A 
ATOM      6  C   UNL     1       6.261   4.433  16.972  0.00  0.00    +0.000 A 
ENDROOT
BRANCH   1   7
ATOM      7  O   UNL     1       7.490   5.211  15.120  0.00  0.00    +0.000 OA
BRANCH   7   8
ATOM      8  C   UNL     1       7.051   4.952  13.787  0.00  0.00    +0.000 C 
BRANCH   8   9
ATOM      9  C   UNL     1       5.992   3.865  13.761  0.00  0.00    +0.000 C 
BRANCH   9  10
ATOM     10  C   UNL     1       5.831   3.356  12.328  0.00  0.00    +0.000 C 
BRANCH  10  11
ATOM     11  C   UNL     1       7.177   3.246  11.629  0.00  0.00    +0.000 C 
BRANCH  11  13
ATOM     12  C   UNL     1       6.125   1.016  11.195  0.00  0.00    +0.000 C 
ATOM     13  C   UNL     1       7.351   1.883  10.966  0.00  0.00    +0.000 C 
ENDBRANCH  11  13
ENDBRANCH  10  11
ENDBRANCH   9  10
ENDBRANCH   8   9
ENDBRANCH   7   8
ENDBRANCH   1   7
BRANCH   4  14
ATOM     14  C   UNL     1       3.264   5.853  18.877  0.00  0.00    +0.000 C 
BRANCH  14  15
ATOM     15  C   UNL     1       1.949   5.364  18.266  0.00  0.00    +0.000 C 
BRANCH  15  16
ATOM     16  C   UNL     1       1.693   3.902  18.542  0.00  0.00    +0.000 C 
ATOM     17  O   UNL     1       1.956   3.026  17.713  0.00  0.00    +0.000 OA
BRANCH  16  18
ATOM     18  C   UNL     1       1.063   3.579  19.880  0.00  0.00    +0.000 C 
ATOM     19  F   UNL     1       0.340   4.631  20.370  0.00  0.00    +0.000 F 
ATOM     20  F   UNL     1       0.153   2.563  19.756  0.00  0.00    +0.000 F 
BRANCH  18  21
ATOM     21  C   UNL     1       2.175   3.185  20.849  0.00  0.00    +0.000 C 
ATOM     22  F   UNL     1       1.832   2.163  21.672  0.00  0.00    +0.000 F 
ATOM     23  F   UNL     1       3.310   2.813  20.210  0.00  0.00    +0.000 F 
ATOM     24  F   UNL     1       2.509   4.223  21.660  0.00  0.00    +0.000 F 
ENDBRANCH  18  21
ENDBRANCH  16  18
ENDBRANCH  15  16
ENDBRANCH  14  15
ENDBRANCH   4  14
TORSDOF 11
ENDMDL
MODEL 4
REMARK VINA RESULT:      -6.9      3.477      5.515
REMARK  Name = 
REMARK  12 active torsions:
REMARK  status: ('A' for Active; 'I' for Inactive)
REMARK    1  A    between atoms: C_1  and  C_2
REMARK    2  A    between atoms: C_2  and  C_3
REMARK    3  A    between atoms: C_3  and  C_4
REMARK    4  A    between atoms: C_4  and  C_5
REMARK    5  A    between atoms: C_5  and  C_6
REMARK    6  A    between atoms: C_6  and  O_7
REMARK    7  A    between atoms: O_7  and  C_8
REMARK    8  A    between atoms: C_11  and  C_12
REMARK    9  A    between atoms: C_12  and  C_13
REMARK   10  A    between atoms: C_13  and  C_14
REMARK   11  A    between atoms: C_14  and  C_16
REMARK   12  A    between atoms: C_16  and  C_19
REMARK                            x       y       z     vdW  Elec       q    Type
REMARK                         _______ _______ _______ _____ _____    ______ ____
ROOT
ATOM      1  C   UNL     1       6.458   6.266  16.896  0.00  0.00    +0.000 A 
ATOM      2  C   UNL     1       5.177   6.638  17.313  0.00  0.00    +0.000 A 
ATOM      3  C   UNL     1       4.156   5.699  17.389  0.00  0.00    +0.000 A 
ATOM      4  C   UNL     1       4.380   4.375  17.012  0.00  0.00    +0.000 A 
ATOM      5  C   UNL     1       5.664   3.995  16.599  0.00  0.00    +0.000 A 
ATOM      6  C   UNL     1       6.698   4.938  16.545  0.00  0.00    +0.000 A 
ENDROOT
BRANCH   1   7
ATOM      7  O   UNL     1       7.526   7.127  16.809  0.00  0.00    +0.000 OA
BRANCH   7   8
ATOM      8  C   UNL     1       7.351   8.336  17.547  0.00  0.00    +0.000 C 
BRANCH   8   9
ATOM      9  C   UNL     1       8.596   8.674  18.347  0.00  0.00    +0.000 C 
BRANCH   9  10
ATOM     10  C   UNL     1       8.910  10.161  18.180  0.00  0.00    +0.000 C 
BRANCH  10  11
ATOM     11  C   UNL     1       9.640  10.708  19.397  0.00  0.00    +0.000 C 
BRANCH  11  13
ATOM     12  C   UNL     1      11.735  11.905  20.069  0.00  0.00    +0.000 C 
ATOM     13  C   UNL     1      10.663  11.770  19.002  0.00  0.00    +0.000 C 
ENDBRANCH  11  13
ENDBRANCH  10  11
ENDBRANCH   9  10
ENDBRANCH   8   9
ENDBRANCH   7   8
ENDBRANCH   1   7
BRANCH   4  14
ATOM     14  C   UNL     1       3.233   3.397  17.049  0.00  0.00    +0.000 C 
BRANCH  14  15
ATOM     15  C   UNL     1       3.559   2.207  17.953  0.00  0.00    +0.000 C 
BRANCH  15  16
ATOM     16  C   UNL     1       3.802   2.620  19.385  0.00  0.00    +0.000 C 
ATOM     17  O   UNL     1       4.940   2.789  19.831  0.00  0.00    +0.000 OA
BRANCH  16  18
ATOM     18  C   UNL     1       2.568   2.778  20.248  0.00  0.00    +0.000 C 
ATOM     19  F   UNL     1       1.533   2.003  19.803  0.00  0.00    +0.000 F 
ATOM     20  F   UNL     1       2.807   2.337  21.522  0.00  0.00    +0.000 F 
BRANCH  18  21
ATOM     21  C   UNL     1       2.177   4.254  20.258  0.00  0.00    +0.000 C 
ATOM     22  F   UNL     1       1.494   4.635  19.149  0.00  0.00    +0.000 F 
ATOM     23  F   UNL     1       1.409   4.577  21.326  0.00  0.00    +0.000 F 
ATOM     24  F   UNL     1       3.275   5.051  20.315  0.00  0.00    +0.000 F 
ENDBRANCH  18  21
ENDBRANCH  16  18
ENDBRANCH  15  16
ENDBRANCH  14  15
ENDBRANCH   4  14
TORSDOF 11
ENDMDL
MODEL 5
REMARK VINA RESULT:      -6.8      1.212      1.814
REMARK  Name = 
REMARK  12 active torsions:
REMARK  status: ('A' for Active; 'I' for Inactive)
REMARK    1  A    between atoms: C_1  and  C_2
REMARK    2  A    between atoms: C_2  and  C_3
REMARK    3  A    between atoms: C_3  and  C_4
REMARK    4  A    between atoms: C_4  and  C_5
REMARK    5  A    between atoms: C_5  and  C_6
REMARK    6  A    between atoms: C_6  and  O_7
REMARK    7  A    between atoms: O_7  and  C_8
REMARK    8  A    between atoms: C_11  and  C_12
REMARK    9  A    between atoms: C_12  and  C_13
REMARK   10  A    between atoms: C_13  and  C_14
REMARK   11  A    between atoms: C_14  and  C_16
REMARK   12  A    between atoms: C_16  and  C_19
REMARK                            x       y       z     vdW  Elec       q    Type
REMARK                         _______ _______ _______ _____ _____    ______ ____
ROOT
ATOM      1  C   UNL     1       5.116   6.368  17.477  0.00  0.00    +0.000 A 
ATOM      2  C   UNL     1       5.563   5.574  18.536  0.00  0.00    +0.000 A 
ATOM      3  C   UNL     1       4.715   5.255  19.589  0.00  0.00    +0.000 A 
ATOM      4  C   UNL     1       3.414   5.756  19.631  0.00  0.00    +0.000 A 
ATOM      5  C   UNL     1       2.958   6.548  18.568  0.00  0.00    +0.000 A 
ATOM      6  C   UNL     1       3.807   6.850  17.496  0.00  0.00    +0.000 A 
ENDROOT
BRANCH   1   7
ATOM      7  O   UNL     1       5.883   6.716  16.390  0.00  0.00    +0.000 OA
BRANCH   7   8
ATOM      8  C   UNL     1       5.321   6.318  15.140  0.00  0.00    +0.000 C 
BRANCH   8   9
ATOM      9  C   UNL     1       5.255   4.806  15.026  0.00  0.00    +0.000 C 
BRANCH   9  10
ATOM     10  C   UNL     1       6.549   4.294  14.392  0.00  0.00    +0.000 C 
BRANCH  10  11
ATOM     11  C   UNL     1       6.294   3.731  13.003  0.00  0.00    +0.000 C 
BRANCH  11  13
ATOM     12  C   UNL     1       8.056   5.464  12.597  0.00  0.00    +0.000 C 
ATOM     13  C   UNL     1       7.230   4.354  11.971  0.00  0.00    +0.000 C 
ENDBRANCH  11  13
ENDBRANCH  10  11
ENDBRANCH   9  10
ENDBRANCH   8   9
ENDBRANCH   7   8
ENDBRANCH   1   7
BRANCH   4  14
ATOM     14  C   UNL     1       2.543   5.441  20.819  0.00  0.00    +0.000 C 
BRANCH  14  15
ATOM     15  C   UNL     1       1.189   4.887  20.373  0.00  0.00    +0.000 C 
BRANCH  15  16
ATOM     16  C   UNL     1       1.243   3.411  20.061  0.00  0.00    +0.000 C 
ATOM     17  O   UNL     1       1.344   2.559  20.949  0.00  0.00    +0.000 OA
BRANCH  16  18
ATOM     18  C   UNL     1       1.202   3.040  18.594  0.00  0.00    +0.000 C 
ATOM     19  F   UNL     1       0.252   2.091  18.335  0.00  0.00    +0.000 F 
ATOM     20  F   UNL     1       0.833   4.116  17.831  0.00  0.00    +0.000 F 
BRANCH  18  21
ATOM     21  C   UNL     1       2.588   2.547  18.186  0.00  0.00    +0.000 C 
ATOM     22  F   UNL     1       3.437   2.406  19.235  0.00  0.00    +0.000 F 
ATOM     23  F   UNL     1       2.544   1.351  17.550  0.00  0.00    +0.000 F 
ATOM     24  F   UNL     1       3.187   3.418  17.333  0.00  0.00    +0.000 F 
ENDBRANCH  18  21
ENDBRANCH  16  18
ENDBRANCH  15  16
ENDBRANCH  14  15
ENDBRANCH   4  14
TORSDOF 11
ENDMDL
MODEL 6
REMARK VINA RESULT:      -6.8      1.022      1.284
REMARK  Name = 
REMARK  12 active torsions:
REMARK  status: ('A' for Active; 'I' for Inactive)
REMARK    1  A    between atoms: C_1  and  C_2
REMARK    2  A    between atoms: C_2  and  C_3
REMARK    3  A    between atoms: C_3  and  C_4
REMARK    4  A    between atoms: C_4  and  C_5
REMARK    5  A    between atoms: C_5  and  C_6
REMARK    6  A    between atoms: C_6  and  O_7
REMARK    7  A    between atoms: O_7  and  C_8
REMARK    8  A    between atoms: C_11  and  C_12
REMARK    9  A    between atoms: C_12  and  C_13
REMARK   10  A    between atoms: C_13  and  C_14
REMARK   11  A    between atoms: C_14  and  C_16
REMARK   12  A    between atoms: C_16  and  C_19
REMARK                            x       y       z     vdW  Elec       q    Type
REMARK                         _______ _______ _______ _____ _____    ______ ____
ROOT
ATOM      1  C   UNL     1       4.825   6.286  17.366  0.00  0.00    +0.000 A 
ATOM      2  C   UNL     1       3.490   6.697  17.380  0.00  0.00    +0.000 A 
ATOM      3  C   UNL     1       2.693   6.477  18.496  0.00  0.00    +0.000 A 
ATOM      4  C   UNL     1       3.199   5.803  19.609  0.00  0.00    +0.000 A 
ATOM      5  C   UNL     1       4.539   5.394  19.602  0.00  0.00    +0.000 A 
ATOM      6  C   UNL     1       5.347   5.637  18.484  0.00  0.00    +0.000 A 
ENDROOT
BRANCH   1   7
ATOM      7  O   UNL     1       5.685   6.479  16.311  0.00  0.00    +0.000 OA
BRANCH   7   8
ATOM      8  C   UNL     1       6.961   5.866  16.490  0.00  0.00    +0.000 C 
BRANCH   8   9
ATOM      9  C   UNL     1       7.009   4.499  15.833  0.00  0.00    +0.000 C 
BRANCH   9  10
ATOM     10  C   UNL     1       5.850   4.378  14.843  0.00  0.00    +0.000 C 
BRANCH  10  11
ATOM     11  C   UNL     1       6.358   4.162  13.426  0.00  0.00    +0.000 C 
BRANCH  11  13
ATOM     12  C   UNL     1       5.529   2.456  11.791  0.00  0.00    +0.000 C 
ATOM     13  C   UNL     1       5.224   3.773  12.482  0.00  0.00    +0.000 C 
ENDBRANCH  11  13
ENDBRANCH  10  11
ENDBRANCH   9  10
ENDBRANCH   8   9
ENDBRANCH   7   8
ENDBRANCH   1   7
BRANCH   4  14
ATOM     14  C   UNL     1       2.288   5.527  20.777  0.00  0.00    +0.000 C 
BRANCH  14  15
ATOM     15  C   UNL     1       1.020   4.802  20.321  0.00  0.00    +0.000 C 
BRANCH  15  16
ATOM     16  C   UNL     1       1.211   3.307  20.229  0.00  0.00    +0.000 C 
ATOM     17  O   UNL     1       1.265   2.592  21.234  0.00  0.00    +0.000 OA
BRANCH  16  18
ATOM     18  C   UNL     1       1.369   2.744  18.833  0.00  0.00    +0.000 C 
ATOM     19  F   UNL     1       0.506   1.707  18.602  0.00  0.00    +0.000 F 
ATOM     20  F   UNL     1       1.040   3.682  17.890  0.00  0.00    +0.000 F 
BRANCH  18  21
ATOM     21  C   UNL     1       2.817   2.295  18.658  0.00  0.00    +0.000 C 
ATOM     22  F   UNL     1       3.597   2.568  19.735  0.00  0.00    +0.000 F 
ATOM     23  F   UNL     1       2.921   0.965  18.423  0.00  0.00    +0.000 F 
ATOM     24  F   UNL     1       3.401   2.921  17.604  0.00  0.00    +0.000 F 
ENDBRANCH  18  21
ENDBRANCH  16  18
ENDBRANCH  15  16
ENDBRANCH  14  15
ENDBRANCH   4  14
TORSDOF 11
ENDMDL
MODEL 7
REMARK VINA RESULT:      -6.8      3.628      5.737
REMARK  Name = 
REMARK  12 active torsions:
REMARK  status: ('A' for Active; 'I' for Inactive)
REMARK    1  A    between atoms: C_1  and  C_2
REMARK    2  A    between atoms: C_2  and  C_3
REMARK    3  A    between atoms: C_3  and  C_4
REMARK    4  A    between atoms: C_4  and  C_5
REMARK    5  A    between atoms: C_5  and  C_6
REMARK    6  A    between atoms: C_6  and  O_7
REMARK    7  A    between atoms: O_7  and  C_8
REMARK    8  A    between atoms: C_11  and  C_12
REMARK    9  A    between atoms: C_12  and  C_13
REMARK   10  A    between atoms: C_13  and  C_14
REMARK   11  A    between atoms: C_14  and  C_16
REMARK   12  A    between atoms: C_16  and  C_19
REMARK                            x       y       z     vdW  Elec       q    Type
REMARK                         _______ _______ _______ _____ _____    ______ ____
ROOT
ATOM      1  C   UNL     1       6.599   6.281  16.984  0.00  0.00    +0.000 A 
ATOM      2  C   UNL     1       6.802   5.376  18.030  0.00  0.00    +0.000 A 
ATOM      3  C   UNL     1       5.979   4.267  18.176  0.00  0.00    +0.000 A 
ATOM      4  C   UNL     1       4.909   4.056  17.306  0.00  0.00    +0.000 A 
ATOM      5  C   UNL     1       4.705   4.957  16.251  0.00  0.00    +0.000 A 
ATOM      6  C   UNL     1       5.550   6.063  16.092  0.00  0.00    +0.000 A 
ENDROOT
BRANCH   1   7
ATOM      7  O   UNL     1       7.376   7.392  16.759  0.00  0.00    +0.000 OA
BRANCH   7   8
ATOM      8  C   UNL     1       7.964   7.932  17.942  0.00  0.00    +0.000 C 
BRANCH   8   9
ATOM      9  C   UNL     1       8.065   9.444  17.862  0.00  0.00    +0.000 C 
BRANCH   9  10
ATOM     10  C   UNL     1       9.080   9.934  18.896  0.00  0.00    +0.000 C 
BRANCH  10  11
ATOM     11  C   UNL     1       9.804  11.179  18.408  0.00  0.00    +0.000 C 
BRANCH  11  13
ATOM     12  C   UNL     1      10.630  11.956  20.641  0.00  0.00    +0.000 C 
ATOM     13  C   UNL     1      11.036  11.475  19.258  0.00  0.00    +0.000 C 
ENDBRANCH  11  13
ENDBRANCH  10  11
ENDBRANCH   9  10
ENDBRANCH   8   9
ENDBRANCH   7   8
ENDBRANCH   1   7
BRANCH   4  14
ATOM     14  C   UNL     1       4.000   2.876  17.532  0.00  0.00    +0.000 C 
BRANCH  14  15
ATOM     15  C   UNL     1       2.696   3.311  18.203  0.00  0.00    +0.000 C 
BRANCH  15  16
ATOM     16  C   UNL     1       2.834   3.445  19.700  0.00  0.00    +0.000 C 
ATOM     17  O   UNL     1       3.581   2.712  20.355  0.00  0.00    +0.000 OA
BRANCH  16  18
ATOM     18  C   UNL     1       1.977   4.508  20.353  0.00  0.00    +0.000 C 
ATOM     19  F   UNL     1       0.644   4.299  20.125  0.00  0.00    +0.000 F 
ATOM     20  F   UNL     1       2.105   4.466  21.716  0.00  0.00    +0.000 F 
BRANCH  18  21
ATOM     21  C   UNL     1       2.412   5.870  19.817  0.00  0.00    +0.000 C 
ATOM     22  F   UNL     1       2.016   6.095  18.539  0.00  0.00    +0.000 F 
ATOM     23  F   UNL     1       1.935   6.895  20.564  0.00  0.00    +0.000 F 
ATOM     24  F   UNL     1       3.765   5.987  19.817  0.00  0.00    +0.000 F 
ENDBRANCH  18  21
ENDBRANCH  16  18
ENDBRANCH  15  16
ENDBRANCH  14  15
ENDBRANCH   4  14
TORSDOF 11
ENDMDL
MODEL 8
REMARK VINA RESULT:      -6.8      3.607      5.671
REMARK  Name = 
REMARK  12 active torsions:
REMARK  status: ('A' for Active; 'I' for Inactive)
REMARK    1  A    between atoms: C_1  and  C_2
REMARK    2  A    between atoms: C_2  and  C_3
REMARK    3  A    between atoms: C_3  and  C_4
REMARK    4  A    between atoms: C_4  and  C_5
REMARK    5  A    between atoms: C_5  and  C_6
REMARK    6  A    between atoms: C_6  and  O_7
REMARK    7  A    between atoms: O_7  and  C_8
REMARK    8  A    between atoms: C_11  and  C_12
REMARK    9  A    between atoms: C_12  and  C_13
REMARK   10  A    between atoms: C_13  and  C_14
REMARK   11  A    between atoms: C_14  and  C_16
REMARK   12  A    between atoms: C_16  and  C_19
REMARK                            x       y       z     vdW  Elec       q    Type
REMARK                         _______ _______ _______ _____ _____    ______ ____
ROOT
ATOM      1  C   UNL     1       5.998   6.443  17.072  0.00  0.00    +0.000 A 
ATOM      2  C   UNL     1       5.079   5.911  16.164  0.00  0.00    +0.000 A 
ATOM      3  C   UNL     1       4.450   4.700  16.422  0.00  0.00    +0.000 A 
ATOM      4  C   UNL     1       4.754   3.971  17.572  0.00  0.00    +0.000 A 
ATOM      5  C   UNL     1       5.670   4.504  18.489  0.00  0.00    +0.000 A 
ATOM      6  C   UNL     1       6.287   5.736  18.239  0.00  0.00    +0.000 A 
ENDROOT
BRANCH   1   7
ATOM      7  O   UNL     1       6.651   7.641  16.903  0.00  0.00    +0.000 OA
BRANCH   7   8
ATOM      8  C   UNL     1       7.762   7.819  17.781  0.00  0.00    +0.000 C 
BRANCH   8   9
ATOM      9  C   UNL     1       8.281   9.244  17.726  0.00  0.00    +0.000 C 
BRANCH   9  10
ATOM     10  C   UNL     1       8.963   9.581  19.052  0.00  0.00    +0.000 C 
BRANCH  10  11
ATOM     11  C   UNL     1       9.402  11.036  19.090  0.00  0.00    +0.000 C 
BRANCH  11  13
ATOM     12  C   UNL     1      11.519  12.001  20.016  0.00  0.00    +0.000 C 
ATOM     13  C   UNL     1      10.193  11.346  20.358  0.00  0.00    +0.000 C 
ENDBRANCH  11  13
ENDBRANCH  10  11
ENDBRANCH   9  10
ENDBRANCH   8   9
ENDBRANCH   7   8
ENDBRANCH   1   7
BRANCH   4  14
ATOM     14  C   UNL     1       4.098   2.632  17.788  0.00  0.00    +0.000 C 
BRANCH  14  15
ATOM     15  C   UNL     1       3.314   2.613  19.101  0.00  0.00    +0.000 C 
BRANCH  15  16
ATOM     16  C   UNL     1       1.997   3.345  18.998  0.00  0.00    +0.000 C 
ATOM     17  O   UNL     1       1.258   3.224  18.017  0.00  0.00    +0.000 OA
BRANCH  16  18
ATOM     18  C   UNL     1       1.656   4.264  20.152  0.00  0.00    +0.000 C 
ATOM     19  F   UNL     1       0.310   4.302  20.391  0.00  0.00    +0.000 F 
ATOM     20  F   UNL     1       2.200   3.799  21.320  0.00  0.00    +0.000 F 
BRANCH  18  21
ATOM     21  C   UNL     1       2.191   5.657  19.830  0.00  0.00    +0.000 C 
ATOM     22  F   UNL     1       2.117   5.968  18.511  0.00  0.00    +0.000 F 
ATOM     23  F   UNL     1       1.533   6.631  20.503  0.00  0.00    +0.000 F 
ATOM     24  F   UNL     1       3.502   5.769  20.168  0.00  0.00    +0.000 F 
ENDBRANCH  18  21
ENDBRANCH  16  18
ENDBRANCH  15  16
ENDBRANCH  14  15
ENDBRANCH   4  14
TORSDOF 11
ENDMDL
MODEL 9
REMARK VINA RESULT:      -6.8      1.982      2.771
REMARK  Name = 
REMARK  12 active torsions:
REMARK  status: ('A' for Active; 'I' for Inactive)
REMARK    1  A    between atoms: C_1  and  C_2
REMARK    2  A    between atoms: C_2  and  C_3
REMARK    3  A    between atoms: C_3  and  C_4
REMARK    4  A    between atoms: C_4  and  C_5
REMARK    5  A    between atoms: C_5  and  C_6
REMARK    6  A    between atoms: C_6  and  O_7
REMARK    7  A    between atoms: O_7  and  C_8
REMARK    8  A    between atoms: C_11  and  C_12
REMARK    9  A    between atoms: C_12  and  C_13
REMARK   10  A    between atoms: C_13  and  C_14
REMARK   11  A    between atoms: C_14  and  C_16
REMARK   12  A    between atoms: C_16  and  C_19
REMARK                            x       y       z     vdW  Elec       q    Type
REMARK                         _______ _______ _______ _____ _____    ______ ____
ROOT
ATOM      1  C   UNL     1       6.584   4.949  15.406  0.00  0.00    +0.000 A 
ATOM      2  C   UNL     1       7.060   5.689  16.492  0.00  0.00    +0.000 A 
ATOM      3  C   UNL     1       6.296   5.827  17.643  0.00  0.00    +0.000 A 
ATOM      4  C   UNL     1       5.022   5.265  17.724  0.00  0.00    +0.000 A 
ATOM      5  C   UNL     1       4.542   4.516  16.640  0.00  0.00    +0.000 A 
ATOM      6  C   UNL     1       5.323   4.358  15.488  0.00  0.00    +0.000 A 
ENDROOT
BRANCH   1   7
ATOM      7  O   UNL     1       7.280   4.749  14.238  0.00  0.00    +0.000 OA
BRANCH   7   8
ATOM      8  C   UNL     1       6.445   4.566  13.095  0.00  0.00    +0.000 C 
BRANCH   8   9
ATOM      9  C   UNL     1       6.890   3.368  12.277  0.00  0.00    +0.000 C 
BRANCH   9  10
ATOM     10  C   UNL     1       5.656   2.638  11.746  0.00  0.00    +0.000 C 
BRANCH  10  11
ATOM     11  C   UNL     1       4.470   3.582  11.621  0.00  0.00    +0.000 C 
BRANCH  11  13
ATOM     12  C   UNL     1       2.945   4.210   9.737  0.00  0.00    +0.000 C 
ATOM     13  C   UNL     1       3.458   3.071  10.600  0.00  0.00    +0.000 C 
ENDBRANCH  11  13
ENDBRANCH  10  11
ENDBRANCH   9  10
ENDBRANCH   8   9
ENDBRANCH   7   8
ENDBRANCH   1   7
BRANCH   4  14
ATOM     14  C   UNL     1       4.197   5.488  18.965  0.00  0.00    +0.000 C 
BRANCH  14  15
ATOM     15  C   UNL     1       2.757   5.856  18.606  0.00  0.00    +0.000 C 
BRANCH  15  16
ATOM     16  C   UNL     1       1.825   4.670  18.671  0.00  0.00    +0.000 C 
ATOM     17  O   UNL     1       1.300   4.196  17.660  0.00  0.00    +0.000 OA
BRANCH  16  18
ATOM     18  C   UNL     1       1.545   4.122  20.054  0.00  0.00    +0.000 C 
ATOM     19  F   UNL     1       1.882   5.015  21.034  0.00  0.00    +0.000 F 
ATOM     20  F   UNL     1       0.203   3.908  20.230  0.00  0.00    +0.000 F 
BRANCH  18  21
ATOM     21  C   UNL     1       2.320   2.817  20.217  0.00  0.00    +0.000 C 
ATOM     22  F   UNL     1       1.538   1.770  20.583  0.00  0.00    +0.000 F 
ATOM     23  F   UNL     1       2.962   2.452  19.081  0.00  0.00    +0.000 F 
ATOM     24  F   UNL     1       3.271   2.929  21.181  0.00  0.00    +0.000 F 
ENDBRANCH  18  21
ENDBRANCH  16  18
ENDBRANCH  15  16
ENDBRANCH  14  15
ENDBRANCH   4  14
TORSDOF 11
ENDMDL
