MODEL 1
REMARK VINA RESULT:      -8.0      0.000      0.000
REMARK  Name = 
REMARK  8 active torsions:
REMARK  status: ('A' for Active; 'I' for Inactive)
REMARK    1  A    between atoms: C_1  and  O_2
REMARK    2  A    between atoms: O_2  and  C_3
REMARK    3  A    between atoms: C_3  and  C_4
REMARK    4  A    between atoms: C_4  and  C_5
REMARK    5  A    between atoms: C_5  and  N_6
REMARK    6  A    between atoms: C_9  and  C_10
REMARK    7  A    between atoms: N_12  and  C_13
REMARK    8  A    between atoms: C_13  and  C_14
REMARK                            x       y       z     vdW  Elec       q    Type
REMARK                         _______ _______ _______ _____ _____    ______ ____
ROOT
ATOM      1  N   UNL     1       2.945   5.586  19.995  0.00  0.00    +0.000 N 
ATOM      2  C   UNL     1       3.931   4.958  19.218  0.00  0.00    +0.000 A 
ATOM      3  N   UNL     1       4.388   3.758  19.450  0.00  0.00    +0.000 NA
ATOM      4  C   UNL     1       4.519   5.676  18.026  0.00  0.00    +0.000 A 
ATOM      5  C   UNL     1       3.997   6.885  17.752  0.00  0.00    +0.000 A 
ATOM      6  C   UNL     1       2.938   7.486  18.545  0.00  0.00    +0.000 A 
ATOM      7  C   UNL     1       2.399   8.823  18.160  0.00  0.00    +0.000 A 
ATOM      8  O   UNL     1       2.849   9.409  17.172  0.00  0.00    +0.000 OA
ATOM      9  N   UNL     1       1.393   9.329  18.965  0.00  0.00    +0.000 N 
ATOM     10  C   UNL     1       0.843  10.573  18.677  0.00  0.00    +0.000 A 
ATOM     11  C   UNL     1      -0.132  11.105  19.425  0.00  0.00    +0.000 A 
ATOM     12  C   UNL     1      -0.636  10.382  20.562  0.00  0.00    +0.000 A 
ATOM     13  C   UNL     1      -0.135   9.181  20.876  0.00  0.00    +0.000 A 
ATOM     14  C   UNL     1       0.953   8.591  20.046  0.00  0.00    +0.000 A 
ATOM     15  N   UNL     1       1.423   7.432  20.376  0.00  0.00    +0.000 NA
ATOM     16  C   UNL     1       2.428   6.860  19.630  0.00  0.00    +0.000 A 
ATOM     17  H   UNL     1       3.942   3.332  20.260  0.00  0.00    +0.000 HD
ENDROOT
BRANCH   4  18
ATOM     18  C   UNL     1       5.609   5.161  17.137  0.00  0.00    +0.000 C 
ATOM     19  O   UNL     1       6.754   5.601  17.191  0.00  0.00    +0.000 OA
ATOM     20  N   UNL     1       5.231   4.178  16.266  0.00  0.00    +0.000 N 
ATOM     21  H   UNL     1       4.240   3.916  16.257  0.00  0.00    +0.000 HD
BRANCH  20  22
ATOM     22  C   UNL     1       6.100   3.571  15.278  0.00  0.00    +0.000 C 
BRANCH  22  23
ATOM     23  C   UNL     1       6.308   4.466  14.052  0.00  0.00    +0.000 C 
ATOM     24  C   UNL     1       6.440   3.724  12.733  0.00  0.00    +0.000 C 
ATOM     25  C   UNL     1       7.189   4.725  11.891  0.00  0.00    +0.000 C 
ATOM     26  C   UNL     1       8.119   5.375  12.896  0.00  0.00    +0.000 C 
ATOM     27  O   UNL     1       7.504   5.262  14.187  0.00  0.00    +0.000 OA
ENDBRANCH  22  23
ENDBRANCH  20  22
ENDBRANCH   4  18
BRANCH   1  28
ATOM     28  C   UNL     1       2.360   4.918  21.173  0.00  0.00    +0.000 C 
BRANCH  28  29
ATOM     29  C   UNL     1       1.204   4.007  20.747  0.00  0.00    +0.000 C 
BRANCH  29  30
ATOM     30  C   UNL     1       1.565   2.538  20.910  0.00  0.00    +0.000 C 
BRANCH  30  32
ATOM     31  C   UNL     1       1.040   2.675  18.615  0.00  0.00    +0.000 C 
ATOM     32  O   UNL     1       1.741   1.958  19.620  0.00  0.00    +0.000 OA
ENDBRANCH  30  32
ENDBRANCH  29  30
ENDBRANCH  28  29
ENDBRANCH   1  28
TORSDOF 7
ENDMDL
MODEL 2
REMARK VINA RESULT:      -8.0      1.006      1.274
REMARK  Name = 
REMARK  8 active torsions:
REMARK  status: ('A' for Active; 'I' for Inactive)
REMARK    1  A    between atoms: C_1  and  O_2
REMARK    2  A    between atoms: O_2  and  C_3
REMARK    3  A    between atoms: C_3  and  C_4
REMARK    4  A    between atoms: C_4  and  C_5
REMARK    5  A    between atoms: C_5  and  N_6
REMARK    6  A    between atoms: C_9  and  C_10
REMARK    7  A    between atoms: N_12  and  C_13
REMARK    8  A    between atoms: C_13  and  C_14
REMARK                            x       y       z     vdW  Elec       q    Type
REMARK                         _______ _______ _______ _____ _____    ______ ____
ROOT
ATOM      1  N   UNL     1       3.263   5.241  19.815  0.00  0.00    +0.000 N 
ATOM      2  C   UNL     1       4.169   4.629  18.934  0.00  0.00    +0.000 A 
ATOM      3  N   UNL     1       4.666   3.436  19.112  0.00  0.00    +0.000 NA
ATOM      4  C   UNL     1       4.612   5.357  17.687  0.00  0.00    +0.000 A 
ATOM      5  C   UNL     1       4.046   6.558  17.474  0.00  0.00    +0.000 A 
ATOM      6  C   UNL     1       3.071   7.142  18.379  0.00  0.00    +0.000 A 
ATOM      7  C   UNL     1       2.473   8.471  18.059  0.00  0.00    +0.000 A 
ATOM      8  O   UNL     1       2.805   9.065  17.029  0.00  0.00    +0.000 OA
ATOM      9  N   UNL     1       1.554   8.961  18.970  0.00  0.00    +0.000 N 
ATOM     10  C   UNL     1       0.957  10.198  18.746  0.00  0.00    +0.000 A 
ATOM     11  C   UNL     1       0.062  10.715  19.597  0.00  0.00    +0.000 A 
ATOM     12  C   UNL     1      -0.304   9.983  20.780  0.00  0.00    +0.000 A 
ATOM     13  C   UNL     1       0.245   8.789  21.035  0.00  0.00    +0.000 A 
ATOM     14  C   UNL     1       1.245   8.216  20.090  0.00  0.00    +0.000 A 
ATOM     15  N   UNL     1       1.765   7.064  20.364  0.00  0.00    +0.000 NA
ATOM     16  C   UNL     1       2.692   6.508  19.512  0.00  0.00    +0.000 A 
ATOM     17  H   UNL     1       4.317   3.002  19.964  0.00  0.00    +0.000 HD
ENDROOT
BRANCH   4  18
ATOM     18  C   UNL     1       5.606   4.858  16.683  0.00  0.00    +0.000 C 
ATOM     19  O   UNL     1       6.431   3.991  16.961  0.00  0.00    +0.000 OA
ATOM     20  N   UNL     1       5.529   5.442  15.450  0.00  0.00    +0.000 N 
ATOM     21  H   UNL     1       4.845   6.196  15.332  0.00  0.00    +0.000 HD
BRANCH  20  22
ATOM     22  C   UNL     1       6.422   5.158  14.345  0.00  0.00    +0.000 C 
BRANCH  22  23
ATOM     23  C   UNL     1       6.051   3.867  13.610  0.00  0.00    +0.000 C 
ATOM     24  C   UNL     1       6.872   3.580  12.364  0.00  0.00    +0.000 C 
ATOM     25  C   UNL     1       5.951   2.673  11.590  0.00  0.00    +0.000 C 
ATOM     26  C   UNL     1       4.582   3.239  11.909  0.00  0.00    +0.000 C 
ATOM     27  O   UNL     1       4.672   3.889  13.184  0.00  0.00    +0.000 OA
ENDBRANCH  22  23
ENDBRANCH  20  22
ENDBRANCH   4  18
BRANCH   1  28
ATOM     28  C   UNL     1       2.820   4.564  21.048  0.00  0.00    +0.000 C 
BRANCH  28  29
ATOM     29  C   UNL     1       1.455   3.905  20.830  0.00  0.00    +0.000 C 
BRANCH  29  30
ATOM     30  C   UNL     1       1.560   2.387  20.856  0.00  0.00    +0.000 C 
BRANCH  30  32
ATOM     31  C   UNL     1       1.008   2.538  18.568  0.00  0.00    +0.000 C 
ATOM     32  O   UNL     1       1.839   1.919  19.539  0.00  0.00    +0.000 OA
ENDBRANCH  30  32
ENDBRANCH  29  30
ENDBRANCH  28  29
ENDBRANCH   1  28
TORSDOF 7
ENDMDL
MODEL 3
REMARK VINA RESULT:      -8.0      0.998      1.109
REMARK  Name = 
REMARK  8 active torsions:
REMARK  status: ('A' for Active; 'I' for Inactive)
REMARK    1  A    between atoms: C_1  and  O_2
REMARK    2  A    between atoms: O_2  and  C_3
REMARK    3  A    between atoms: C_3  and  C_4
REMARK    4  A    between atoms: C_4  and  C_5
REMARK    5  A    between atoms: C_5  and  N_6
REMARK    6  A    between atoms: C_9  and  C_10
REMARK    7  A    between atoms: N_12  and  C_13
REMARK    8  A    between atoms: C_13  and  C_14
REMARK                            x       y       z     vdW  Elec       q    Type
REMARK                         _______ _______ _______ _____ _____    ______ ____
ROOT
ATOM      1  N   UNL     1       2.943   5.904  19.643  0.00  0.00    +0.000 N 
ATOM      2  C   UNL     1       3.805   5.502  18.610  0.00  0.00    +0.000 A 
ATOM      3  N   UNL     1       4.352   4.320  18.536  0.00  0.00    +0.000 NA
ATOM      4  C   UNL     1       4.138   6.462  17.493  0.00  0.00    +0.000 A 
ATOM      5  C   UNL     1       3.519   7.655  17.539  0.00  0.00    +0.000 A 
ATOM      6  C   UNL     1       2.590   8.022  18.594  0.00  0.00    +0.000 A 
ATOM      7  C   UNL     1       1.928   9.359  18.560  0.00  0.00    +0.000 A 
ATOM      8  O   UNL     1       2.168  10.143  17.638  0.00  0.00    +0.000 OA
ATOM      9  N   UNL     1       1.058   9.635  19.600  0.00  0.00    +0.000 N 
ATOM     10  C   UNL     1       0.407  10.864  19.643  0.00  0.00    +0.000 A 
ATOM     11  C   UNL     1      -0.444  11.178  20.629  0.00  0.00    +0.000 A 
ATOM     12  C   UNL     1      -0.704  10.229  21.678  0.00  0.00    +0.000 A 
ATOM     13  C   UNL     1      -0.099   9.034  21.676  0.00  0.00    +0.000 A 
ATOM     14  C   UNL     1       0.852   8.687  20.582  0.00  0.00    +0.000 A 
ATOM     15  N   UNL     1       1.427   7.529  20.608  0.00  0.00    +0.000 NA
ATOM     16  C   UNL     1       2.311   7.178  19.613  0.00  0.00    +0.000 A 
ATOM     17  H   UNL     1       4.078   3.724  19.315  0.00  0.00    +0.000 HD
ENDROOT
BRANCH   4  18
ATOM     18  C   UNL     1       5.076   6.198  16.355  0.00  0.00    +0.000 C 
ATOM     19  O   UNL     1       4.990   6.802  15.289  0.00  0.00    +0.000 OA
ATOM     20  N   UNL     1       6.019   5.238  16.592  0.00  0.00    +0.000 N 
ATOM     21  H   UNL     1       5.975   4.751  17.493  0.00  0.00    +0.000 HD
BRANCH  20  22
ATOM     22  C   UNL     1       6.992   4.780  15.622  0.00  0.00    +0.000 C 
BRANCH  22  23
ATOM     23  C   UNL     1       6.425   4.735  14.200  0.00  0.00    +0.000 C 
ATOM     24  C   UNL     1       5.727   3.437  13.830  0.00  0.00    +0.000 C 
ATOM     25  C   UNL     1       5.824   3.454  12.326  0.00  0.00    +0.000 C 
ATOM     26  C   UNL     1       7.178   4.090  12.088  0.00  0.00    +0.000 C 
ATOM     27  O   UNL     1       7.467   4.923  13.219  0.00  0.00    +0.000 OA
ENDBRANCH  22  23
ENDBRANCH  20  22
ENDBRANCH   4  18
BRANCH   1  28
ATOM     28  C   UNL     1       2.608   4.996  20.756  0.00  0.00    +0.000 C 
BRANCH  28  29
ATOM     29  C   UNL     1       1.290   4.270  20.471  0.00  0.00    +0.000 C 
BRANCH  29  30
ATOM     30  C   UNL     1       1.346   2.819  20.924  0.00  0.00    +0.000 C 
BRANCH  30  32
ATOM     31  C   UNL     1       1.049   2.361  18.629  0.00  0.00    +0.000 C 
ATOM     32  O   UNL     1       1.733   2.003  19.820  0.00  0.00    +0.000 OA
ENDBRANCH  30  32
ENDBRANCH  29  30
ENDBRANCH  28  29
ENDBRANCH   1  28
TORSDOF 7
ENDMDL
MODEL 4
REMARK VINA RESULT:      -7.5      1.282      1.552
REMARK  Name = 
REMARK  8 active torsions:
REMARK  status: ('A' for Active; 'I' for Inactive)
REMARK    1  A    between atoms: C_1  and  O_2
REMARK    2  A    between atoms: O_2  and  C_3
REMARK    3  A    between atoms: C_3  and  C_4
REMARK    4  A    between atoms: C_4  and  C_5
REMARK    5  A    between atoms: C_5  and  N_6
REMARK    6  A    between atoms: C_9  and  C_10
REMARK    7  A    between atoms: N_12  and  C_13
REMARK    8  A    between atoms: C_13  and  C_14
REMARK                            x       y       z     vdW  Elec       q    Type
REMARK                         _______ _______ _______ _____ _____    ______ ____
ROOT
ATOM      1  N   UNL     1       3.420   5.602  19.445  0.00  0.00    +0.000 N 
ATOM      2  C   UNL     1       4.382   5.289  18.471  0.00  0.00    +0.000 A 
ATOM      3  N   UNL     1       5.024   4.154  18.420  0.00  0.00    +0.000 NA
ATOM      4  C   UNL     1       4.717   6.294  17.395  0.00  0.00    +0.000 A 
ATOM      5  C   UNL     1       4.005   7.434  17.413  0.00  0.00    +0.000 A 
ATOM      6  C   UNL     1       2.977   7.708  18.403  0.00  0.00    +0.000 A 
ATOM      7  C   UNL     1       2.217   8.990  18.341  0.00  0.00    +0.000 A 
ATOM      8  O   UNL     1       2.459   9.808  17.449  0.00  0.00    +0.000 OA
ATOM      9  N   UNL     1       1.256   9.177  19.319  0.00  0.00    +0.000 N 
ATOM     10  C   UNL     1       0.509  10.351  19.332  0.00  0.00    +0.000 A 
ATOM     11  C   UNL     1      -0.431  10.578  20.258  0.00  0.00    +0.000 A 
ATOM     12  C   UNL     1      -0.690   9.591  21.272  0.00  0.00    +0.000 A 
ATOM     13  C   UNL     1       0.004   8.448  21.296  0.00  0.00    +0.000 A 
ATOM     14  C   UNL     1       1.055   8.196  20.269  0.00  0.00    +0.000 A 
ATOM     15  N   UNL     1       1.716   7.086  20.320  0.00  0.00    +0.000 NA
ATOM     16  C   UNL     1       2.693   6.824  19.387  0.00  0.00    +0.000 A 
ATOM     17  H   UNL     1       4.742   3.524  19.168  0.00  0.00    +0.000 HD
ENDROOT
BRANCH   4  18
ATOM     18  C   UNL     1       5.751   6.125  16.325  0.00  0.00    +0.000 C 
ATOM     19  O   UNL     1       6.770   6.811  16.293  0.00  0.00    +0.000 OA
ATOM     20  N   UNL     1       5.472   5.165  15.394  0.00  0.00    +0.000 N 
ATOM     21  H   UNL     1       4.571   4.684  15.473  0.00  0.00    +0.000 HD
BRANCH  20  22
ATOM     22  C   UNL     1       6.299   4.867  14.242  0.00  0.00    +0.000 C 
BRANCH  22  23
ATOM     23  C   UNL     1       5.814   3.632  13.477  0.00  0.00    +0.000 C 
ATOM     24  C   UNL     1       6.701   3.207  12.319  0.00  0.00    +0.000 C 
ATOM     25  C   UNL     1       5.735   2.432  11.460  0.00  0.00    +0.000 C 
ATOM     26  C   UNL     1       4.441   3.198  11.641  0.00  0.00    +0.000 C 
ATOM     27  O   UNL     1       4.502   3.849  12.918  0.00  0.00    +0.000 OA
ENDBRANCH  22  23
ENDBRANCH  20  22
ENDBRANCH   4  18
BRANCH   1  28
ATOM     28  C   UNL     1       3.078   4.649  20.517  0.00  0.00    +0.000 C 
BRANCH  28  29
ATOM     29  C   UNL     1       1.774   3.919  20.184  0.00  0.00    +0.000 C 
BRANCH  29  30
ATOM     30  C   UNL     1       2.019   2.444  19.903  0.00  0.00    +0.000 C 
BRANCH  30  32
ATOM     31  C   UNL     1       3.518   1.254  18.524  0.00  0.00    +0.000 C 
ATOM     32  O   UNL     1       2.567   2.306  18.594  0.00  0.00    +0.000 OA
ENDBRANCH  30  32
ENDBRANCH  29  30
ENDBRANCH  28  29
ENDBRANCH   1  28
TORSDOF 7
ENDMDL
MODEL 5
REMARK VINA RESULT:      -7.0      4.090      7.692
REMARK  Name = 
REMARK  8 active torsions:
REMARK  status: ('A' for Active; 'I' for Inactive)
REMARK    1  A    between atoms: C_1  and  O_2
REMARK    2  A    between atoms: O_2  and  C_3
REMARK    3  A    between atoms: C_3  and  C_4
REMARK    4  A    between atoms: C_4  and  C_5
REMARK    5  A    between atoms: C_5  and  N_6
REMARK    6  A    between atoms: C_9  and  C_10
REMARK    7  A    between atoms: N_12  and  C_13
REMARK    8  A    between atoms: C_13  and  C_14
REMARK                            x       y       z     vdW  Elec       q    Type
REMARK                         _______ _______ _______ _____ _____    ______ ____
ROOT
ATOM      1  N   UNL     1      -0.799  11.676  20.493  0.00  0.00    +0.000 N 
ATOM      2  C   UNL     1       0.334  10.908  20.181  0.00  0.00    +0.000 A 
ATOM      3  N   UNL     1       1.388  10.821  20.944  0.00  0.00    +0.000 NA
ATOM      4  C   UNL     1       0.372  10.112  18.897  0.00  0.00    +0.000 A 
ATOM      5  C   UNL     1      -0.743  10.153  18.147  0.00  0.00    +0.000 A 
ATOM      6  C   UNL     1      -1.921  10.915  18.524  0.00  0.00    +0.000 A 
ATOM      7  C   UNL     1      -3.127  10.890  17.645  0.00  0.00    +0.000 A 
ATOM      8  O   UNL     1      -3.120  10.221  16.608  0.00  0.00    +0.000 OA
ATOM      9  N   UNL     1      -4.207  11.643  18.071  0.00  0.00    +0.000 N 
ATOM     10  C   UNL     1      -5.367  11.676  17.303  0.00  0.00    +0.000 A 
ATOM     11  C   UNL     1      -6.438  12.389  17.673  0.00  0.00    +0.000 A 
ATOM     12  C   UNL     1      -6.406  13.145  18.896  0.00  0.00    +0.000 A 
ATOM     13  C   UNL     1      -5.311  13.141  19.666  0.00  0.00    +0.000 A 
ATOM     14  C   UNL     1      -4.116  12.351  19.252  0.00  0.00    +0.000 A 
ATOM     15  N   UNL     1      -3.070  12.371  20.012  0.00  0.00    +0.000 NA
ATOM     16  C   UNL     1      -1.950  11.653  19.657  0.00  0.00    +0.000 A 
ATOM     17  H   UNL     1       1.289  11.373  21.793  0.00  0.00    +0.000 HD
ENDROOT
BRANCH   4  18
ATOM     18  C   UNL     1       1.524   9.291  18.405  0.00  0.00    +0.000 C 
ATOM     19  O   UNL     1       2.155   9.597  17.396  0.00  0.00    +0.000 OA
ATOM     20  N   UNL     1       1.810   8.184  19.153  0.00  0.00    +0.000 N 
ATOM     21  H   UNL     1       1.191   7.982  19.945  0.00  0.00    +0.000 HD
BRANCH  20  22
ATOM     22  C   UNL     1       2.842   7.218  18.836  0.00  0.00    +0.000 C 
BRANCH  22  23
ATOM     23  C   UNL     1       2.816   6.005  19.772  0.00  0.00    +0.000 C 
ATOM     24  C   UNL     1       3.023   4.665  19.089  0.00  0.00    +0.000 C 
ATOM     25  C   UNL     1       2.381   3.717  20.070  0.00  0.00    +0.000 C 
ATOM     26  C   UNL     1       1.212   4.524  20.594  0.00  0.00    +0.000 C 
ATOM     27  O   UNL     1       1.554   5.911  20.466  0.00  0.00    +0.000 OA
ENDBRANCH  22  23
ENDBRANCH  20  22
ENDBRANCH   4  18
BRANCH   1  28
ATOM     28  C   UNL     1      -0.864  12.475  21.731  0.00  0.00    +0.000 C 
BRANCH  28  29
ATOM     29  C   UNL     1      -1.630  11.712  22.816  0.00  0.00    +0.000 C 
BRANCH  29  30
ATOM     30  C   UNL     1      -2.597  12.623  23.558  0.00  0.00    +0.000 C 
BRANCH  30  32
ATOM     31  C   UNL     1      -4.562  12.347  24.832  0.00  0.00    +0.000 C 
ATOM     32  O   UNL     1      -3.863  11.975  23.654  0.00  0.00    +0.000 OA
ENDBRANCH  30  32
ENDBRANCH  29  30
ENDBRANCH  28  29
ENDBRANCH   1  28
TORSDOF 7
ENDMDL
MODEL 6
REMARK VINA RESULT:      -6.9      2.132      7.247
REMARK  Name = 
REMARK  8 active torsions:
REMARK  status: ('A' for Active; 'I' for Inactive)
REMARK    1  A    between atoms: C_1  and  O_2
REMARK    2  A    between atoms: O_2  and  C_3
REMARK    3  A    between atoms: C_3  and  C_4
REMARK    4  A    between atoms: C_4  and  C_5
REMARK    5  A    between atoms: C_5  and  N_6
REMARK    6  A    between atoms: C_9  and  C_10
REMARK    7  A    between atoms: N_12  and  C_13
REMARK    8  A    between atoms: C_13  and  C_14
REMARK                            x       y       z     vdW  Elec       q    Type
REMARK                         _______ _______ _______ _____ _____    ______ ____
ROOT
ATOM      1  N   UNL     1       2.127   6.249  20.185  0.00  0.00    +0.000 N 
ATOM      2  C   UNL     1       1.446   7.434  20.507  0.00  0.00    +0.000 A 
ATOM      3  N   UNL     1       0.767   7.608  21.607  0.00  0.00    +0.000 NA
ATOM      4  C   UNL     1       1.485   8.605  19.554  0.00  0.00    +0.000 A 
ATOM      5  C   UNL     1       2.240   8.443  18.454  0.00  0.00    +0.000 A 
ATOM      6  C   UNL     1       2.977   7.222  18.174  0.00  0.00    +0.000 A 
ATOM      7  C   UNL     1       3.811   7.131  16.940  0.00  0.00    +0.000 A 
ATOM      8  O   UNL     1       3.875   8.091  16.167  0.00  0.00    +0.000 OA
ATOM      9  N   UNL     1       4.481   5.936  16.744  0.00  0.00    +0.000 N 
ATOM     10  C   UNL     1       5.273   5.771  15.613  0.00  0.00    +0.000 A 
ATOM     11  C   UNL     1       5.941   4.634  15.379  0.00  0.00    +0.000 A 
ATOM     12  C   UNL     1       5.847   3.545  16.313  0.00  0.00    +0.000 A 
ATOM     13  C   UNL     1       5.096   3.661  17.415  0.00  0.00    +0.000 A 
ATOM     14  C   UNL     1       4.349   4.925  17.674  0.00  0.00    +0.000 A 
ATOM     15  N   UNL     1       3.626   5.007  18.742  0.00  0.00    +0.000 NA
ATOM     16  C   UNL     1       2.923   6.160  19.010  0.00  0.00    +0.000 A 
ATOM     17  H   UNL     1       0.792   6.784  22.204  0.00  0.00    +0.000 HD
ENDROOT
BRANCH   4  18
ATOM     18  C   UNL     1       0.770   9.909  19.733  0.00  0.00    +0.000 C 
ATOM     19  O   UNL     1       1.064  10.693  20.633  0.00  0.00    +0.000 OA
ATOM     20  N   UNL     1      -0.228  10.153  18.832  0.00  0.00    +0.000 N 
ATOM     21  H   UNL     1      -0.436   9.414  18.153  0.00  0.00    +0.000 HD
BRANCH  20  22
ATOM     22  C   UNL     1      -1.086  11.320  18.847  0.00  0.00    +0.000 C 
BRANCH  22  23
ATOM     23  C   UNL     1      -1.976  11.408  17.603  0.00  0.00    +0.000 C 
ATOM     24  C   UNL     1      -3.466  11.499  17.886  0.00  0.00    +0.000 C 
ATOM     25  C   UNL     1      -4.056  10.988  16.597  0.00  0.00    +0.000 C 
ATOM     26  C   UNL     1      -3.070   9.914  16.183  0.00  0.00    +0.000 C 
ATOM     27  O   UNL     1      -1.798  10.254  16.754  0.00  0.00    +0.000 OA
ENDBRANCH  22  23
ENDBRANCH  20  22
ENDBRANCH   4  18
BRANCH   1  28
ATOM     28  C   UNL     1       2.099   5.082  21.087  0.00  0.00    +0.000 C 
BRANCH  28  29
ATOM     29  C   UNL     1       1.050   4.071  20.616  0.00  0.00    +0.000 C 
BRANCH  29  30
ATOM     30  C   UNL     1       1.481   2.643  20.914  0.00  0.00    +0.000 C 
BRANCH  30  32
ATOM     31  C   UNL     1       0.987   2.402  18.620  0.00  0.00    +0.000 C 
ATOM     32  O   UNL     1       1.827   1.998  19.691  0.00  0.00    +0.000 OA
ENDBRANCH  30  32
ENDBRANCH  29  30
ENDBRANCH  28  29
ENDBRANCH   1  28
TORSDOF 7
ENDMDL
MODEL 7
REMARK VINA RESULT:      -6.8      3.772      7.373
REMARK  Name = 
REMARK  8 active torsions:
REMARK  status: ('A' for Active; 'I' for Inactive)
REMARK    1  A    between atoms: C_1  and  O_2
REMARK    2  A    between atoms: O_2  and  C_3
REMARK    3  A    between atoms: C_3  and  C_4
REMARK    4  A    between atoms: C_4  and  C_5
REMARK    5  A    between atoms: C_5  and  N_6
REMARK    6  A    between atoms: C_9  and  C_10
REMARK    7  A    between atoms: N_12  and  C_13
REMARK    8  A    between atoms: C_13  and  C_14
REMARK                            x       y       z     vdW  Elec       q    Type
REMARK                         _______ _______ _______ _____ _____    ______ ____
ROOT
ATOM      1  N   UNL     1      -0.699  10.898  20.450  0.00  0.00    +0.000 N 
ATOM      2  C   UNL     1       0.438  10.145  20.117  0.00  0.00    +0.000 A 
ATOM      3  N   UNL     1       1.387   9.847  20.962  0.00  0.00    +0.000 NA
ATOM      4  C   UNL     1       0.607   9.620  18.711  0.00  0.00    +0.000 A 
ATOM      5  C   UNL     1      -0.405   9.873  17.864  0.00  0.00    +0.000 A 
ATOM      6  C   UNL     1      -1.596  10.611  18.253  0.00  0.00    +0.000 A 
ATOM      7  C   UNL     1      -2.684  10.831  17.257  0.00  0.00    +0.000 A 
ATOM      8  O   UNL     1      -2.573  10.383  16.112  0.00  0.00    +0.000 OA
ATOM      9  N   UNL     1      -3.784  11.543  17.703  0.00  0.00    +0.000 N 
ATOM     10  C   UNL     1      -4.838  11.795  16.831  0.00  0.00    +0.000 A 
ATOM     11  C   UNL     1      -5.923  12.480  17.215  0.00  0.00    +0.000 A 
ATOM     12  C   UNL     1      -6.017  12.974  18.563  0.00  0.00    +0.000 A 
ATOM     13  C   UNL     1      -5.025  12.754  19.435  0.00  0.00    +0.000 A 
ATOM     14  C   UNL     1      -3.815  11.996  19.006  0.00  0.00    +0.000 A 
ATOM     15  N   UNL     1      -2.870  11.804  19.867  0.00  0.00    +0.000 NA
ATOM     16  C   UNL     1      -1.739  11.109  19.502  0.00  0.00    +0.000 A 
ATOM     17  H   UNL     1       1.204  10.224  21.889  0.00  0.00    +0.000 HD
ENDROOT
BRANCH   4  18
ATOM     18  C   UNL     1       1.783   8.850  18.195  0.00  0.00    +0.000 C 
ATOM     19  O   UNL     1       2.436   9.232  17.226  0.00  0.00    +0.000 OA
ATOM     20  N   UNL     1       2.066   7.698  18.873  0.00  0.00    +0.000 N 
ATOM     21  H   UNL     1       1.429   7.434  19.632  0.00  0.00    +0.000 HD
BRANCH  20  22
ATOM     22  C   UNL     1       3.119   6.769  18.519  0.00  0.00    +0.000 C 
BRANCH  22  23
ATOM     23  C   UNL     1       2.802   5.332  18.946  0.00  0.00    +0.000 C 
ATOM     24  C   UNL     1       1.851   4.585  18.027  0.00  0.00    +0.000 C 
ATOM     25  C   UNL     1       1.293   3.533  18.951  0.00  0.00    +0.000 C 
ATOM     26  C   UNL     1       1.208   4.265  20.274  0.00  0.00    +0.000 C 
ATOM     27  O   UNL     1       2.199   5.302  20.257  0.00  0.00    +0.000 OA
ENDBRANCH  22  23
ENDBRANCH  20  22
ENDBRANCH   4  18
BRANCH   1  28
ATOM     28  C   UNL     1      -0.889  11.436  21.810  0.00  0.00    +0.000 C 
BRANCH  28  29
ATOM     29  C   UNL     1      -0.271  12.834  21.919  0.00  0.00    +0.000 C 
BRANCH  29  30
ATOM     30  C   UNL     1      -1.274  13.844  22.457  0.00  0.00    +0.000 C 
BRANCH  30  32
ATOM     31  C   UNL     1      -3.574  13.720  22.968  0.00  0.00    +0.000 C 
ATOM     32  O   UNL     1      -2.291  13.150  23.177  0.00  0.00    +0.000 OA
ENDBRANCH  30  32
ENDBRANCH  29  30
ENDBRANCH  28  29
ENDBRANCH   1  28
TORSDOF 7
ENDMDL
MODEL 8
REMARK VINA RESULT:      -6.8      4.056      7.436
REMARK  Name = 
REMARK  8 active torsions:
REMARK  status: ('A' for Active; 'I' for Inactive)
REMARK    1  A    between atoms: C_1  and  O_2
REMARK    2  A    between atoms: O_2  and  C_3
REMARK    3  A    between atoms: C_3  and  C_4
REMARK    4  A    between atoms: C_4  and  C_5
REMARK    5  A    between atoms: C_5  and  N_6
REMARK    6  A    between atoms: C_9  and  C_10
REMARK    7  A    between atoms: N_12  and  C_13
REMARK    8  A    between atoms: C_13  and  C_14
REMARK                            x       y       z     vdW  Elec       q    Type
REMARK                         _______ _______ _______ _____ _____    ______ ____
ROOT
ATOM      1  N   UNL     1      -0.902  11.574  20.535  0.00  0.00    +0.000 N 
ATOM      2  C   UNL     1       0.249  10.816  20.263  0.00  0.00    +0.000 A 
ATOM      3  N   UNL     1       1.260  10.708  21.080  0.00  0.00    +0.000 NA
ATOM      4  C   UNL     1       0.359  10.058  18.961  0.00  0.00    +0.000 A 
ATOM      5  C   UNL     1      -0.714  10.121  18.153  0.00  0.00    +0.000 A 
ATOM      6  C   UNL     1      -1.913  10.871  18.487  0.00  0.00    +0.000 A 
ATOM      7  C   UNL     1      -3.068  10.871  17.544  0.00  0.00    +0.000 A 
ATOM      8  O   UNL     1      -3.004  10.233  16.489  0.00  0.00    +0.000 OA
ATOM      9  N   UNL     1      -4.172  11.610  17.932  0.00  0.00    +0.000 N 
ATOM     10  C   UNL     1      -5.288  11.665  17.103  0.00  0.00    +0.000 A 
ATOM     11  C   UNL     1      -6.380  12.366  17.435  0.00  0.00    +0.000 A 
ATOM     12  C   UNL     1      -6.416  13.086  18.680  0.00  0.00    +0.000 A 
ATOM     13  C   UNL     1      -5.365  13.060  19.508  0.00  0.00    +0.000 A 
ATOM     14  C   UNL     1      -4.148  12.283  19.137  0.00  0.00    +0.000 A 
ATOM     15  N   UNL     1      -3.144  12.281  19.952  0.00  0.00    +0.000 NA
ATOM     16  C   UNL     1      -2.005  11.575  19.638  0.00  0.00    +0.000 A 
ATOM     17  H   UNL     1       1.114  11.235  21.938  0.00  0.00    +0.000 HD
ENDROOT
BRANCH   4  18
ATOM     18  C   UNL     1       1.538   9.253  18.508  0.00  0.00    +0.000 C 
ATOM     19  O   UNL     1       2.189   9.559  17.512  0.00  0.00    +0.000 OA
ATOM     20  N   UNL     1       1.824   8.161  19.277  0.00  0.00    +0.000 N 
ATOM     21  H   UNL     1       1.189   7.957  20.056  0.00  0.00    +0.000 HD
BRANCH  20  22
ATOM     22  C   UNL     1       2.881   7.210  18.999  0.00  0.00    +0.000 C 
BRANCH  22  23
ATOM     23  C   UNL     1       2.391   6.011  18.182  0.00  0.00    +0.000 C 
ATOM     24  C   UNL     1       1.814   4.870  19.003  0.00  0.00    +0.000 C 
ATOM     25  C   UNL     1       1.984   3.701  18.067  0.00  0.00    +0.000 C 
ATOM     26  C   UNL     1       3.295   4.017  17.376  0.00  0.00    +0.000 C 
ATOM     27  O   UNL     1       3.462   5.441  17.401  0.00  0.00    +0.000 OA
ENDBRANCH  22  23
ENDBRANCH  20  22
ENDBRANCH   4  18
BRANCH   1  28
ATOM     28  C   UNL     1      -1.035  12.336  21.791  0.00  0.00    +0.000 C 
BRANCH  28  29
ATOM     29  C   UNL     1      -1.628  11.450  22.890  0.00  0.00    +0.000 C 
BRANCH  29  30
ATOM     30  C   UNL     1      -2.825  12.114  23.555  0.00  0.00    +0.000 C 
BRANCH  30  32
ATOM     31  C   UNL     1      -3.347  14.360  24.052  0.00  0.00    +0.000 C 
ATOM     32  O   UNL     1      -2.964  13.437  23.043  0.00  0.00    +0.000 OA
ENDBRANCH  30  32
ENDBRANCH  29  30
ENDBRANCH  28  29
ENDBRANCH   1  28
TORSDOF 7
ENDMDL
MODEL 9
REMARK VINA RESULT:      -6.8      4.681      8.365
REMARK  Name = 
REMARK  8 active torsions:
REMARK  status: ('A' for Active; 'I' for Inactive)
REMARK    1  A    between atoms: C_1  and  O_2
REMARK    2  A    between atoms: O_2  and  C_3
REMARK    3  A    between atoms: C_3  and  C_4
REMARK    4  A    between atoms: C_4  and  C_5
REMARK    5  A    between atoms: C_5  and  N_6
REMARK    6  A    between atoms: C_9  and  C_10
REMARK    7  A    between atoms: N_12  and  C_13
REMARK    8  A    between atoms: C_13  and  C_14
REMARK                            x       y       z     vdW  Elec       q    Type
REMARK                         _______ _______ _______ _____ _____    ______ ____
ROOT
ATOM      1  N   UNL     1      -1.667  12.471  20.843  0.00  0.00    +0.000 N 
ATOM      2  C   UNL     1      -0.417  11.930  20.502  0.00  0.00    +0.000 A 
ATOM      3  N   UNL     1       0.629  11.964  21.281  0.00  0.00    +0.000 NA
ATOM      4  C   UNL     1      -0.231  11.251  19.166  0.00  0.00    +0.000 A 
ATOM      5  C   UNL     1      -1.329  11.160  18.395  0.00  0.00    +0.000 A 
ATOM      6  C   UNL     1      -2.623  11.683  18.799  0.00  0.00    +0.000 A 
ATOM      7  C   UNL     1      -3.798  11.522  17.893  0.00  0.00    +0.000 A 
ATOM      8  O   UNL     1      -3.667  10.943  16.811  0.00  0.00    +0.000 OA
ATOM      9  N   UNL     1      -4.994  12.048  18.348  0.00  0.00    +0.000 N 
ATOM     10  C   UNL     1      -6.135  11.944  17.557  0.00  0.00    +0.000 A 
ATOM     11  C   UNL     1      -7.315  12.437  17.953  0.00  0.00    +0.000 A 
ATOM     12  C   UNL     1      -7.424  13.093  19.228  0.00  0.00    +0.000 A 
ATOM     13  C   UNL     1      -6.353  13.215  20.021  0.00  0.00    +0.000 A 
ATOM     14  C   UNL     1      -5.037  12.671  19.578  0.00  0.00    +0.000 A 
ATOM     15  N   UNL     1      -4.017  12.809  20.361  0.00  0.00    +0.000 NA
ATOM     16  C   UNL     1      -2.788  12.318  19.982  0.00  0.00    +0.000 A 
ATOM     17  H   UNL     1       0.430  12.427  22.166  0.00  0.00    +0.000 HD
ENDROOT
BRANCH   4  18
ATOM     18  C   UNL     1       1.049  10.675  18.642  0.00  0.00    +0.000 C 
ATOM     19  O   UNL     1       2.067  11.352  18.527  0.00  0.00    +0.000 OA
ATOM     20  N   UNL     1       0.992   9.354  18.298  0.00  0.00    +0.000 N 
ATOM     21  H   UNL     1       0.083   8.888  18.377  0.00  0.00    +0.000 HD
BRANCH  20  22
ATOM     22  C   UNL     1       2.089   8.604  17.720  0.00  0.00    +0.000 C 
BRANCH  22  23
ATOM     23  C   UNL     1       2.703   7.607  18.708  0.00  0.00    +0.000 C 
ATOM     24  C   UNL     1       2.817   6.183  18.193  0.00  0.00    +0.000 C 
ATOM     25  C   UNL     1       2.864   5.394  19.477  0.00  0.00    +0.000 C 
ATOM     26  C   UNL     1       1.931   6.175  20.380  0.00  0.00    +0.000 C 
ATOM     27  O   UNL     1       1.926   7.534  19.922  0.00  0.00    +0.000 OA
ENDBRANCH  22  23
ENDBRANCH  20  22
ENDBRANCH   4  18
BRANCH   1  28
ATOM     28  C   UNL     1      -1.879  13.152  22.134  0.00  0.00    +0.000 C 
BRANCH  28  29
ATOM     29  C   UNL     1      -2.484  12.183  23.153  0.00  0.00    +0.000 C 
BRANCH  29  30
ATOM     30  C   UNL     1      -3.496  12.880  24.049  0.00  0.00    +0.000 C 
BRANCH  30  32
ATOM     31  C   UNL     1      -5.840  12.907  23.787  0.00  0.00    +0.000 C 
ATOM     32  O   UNL     1      -4.698  12.114  24.075  0.00  0.00    +0.000 OA
ENDBRANCH  30  32
ENDBRANCH  29  30
ENDBRANCH  28  29
ENDBRANCH   1  28
TORSDOF 7
ENDMDL
