MODEL 1
REMARK VINA RESULT:      -7.2      0.000      0.000
REMARK  Name = 
REMARK  5 active torsions:
REMARK  status: ('A' for Active; 'I' for Inactive)
REMARK    1  A    between atoms: C_2  and  O_3
REMARK    2  A    between atoms: C_2  and  C_4
REMARK    3  A    between atoms: C_9  and  S_10
REMARK    4  A    between atoms: S_10  and  C_11
REMARK    5  A    between atoms: C_11  and  C_12
REMARK                            x       y       z     vdW  Elec       q    Type
REMARK                         _______ _______ _______ _____ _____    ______ ____
ROOT
ATOM      1  S   UNL     1       1.869   2.498  18.122  0.00  0.00    +0.000 S 
ENDROOT
BRANCH   1   7
ATOM      2  C   UNL     1       2.087   4.192  20.393  0.00  0.00    +0.000 A 
ATOM      3  C   UNL     1       2.152   5.475  20.971  0.00  0.00    +0.000 A 
ATOM      4  C   UNL     1       2.149   6.621  20.179  0.00  0.00    +0.000 A 
ATOM      5  C   UNL     1       2.085   6.501  18.797  0.00  0.00    +0.000 A 
ATOM      6  C   UNL     1       2.005   5.237  18.209  0.00  0.00    +0.000 A 
ATOM      7  C   UNL     1       1.975   4.068  18.991  0.00  0.00    +0.000 A 
BRANCH   2   9
ATOM      8  O   UNL     1       1.183   2.741  22.048  0.00  0.00    +0.000 OA
ATOM      9  C   UNL     1       2.142   3.062  21.365  0.00  0.00    +0.000 C 
BRANCH   9  10
ATOM     10  O   UNL     1       3.355   2.491  21.516  0.00  0.00    +0.000 OA
ATOM     11  H   UNL     1       4.102   3.120  21.445  0.00  0.00    +0.000 HD
ENDBRANCH   9  10
ENDBRANCH   2   9
ENDBRANCH   1   7
BRANCH   1  12
ATOM     12  C   UNL     1       3.623   1.940  18.191  0.00  0.00    +0.000 C 
BRANCH  12  13
ATOM     13  C   UNL     1       4.566   3.088  18.018  0.00  0.00    +0.000 A 
ATOM     14  C   UNL     1       4.876   3.792  16.872  0.00  0.00    +0.000 A 
ATOM     15  N   UNL     1       5.790   4.743  17.246  0.00  0.00    +0.000 N 
ATOM     16  C   UNL     1       6.448   5.692  16.468  0.00  0.00    +0.000 A 
ATOM     17  C   UNL     1       7.321   6.530  17.054  0.00  0.00    +0.000 A 
ATOM     18  C   UNL     1       7.544   6.419  18.489  0.00  0.00    +0.000 A 
ATOM     19  C   UNL     1       6.898   5.499  19.238  0.00  0.00    +0.000 A 
ATOM     20  C   UNL     1       5.980   4.602  18.617  0.00  0.00    +0.000 A 
ATOM     21  N   UNL     1       5.248   3.616  19.100  0.00  0.00    +0.000 NA
ENDBRANCH  12  13
ENDBRANCH   1  12
TORSDOF 5
ENDMDL
MODEL 2
REMARK VINA RESULT:      -7.1      2.695      3.861
REMARK  Name = 
REMARK  5 active torsions:
REMARK  status: ('A' for Active; 'I' for Inactive)
REMARK    1  A    between atoms: C_2  and  O_3
REMARK    2  A    between atoms: C_2  and  C_4
REMARK    3  A    between atoms: C_9  and  S_10
REMARK    4  A    between atoms: S_10  and  C_11
REMARK    5  A    between atoms: C_11  and  C_12
REMARK                            x       y       z     vdW  Elec       q    Type
REMARK                         _______ _______ _______ _____ _____    ______ ____
ROOT
ATOM      1  S   UNL     1       5.723   4.883  18.907  0.00  0.00    +0.000 S 
ENDROOT
BRANCH   1   7
ATOM      2  C   UNL     1       3.562   3.295  19.846  0.00  0.00    +0.000 A 
ATOM      3  C   UNL     1       2.237   3.165  20.305  0.00  0.00    +0.000 A 
ATOM      4  C   UNL     1       1.423   4.283  20.476  0.00  0.00    +0.000 A 
ATOM      5  C   UNL     1       1.925   5.547  20.195  0.00  0.00    +0.000 A 
ATOM      6  C   UNL     1       3.232   5.692  19.726  0.00  0.00    +0.000 A 
ATOM      7  C   UNL     1       4.060   4.574  19.515  0.00  0.00    +0.000 A 
BRANCH   2   9
ATOM      8  O   UNL     1       5.138   1.678  20.597  0.00  0.00    +0.000 OA
ATOM      9  C   UNL     1       4.323   2.014  19.753  0.00  0.00    +0.000 C 
BRANCH   9  10
ATOM     10  O   UNL     1       4.129   1.310  18.620  0.00  0.00    +0.000 OA
ATOM     11  H   UNL     1       3.392   1.642  18.066  0.00  0.00    +0.000 HD
ENDBRANCH   9  10
ENDBRANCH   2   9
ENDBRANCH   1   7
BRANCH   1  12
ATOM     12  C   UNL     1       5.383   6.076  17.546  0.00  0.00    +0.000 C 
BRANCH  12  13
ATOM     13  C   UNL     1       5.675   5.473  16.209  0.00  0.00    +0.000 A 
ATOM     14  C   UNL     1       4.934   4.556  15.490  0.00  0.00    +0.000 A 
ATOM     15  N   UNL     1       5.632   4.329  14.332  0.00  0.00    +0.000 N 
ATOM     16  C   UNL     1       5.341   3.467  13.278  0.00  0.00    +0.000 A 
ATOM     17  C   UNL     1       6.183   3.401  12.233  0.00  0.00    +0.000 A 
ATOM     18  C   UNL     1       7.373   4.240  12.236  0.00  0.00    +0.000 A 
ATOM     19  C   UNL     1       7.647   5.077  13.260  0.00  0.00    +0.000 A 
ATOM     20  C   UNL     1       6.760   5.142  14.376  0.00  0.00    +0.000 A 
ATOM     21  N   UNL     1       6.800   5.842  15.493  0.00  0.00    +0.000 NA
ENDBRANCH  12  13
ENDBRANCH   1  12
TORSDOF 5
ENDMDL
MODEL 3
REMARK VINA RESULT:      -7.1      2.398      5.576
REMARK  Name = 
REMARK  5 active torsions:
REMARK  status: ('A' for Active; 'I' for Inactive)
REMARK    1  A    between atoms: C_2  and  O_3
REMARK    2  A    between atoms: C_2  and  C_4
REMARK    3  A    between atoms: C_9  and  S_10
REMARK    4  A    between atoms: S_10  and  C_11
REMARK    5  A    between atoms: C_11  and  C_12
REMARK                            x       y       z     vdW  Elec       q    Type
REMARK                         _______ _______ _______ _____ _____    ______ ____
ROOT
ATOM      1  S   UNL     1       4.754   6.710  16.294  0.00  0.00    +0.000 S 
ENDROOT
BRANCH   1   7
ATOM      2  C   UNL     1       6.543   5.589  18.194  0.00  0.00    +0.000 A 
ATOM      3  C   UNL     1       7.677   5.684  19.024  0.00  0.00    +0.000 A 
ATOM      4  C   UNL     1       8.467   6.831  19.033  0.00  0.00    +0.000 A 
ATOM      5  C   UNL     1       8.138   7.898  18.208  0.00  0.00    +0.000 A 
ATOM      6  C   UNL     1       7.009   7.825  17.389  0.00  0.00    +0.000 A 
ATOM      7  C   UNL     1       6.179   6.689  17.388  0.00  0.00    +0.000 A 
BRANCH   2   9
ATOM      8  O   UNL     1       5.437   3.807  19.318  0.00  0.00    +0.000 OA
ATOM      9  C   UNL     1       5.823   4.284  18.263  0.00  0.00    +0.000 C 
BRANCH   9  10
ATOM     10  O   UNL     1       5.725   3.618  17.095  0.00  0.00    +0.000 OA
ATOM     11  H   UNL     1       4.823   3.291  16.898  0.00  0.00    +0.000 HD
ENDBRANCH   9  10
ENDBRANCH   2   9
ENDBRANCH   1   7
BRANCH   1  12
ATOM     12  C   UNL     1       3.446   7.330  17.433  0.00  0.00    +0.000 C 
BRANCH  12  13
ATOM     13  C   UNL     1       2.899   6.228  18.284  0.00  0.00    +0.000 A 
ATOM     14  C   UNL     1       2.857   6.134  19.661  0.00  0.00    +0.000 A 
ATOM     15  N   UNL     1       2.258   4.933  19.941  0.00  0.00    +0.000 N 
ATOM     16  C   UNL     1       2.001   4.338  21.173  0.00  0.00    +0.000 A 
ATOM     17  C   UNL     1       1.402   3.136  21.210  0.00  0.00    +0.000 A 
ATOM     18  C   UNL     1       1.036   2.496  19.953  0.00  0.00    +0.000 A 
ATOM     19  C   UNL     1       1.285   3.081  18.762  0.00  0.00    +0.000 A 
ATOM     20  C   UNL     1       1.930   4.352  18.720  0.00  0.00    +0.000 A 
ATOM     21  N   UNL     1       2.302   5.119  17.712  0.00  0.00    +0.000 NA
ENDBRANCH  12  13
ENDBRANCH   1  12
TORSDOF 5
ENDMDL
MODEL 4
REMARK VINA RESULT:      -7.1      0.857      1.559
REMARK  Name = 
REMARK  5 active torsions:
REMARK  status: ('A' for Active; 'I' for Inactive)
REMARK    1  A    between atoms: C_2  and  O_3
REMARK    2  A    between atoms: C_2  and  C_4
REMARK    3  A    between atoms: C_9  and  S_10
REMARK    4  A    between atoms: S_10  and  C_11
REMARK    5  A    between atoms: C_11  and  C_12
REMARK                            x       y       z     vdW  Elec       q    Type
REMARK                         _______ _______ _______ _____ _____    ______ ____
ROOT
ATOM      1  S   UNL     1       1.817   3.028  17.905  0.00  0.00    +0.000 S 
ENDROOT
BRANCH   1   7
ATOM      2  C   UNL     1       1.797   4.738  20.173  0.00  0.00    +0.000 A 
ATOM      3  C   UNL     1       1.890   6.019  20.751  0.00  0.00    +0.000 A 
ATOM      4  C   UNL     1       2.146   7.144  19.969  0.00  0.00    +0.000 A 
ATOM      5  C   UNL     1       2.318   7.002  18.598  0.00  0.00    +0.000 A 
ATOM      6  C   UNL     1       2.215   5.741  18.008  0.00  0.00    +0.000 A 
ATOM      7  C   UNL     1       1.926   4.597  18.774  0.00  0.00    +0.000 A 
BRANCH   2   9
ATOM      8  O   UNL     1       2.347   3.367  22.038  0.00  0.00    +0.000 OA
ATOM      9  C   UNL     1       1.561   3.628  21.142  0.00  0.00    +0.000 C 
BRANCH   9  10
ATOM     10  O   UNL     1       0.477   2.866  20.891  0.00  0.00    +0.000 OA
ATOM     11  H   UNL     1       0.245   2.805  19.942  0.00  0.00    +0.000 HD
ENDBRANCH   9  10
ENDBRANCH   2   9
ENDBRANCH   1   7
BRANCH   1  12
ATOM     12  C   UNL     1       3.486   2.326  18.236  0.00  0.00    +0.000 C 
BRANCH  12  13
ATOM     13  C   UNL     1       4.541   3.385  18.189  0.00  0.00    +0.000 A 
ATOM     14  C   UNL     1       5.309   3.893  19.218  0.00  0.00    +0.000 A 
ATOM     15  N   UNL     1       6.122   4.841  18.653  0.00  0.00    +0.000 N 
ATOM     16  C   UNL     1       7.063   5.671  19.255  0.00  0.00    +0.000 A 
ATOM     17  C   UNL     1       7.750   6.543  18.496  0.00  0.00    +0.000 A 
ATOM     18  C   UNL     1       7.488   6.584  17.065  0.00  0.00    +0.000 A 
ATOM     19  C   UNL     1       6.577   5.772  16.487  0.00  0.00    +0.000 A 
ATOM     20  C   UNL     1       5.840   4.854  17.291  0.00  0.00    +0.000 A 
ATOM     21  N   UNL     1       4.896   3.981  16.992  0.00  0.00    +0.000 NA
ENDBRANCH  12  13
ENDBRANCH   1  12
TORSDOF 5
ENDMDL
MODEL 5
REMARK VINA RESULT:      -7.0      2.481      5.463
REMARK  Name = 
REMARK  5 active torsions:
REMARK  status: ('A' for Active; 'I' for Inactive)
REMARK    1  A    between atoms: C_2  and  O_3
REMARK    2  A    between atoms: C_2  and  C_4
REMARK    3  A    between atoms: C_9  and  S_10
REMARK    4  A    between atoms: S_10  and  C_11
REMARK    5  A    between atoms: C_11  and  C_12
REMARK                            x       y       z     vdW  Elec       q    Type
REMARK                         _______ _______ _______ _____ _____    ______ ____
ROOT
ATOM      1  S   UNL     1       4.734   6.746  16.317  0.00  0.00    +0.000 S 
ENDROOT
BRANCH   1   7
ATOM      2  C   UNL     1       6.576   5.642  18.176  0.00  0.00    +0.000 A 
ATOM      3  C   UNL     1       7.721   5.750  18.989  0.00  0.00    +0.000 A 
ATOM      4  C   UNL     1       8.489   6.913  18.997  0.00  0.00    +0.000 A 
ATOM      5  C   UNL     1       8.125   7.982  18.188  0.00  0.00    +0.000 A 
ATOM      6  C   UNL     1       6.985   7.895  17.387  0.00  0.00    +0.000 A 
ATOM      7  C   UNL     1       6.178   6.742  17.388  0.00  0.00    +0.000 A 
BRANCH   2   9
ATOM      8  O   UNL     1       5.519   3.829  19.299  0.00  0.00    +0.000 OA
ATOM      9  C   UNL     1       5.882   4.322  18.243  0.00  0.00    +0.000 C 
BRANCH   9  10
ATOM     10  O   UNL     1       5.784   3.663  17.071  0.00  0.00    +0.000 OA
ATOM     11  H   UNL     1       4.910   3.247  16.921  0.00  0.00    +0.000 HD
ENDBRANCH   9  10
ENDBRANCH   2   9
ENDBRANCH   1   7
BRANCH   1  12
ATOM     12  C   UNL     1       3.428   7.301  17.490  0.00  0.00    +0.000 C 
BRANCH  12  13
ATOM     13  C   UNL     1       2.865   6.150  18.260  0.00  0.00    +0.000 A 
ATOM     14  C   UNL     1       2.229   5.018  17.790  0.00  0.00    +0.000 A 
ATOM     15  N   UNL     1       1.907   4.275  18.896  0.00  0.00    +0.000 N 
ATOM     16  C   UNL     1       1.230   3.062  18.981  0.00  0.00    +0.000 A 
ATOM     17  C   UNL     1       1.015   2.513  20.189  0.00  0.00    +0.000 A 
ATOM     18  C   UNL     1       1.507   3.206  21.372  0.00  0.00    +0.000 A 
ATOM     19  C   UNL     1       2.168   4.381  21.281  0.00  0.00    +0.000 A 
ATOM     20  C   UNL     1       2.386   4.971  20.002  0.00  0.00    +0.000 A 
ATOM     21  N   UNL     1       2.971   6.097  19.639  0.00  0.00    +0.000 NA
ENDBRANCH  12  13
ENDBRANCH   1  12
TORSDOF 5
ENDMDL
MODEL 6
REMARK VINA RESULT:      -6.9      2.551      5.597
REMARK  Name = 
REMARK  5 active torsions:
REMARK  status: ('A' for Active; 'I' for Inactive)
REMARK    1  A    between atoms: C_2  and  O_3
REMARK    2  A    between atoms: C_2  and  C_4
REMARK    3  A    between atoms: C_9  and  S_10
REMARK    4  A    between atoms: S_10  and  C_11
REMARK    5  A    between atoms: C_11  and  C_12
REMARK                            x       y       z     vdW  Elec       q    Type
REMARK                         _______ _______ _______ _____ _____    ______ ____
ROOT
ATOM      1  S   UNL     1       5.013   7.438  17.665  0.00  0.00    +0.000 S 
ENDROOT
BRANCH   1   7
ATOM      2  C   UNL     1       5.815   4.746  17.244  0.00  0.00    +0.000 A 
ATOM      3  C   UNL     1       6.132   3.675  16.386  0.00  0.00    +0.000 A 
ATOM      4  C   UNL     1       6.036   3.809  15.003  0.00  0.00    +0.000 A 
ATOM      5  C   UNL     1       5.615   5.015  14.458  0.00  0.00    +0.000 A 
ATOM      6  C   UNL     1       5.311   6.091  15.294  0.00  0.00    +0.000 A 
ATOM      7  C   UNL     1       5.431   5.987  16.691  0.00  0.00    +0.000 A 
BRANCH   2   9
ATOM      8  O   UNL     1       6.661   5.064  19.445  0.00  0.00    +0.000 OA
ATOM      9  C   UNL     1       5.925   4.438  18.700  0.00  0.00    +0.000 C 
BRANCH   9  10
ATOM     10  O   UNL     1       5.241   3.352  19.112  0.00  0.00    +0.000 OA
ATOM     11  H   UNL     1       4.533   3.550  19.759  0.00  0.00    +0.000 HD
ENDBRANCH   9  10
ENDBRANCH   2   9
ENDBRANCH   1   7
BRANCH   1  12
ATOM     12  C   UNL     1       3.174   7.347  17.658  0.00  0.00    +0.000 C 
BRANCH  12  13
ATOM     13  C   UNL     1       2.685   6.175  18.448  0.00  0.00    +0.000 A 
ATOM     14  C   UNL     1       2.721   5.970  19.813  0.00  0.00    +0.000 A 
ATOM     15  N   UNL     1       2.149   4.743  20.028  0.00  0.00    +0.000 N 
ATOM     16  C   UNL     1       1.967   4.049  21.221  0.00  0.00    +0.000 A 
ATOM     17  C   UNL     1       1.380   2.840  21.195  0.00  0.00    +0.000 A 
ATOM     18  C   UNL     1       0.948   2.299  19.914  0.00  0.00    +0.000 A 
ATOM     19  C   UNL     1       1.124   2.980  18.761  0.00  0.00    +0.000 A 
ATOM     20  C   UNL     1       1.756   4.258  18.785  0.00  0.00    +0.000 A 
ATOM     21  N   UNL     1       2.064   5.107  17.823  0.00  0.00    +0.000 NA
ENDBRANCH  12  13
ENDBRANCH   1  12
TORSDOF 5
ENDMDL
MODEL 7
REMARK VINA RESULT:      -6.9      3.177      4.361
REMARK  Name = 
REMARK  5 active torsions:
REMARK  status: ('A' for Active; 'I' for Inactive)
REMARK    1  A    between atoms: C_2  and  O_3
REMARK    2  A    between atoms: C_2  and  C_4
REMARK    3  A    between atoms: C_9  and  S_10
REMARK    4  A    between atoms: S_10  and  C_11
REMARK    5  A    between atoms: C_11  and  C_12
REMARK                            x       y       z     vdW  Elec       q    Type
REMARK                         _______ _______ _______ _____ _____    ______ ____
ROOT
ATOM      1  S   UNL     1       5.482   5.977  18.308  0.00  0.00    +0.000 S 
ENDROOT
BRANCH   1   7
ATOM      2  C   UNL     1       3.083   5.283  19.662  0.00  0.00    +0.000 A 
ATOM      3  C   UNL     1       2.276   4.348  20.338  0.00  0.00    +0.000 A 
ATOM      4  C   UNL     1       2.689   3.027  20.499  0.00  0.00    +0.000 A 
ATOM      5  C   UNL     1       3.912   2.622  19.982  0.00  0.00    +0.000 A 
ATOM      6  C   UNL     1       4.730   3.540  19.322  0.00  0.00    +0.000 A 
ATOM      7  C   UNL     1       4.347   4.886  19.175  0.00  0.00    +0.000 A 
BRANCH   2   9
ATOM      8  O   UNL     1       2.253   7.154  18.447  0.00  0.00    +0.000 OA
ATOM      9  C   UNL     1       2.489   6.646  19.532  0.00  0.00    +0.000 C 
BRANCH   9  10
ATOM     10  O   UNL     1       2.335   7.320  20.689  0.00  0.00    +0.000 OA
ATOM     11  H   UNL     1       1.612   6.979  21.255  0.00  0.00    +0.000 HD
ENDBRANCH   9  10
ENDBRANCH   2   9
ENDBRANCH   1   7
BRANCH   1  12
ATOM     12  C   UNL     1       6.775   4.781  17.770  0.00  0.00    +0.000 C 
BRANCH  12  13
ATOM     13  C   UNL     1       6.743   4.577  16.289  0.00  0.00    +0.000 A 
ATOM     14  C   UNL     1       5.937   3.739  15.545  0.00  0.00    +0.000 A 
ATOM     15  N   UNL     1       6.301   3.925  14.236  0.00  0.00    +0.000 N 
ATOM     16  C   UNL     1       5.822   3.300  13.087  0.00  0.00    +0.000 A 
ATOM     17  C   UNL     1       6.338   3.638  11.893  0.00  0.00    +0.000 A 
ATOM     18  C   UNL     1       7.380   4.654  11.842  0.00  0.00    +0.000 A 
ATOM     19  C   UNL     1       7.837   5.258  12.960  0.00  0.00    +0.000 A 
ATOM     20  C   UNL     1       7.299   4.894  14.229  0.00  0.00    +0.000 A 
ATOM     21  N   UNL     1       7.574   5.303  15.453  0.00  0.00    +0.000 NA
ENDBRANCH  12  13
ENDBRANCH   1  12
TORSDOF 5
ENDMDL
MODEL 8
REMARK VINA RESULT:      -6.9      2.687      3.885
REMARK  Name = 
REMARK  5 active torsions:
REMARK  status: ('A' for Active; 'I' for Inactive)
REMARK    1  A    between atoms: C_2  and  O_3
REMARK    2  A    between atoms: C_2  and  C_4
REMARK    3  A    between atoms: C_9  and  S_10
REMARK    4  A    between atoms: S_10  and  C_11
REMARK    5  A    between atoms: C_11  and  C_12
REMARK                            x       y       z     vdW  Elec       q    Type
REMARK                         _______ _______ _______ _____ _____    ______ ____
ROOT
ATOM      1  S   UNL     1       5.675   4.526  18.715  0.00  0.00    +0.000 S 
ENDROOT
BRANCH   1   7
ATOM      2  C   UNL     1       3.382   3.015  19.445  0.00  0.00    +0.000 A 
ATOM      3  C   UNL     1       2.004   2.743  19.348  0.00  0.00    +0.000 A 
ATOM      4  C   UNL     1       1.170   3.529  18.555  0.00  0.00    +0.000 A 
ATOM      5  C   UNL     1       1.703   4.602  17.852  0.00  0.00    +0.000 A 
ATOM      6  C   UNL     1       3.070   4.877  17.927  0.00  0.00    +0.000 A 
ATOM      7  C   UNL     1       3.935   4.077  18.696  0.00  0.00    +0.000 A 
BRANCH   2   9
ATOM      8  O   UNL     1       3.919   2.077  21.565  0.00  0.00    +0.000 OA
ATOM      9  C   UNL     1       4.136   2.114  20.365  0.00  0.00    +0.000 C 
BRANCH   9  10
ATOM     10  O   UNL     1       5.147   1.426  19.796  0.00  0.00    +0.000 OA
ATOM     11  H   UNL     1       5.541   1.869  19.016  0.00  0.00    +0.000 HD
ENDBRANCH   9  10
ENDBRANCH   2   9
ENDBRANCH   1   7
BRANCH   1  12
ATOM     12  C   UNL     1       5.703   5.876  17.464  0.00  0.00    +0.000 C 
BRANCH  12  13
ATOM     13  C   UNL     1       5.968   5.341  16.093  0.00  0.00    +0.000 A 
ATOM     14  C   UNL     1       5.232   4.433  15.357  0.00  0.00    +0.000 A 
ATOM     15  N   UNL     1       5.897   4.279  14.169  0.00  0.00    +0.000 N 
ATOM     16  C   UNL     1       5.597   3.454  13.087  0.00  0.00    +0.000 A 
ATOM     17  C   UNL     1       6.406   3.460  12.014  0.00  0.00    +0.000 A 
ATOM     18  C   UNL     1       7.570   4.336  12.017  0.00  0.00    +0.000 A 
ATOM     19  C   UNL     1       7.852   5.136  13.068  0.00  0.00    +0.000 A 
ATOM     20  C   UNL     1       7.001   5.124  14.212  0.00  0.00    +0.000 A 
ATOM     21  N   UNL     1       7.057   5.776  15.358  0.00  0.00    +0.000 NA
ENDBRANCH  12  13
ENDBRANCH   1  12
TORSDOF 5
ENDMDL
MODEL 9
REMARK VINA RESULT:      -6.8      2.679      3.908
REMARK  Name = 
REMARK  5 active torsions:
REMARK  status: ('A' for Active; 'I' for Inactive)
REMARK    1  A    between atoms: C_2  and  O_3
REMARK    2  A    between atoms: C_2  and  C_4
REMARK    3  A    between atoms: C_9  and  S_10
REMARK    4  A    between atoms: S_10  and  C_11
REMARK    5  A    between atoms: C_11  and  C_12
REMARK                            x       y       z     vdW  Elec       q    Type
REMARK                         _______ _______ _______ _____ _____    ______ ____
ROOT
ATOM      1  S   UNL     1       3.447   5.447  17.855  0.00  0.00    +0.000 S 
ENDROOT
BRANCH   1   7
ATOM      2  C   UNL     1       2.655   3.029  19.119  0.00  0.00    +0.000 A 
ATOM      3  C   UNL     1       2.156   2.328  20.234  0.00  0.00    +0.000 A 
ATOM      4  C   UNL     1       1.870   2.986  21.428  0.00  0.00    +0.000 A 
ATOM      5  C   UNL     1       2.086   4.355  21.526  0.00  0.00    +0.000 A 
ATOM      6  C   UNL     1       2.567   5.067  20.426  0.00  0.00    +0.000 A 
ATOM      7  C   UNL     1       2.832   4.427  19.201  0.00  0.00    +0.000 A 
BRANCH   2   9
ATOM      8  O   UNL     1       2.221   2.151  16.951  0.00  0.00    +0.000 OA
ATOM      9  C   UNL     1       2.953   2.183  17.927  0.00  0.00    +0.000 C 
BRANCH   9  10
ATOM     10  O   UNL     1       4.025   1.374  18.048  0.00  0.00    +0.000 OA
ATOM     11  H   UNL     1       3.864   0.580  18.598  0.00  0.00    +0.000 HD
ENDBRANCH   9  10
ENDBRANCH   2   9
ENDBRANCH   1   7
BRANCH   1  12
ATOM     12  C   UNL     1       5.226   4.972  17.840  0.00  0.00    +0.000 C 
BRANCH  12  13
ATOM     13  C   UNL     1       5.738   4.825  16.442  0.00  0.00    +0.000 A 
ATOM     14  C   UNL     1       6.834   5.421  15.851  0.00  0.00    +0.000 A 
ATOM     15  N   UNL     1       6.869   4.958  14.561  0.00  0.00    +0.000 N 
ATOM     16  C   UNL     1       7.753   5.271  13.532  0.00  0.00    +0.000 A 
ATOM     17  C   UNL     1       7.590   4.694  12.329  0.00  0.00    +0.000 A 
ATOM     18  C   UNL     1       6.493   3.755  12.144  0.00  0.00    +0.000 A 
ATOM     19  C   UNL     1       5.642   3.453  13.148  0.00  0.00    +0.000 A 
ATOM     20  C   UNL     1       5.806   4.071  14.423  0.00  0.00    +0.000 A 
ATOM     21  N   UNL     1       5.118   3.973  15.544  0.00  0.00    +0.000 NA
ENDBRANCH  12  13
ENDBRANCH   1  12
TORSDOF 5
ENDMDL
