MODEL 1
REMARK VINA RESULT:      -7.9      0.000      0.000
REMARK  Name = 
REMARK  8 active torsions:
REMARK  status: ('A' for Active; 'I' for Inactive)
REMARK    1  A    between atoms: C_1  and  C_2
REMARK    2  A    between atoms: C_2  and  C_3
REMARK    3  A    between atoms: C_9  and  N_10
REMARK    4  A    between atoms: N_10  and  C_11
REMARK    5  A    between atoms: C_11  and  C_12
REMARK    6  A    between atoms: C_15  and  C_16
REMARK    7  A    between atoms: C_16  and  C_17
REMARK    8  A    between atoms: C_16  and  C_18
REMARK                            x       y       z     vdW  Elec       q    Type
REMARK                         _______ _______ _______ _____ _____    ______ ____
ROOT
ATOM      1  C   UNL     1       5.979   4.623  14.839  0.00  0.00    +0.000 A 
ATOM      2  N   UNL     1       5.827   5.933  15.189  0.00  0.00    +0.000 NA
ATOM      3  C   UNL     1       6.515   6.029  16.296  0.00  0.00    +0.000 A 
ATOM      4  N   UNL     1       7.070   4.813  16.587  0.00  0.00    +0.000 N 
ATOM      5  N   UNL     1       6.733   3.888  15.672  0.00  0.00    +0.000 NA
ATOM      6  C   UNL     1       7.928   4.527  17.720  0.00  0.00    +0.000 C 
ATOM      7  C   UNL     1       7.766   5.587  18.837  0.00  0.00    +0.000 C 
ATOM      8  C   UNL     1       7.818   6.993  18.173  0.00  0.00    +0.000 C 
ATOM      9  C   UNL     1       6.661   7.201  17.193  0.00  0.00    +0.000 C 
ENDROOT
BRANCH   1  11
ATOM     10  C   UNL     1       6.271   3.553  12.609  0.00  0.00    +0.000 C 
ATOM     11  C   UNL     1       5.286   4.087  13.636  0.00  0.00    +0.000 C 
ENDBRANCH   1  11
BRANCH   7  12
ATOM     12  N   UNL     1       6.532   5.442  19.638  0.00  0.00    +0.000 NA
ATOM     13  H   UNL     1       5.920   6.252  19.512  0.00  0.00    +0.000 HD
BRANCH  12  14
ATOM     14  C   UNL     1       5.730   4.244  19.301  0.00  0.00    +0.000 C 
BRANCH  14  15
ATOM     15  C   UNL     1       4.271   4.540  19.244  0.00  0.00    +0.000 A 
ATOM     16  N   UNL     1       3.644   5.617  18.809  0.00  0.00    +0.000 NA
ATOM     17  N   UNL     1       2.301   5.391  18.993  0.00  0.00    +0.000 NA
ATOM     18  C   UNL     1       2.188   4.199  19.540  0.00  0.00    +0.000 A 
ATOM     19  O   UNL     1       3.406   3.598  19.745  0.00  0.00    +0.000 OA
BRANCH  18  20
ATOM     20  C   UNL     1       0.973   3.459  19.981  0.00  0.00    +0.000 C 
ATOM     21  C   UNL     1       0.570   2.411  18.941  0.00  0.00    +0.000 C 
ATOM     22  C   UNL     1       1.185   2.790  21.339  0.00  0.00    +0.000 C 
ENDBRANCH  18  20
ENDBRANCH  14  15
ENDBRANCH  12  14
ENDBRANCH   7  12
TORSDOF 5
ENDMDL
MODEL 2
REMARK VINA RESULT:      -7.7      1.544      1.929
REMARK  Name = 
REMARK  8 active torsions:
REMARK  status: ('A' for Active; 'I' for Inactive)
REMARK    1  A    between atoms: C_1  and  C_2
REMARK    2  A    between atoms: C_2  and  C_3
REMARK    3  A    between atoms: C_9  and  N_10
REMARK    4  A    between atoms: N_10  and  C_11
REMARK    5  A    between atoms: C_11  and  C_12
REMARK    6  A    between atoms: C_15  and  C_16
REMARK    7  A    between atoms: C_16  and  C_17
REMARK    8  A    between atoms: C_16  and  C_18
REMARK                            x       y       z     vdW  Elec       q    Type
REMARK                         _______ _______ _______ _____ _____    ______ ____
ROOT
ATOM      1  C   UNL     1       6.582   4.344  14.124  0.00  0.00    +0.000 A 
ATOM      2  N   UNL     1       7.450   5.212  14.719  0.00  0.00    +0.000 NA
ATOM      3  C   UNL     1       6.967   5.336  15.928  0.00  0.00    +0.000 A 
ATOM      4  N   UNL     1       5.853   4.551  16.049  0.00  0.00    +0.000 N 
ATOM      5  N   UNL     1       5.576   3.911  14.901  0.00  0.00    +0.000 NA
ATOM      6  C   UNL     1       5.057   4.398  17.251  0.00  0.00    +0.000 C 
ATOM      7  C   UNL     1       5.287   5.568  18.238  0.00  0.00    +0.000 C 
ATOM      8  C   UNL     1       6.822   5.796  18.360  0.00  0.00    +0.000 C 
ATOM      9  C   UNL     1       7.441   6.215  17.024  0.00  0.00    +0.000 C 
ENDROOT
BRANCH   1  11
ATOM     10  C   UNL     1       5.546   3.238  12.147  0.00  0.00    +0.000 C 
ATOM     11  C   UNL     1       6.756   3.981  12.692  0.00  0.00    +0.000 C 
ENDBRANCH   1  11
BRANCH   7  12
ATOM     12  N   UNL     1       4.609   6.825  17.859  0.00  0.00    +0.000 NA
ATOM     13  H   UNL     1       4.978   7.185  16.975  0.00  0.00    +0.000 HD
BRANCH  12  14
ATOM     14  C   UNL     1       3.144   6.695  17.690  0.00  0.00    +0.000 C 
BRANCH  14  15
ATOM     15  C   UNL     1       2.475   6.200  18.926  0.00  0.00    +0.000 A 
ATOM     16  N   UNL     1       2.193   6.838  20.047  0.00  0.00    +0.000 NA
ATOM     17  N   UNL     1       1.592   5.925  20.879  0.00  0.00    +0.000 NA
ATOM     18  C   UNL     1       1.555   4.783  20.224  0.00  0.00    +0.000 A 
ATOM     19  O   UNL     1       2.114   4.876  18.973  0.00  0.00    +0.000 OA
BRANCH  18  20
ATOM     20  C   UNL     1       1.041   3.452  20.651  0.00  0.00    +0.000 C 
ATOM     21  C   UNL     1       0.766   2.562  19.437  0.00  0.00    +0.000 C 
ATOM     22  C   UNL     1       2.018   2.751  21.598  0.00  0.00    +0.000 C 
ENDBRANCH  18  20
ENDBRANCH  14  15
ENDBRANCH  12  14
ENDBRANCH   7  12
TORSDOF 5
ENDMDL
MODEL 3
REMARK VINA RESULT:      -7.3      2.141      6.502
REMARK  Name = 
REMARK  8 active torsions:
REMARK  status: ('A' for Active; 'I' for Inactive)
REMARK    1  A    between atoms: C_1  and  C_2
REMARK    2  A    between atoms: C_2  and  C_3
REMARK    3  A    between atoms: C_9  and  N_10
REMARK    4  A    between atoms: N_10  and  C_11
REMARK    5  A    between atoms: C_11  and  C_12
REMARK    6  A    between atoms: C_15  and  C_16
REMARK    7  A    between atoms: C_16  and  C_17
REMARK    8  A    between atoms: C_16  and  C_18
REMARK                            x       y       z     vdW  Elec       q    Type
REMARK                         _______ _______ _______ _____ _____    ______ ____
ROOT
ATOM      1  C   UNL     1       2.198   3.937  19.442  0.00  0.00    +0.000 A 
ATOM      2  N   UNL     1       3.458   3.476  19.691  0.00  0.00    +0.000 NA
ATOM      3  C   UNL     1       4.222   4.367  19.115  0.00  0.00    +0.000 A 
ATOM      4  N   UNL     1       3.437   5.336  18.553  0.00  0.00    +0.000 N 
ATOM      5  N   UNL     1       2.131   5.079  18.738  0.00  0.00    +0.000 NA
ATOM      6  C   UNL     1       3.920   6.509  17.851  0.00  0.00    +0.000 C 
ATOM      7  C   UNL     1       5.379   6.322  17.368  0.00  0.00    +0.000 C 
ATOM      8  C   UNL     1       6.205   5.746  18.554  0.00  0.00    +0.000 C 
ATOM      9  C   UNL     1       5.699   4.366  18.980  0.00  0.00    +0.000 C 
ENDROOT
BRANCH   1  11
ATOM     10  C   UNL     1       0.645   2.067  18.902  0.00  0.00    +0.000 C 
ATOM     11  C   UNL     1       1.015   3.157  19.894  0.00  0.00    +0.000 C 
ENDBRANCH   1  11
BRANCH   7  12
ATOM     12  N   UNL     1       5.519   5.459  16.177  0.00  0.00    +0.000 NA
ATOM     13  H   UNL     1       4.845   5.725  15.454  0.00  0.00    +0.000 HD
BRANCH  12  14
ATOM     14  C   UNL     1       6.859   5.507  15.550  0.00  0.00    +0.000 C 
BRANCH  14  15
ATOM     15  C   UNL     1       6.875   4.868  14.204  0.00  0.00    +0.000 A 
ATOM     16  N   UNL     1       7.665   5.093  13.170  0.00  0.00    +0.000 NA
ATOM     17  N   UNL     1       7.251   4.252  12.167  0.00  0.00    +0.000 NA
ATOM     18  C   UNL     1       6.226   3.573  12.641  0.00  0.00    +0.000 A 
ATOM     19  O   UNL     1       5.917   3.921  13.932  0.00  0.00    +0.000 OA
BRANCH  18  20
ATOM     20  C   UNL     1       5.372   2.547  11.981  0.00  0.00    +0.000 C 
ATOM     21  C   UNL     1       4.264   3.210  11.160  0.00  0.00    +0.000 C 
ATOM     22  C   UNL     1       6.197   1.619  11.088  0.00  0.00    +0.000 C 
ENDBRANCH  18  20
ENDBRANCH  14  15
ENDBRANCH  12  14
ENDBRANCH   7  12
TORSDOF 5
ENDMDL
MODEL 4
REMARK VINA RESULT:      -7.3      2.229      6.507
REMARK  Name = 
REMARK  8 active torsions:
REMARK  status: ('A' for Active; 'I' for Inactive)
REMARK    1  A    between atoms: C_1  and  C_2
REMARK    2  A    between atoms: C_2  and  C_3
REMARK    3  A    between atoms: C_9  and  N_10
REMARK    4  A    between atoms: N_10  and  C_11
REMARK    5  A    between atoms: C_11  and  C_12
REMARK    6  A    between atoms: C_15  and  C_16
REMARK    7  A    between atoms: C_16  and  C_17
REMARK    8  A    between atoms: C_16  and  C_18
REMARK                            x       y       z     vdW  Elec       q    Type
REMARK                         _______ _______ _______ _____ _____    ______ ____
ROOT
ATOM      1  C   UNL     1       1.866   3.707  19.704  0.00  0.00    +0.000 A 
ATOM      2  N   UNL     1       2.191   4.993  20.025  0.00  0.00    +0.000 NA
ATOM      3  C   UNL     1       2.886   5.392  18.992  0.00  0.00    +0.000 A 
ATOM      4  N   UNL     1       2.957   4.376  18.078  0.00  0.00    +0.000 N 
ATOM      5  N   UNL     1       2.320   3.277  18.515  0.00  0.00    +0.000 NA
ATOM      6  C   UNL     1       3.618   4.448  16.790  0.00  0.00    +0.000 C 
ATOM      7  C   UNL     1       4.648   5.602  16.741  0.00  0.00    +0.000 C 
ATOM      8  C   UNL     1       3.968   6.875  17.324  0.00  0.00    +0.000 C 
ATOM      9  C   UNL     1       3.579   6.688  18.793  0.00  0.00    +0.000 C 
ENDROOT
BRANCH   1  11
ATOM     10  C   UNL     1       1.864   2.682  21.974  0.00  0.00    +0.000 C 
ATOM     11  C   UNL     1       1.107   2.866  20.668  0.00  0.00    +0.000 C 
ENDBRANCH   1  11
BRANCH   7  12
ATOM     12  N   UNL     1       5.910   5.320  17.456  0.00  0.00    +0.000 NA
ATOM     13  H   UNL     1       5.724   5.008  18.413  0.00  0.00    +0.000 HD
BRANCH  12  14
ATOM     14  C   UNL     1       6.745   4.276  16.821  0.00  0.00    +0.000 C 
BRANCH  14  15
ATOM     15  C   UNL     1       6.975   4.542  15.373  0.00  0.00    +0.000 A 
ATOM     16  N   UNL     1       7.712   5.471  14.791  0.00  0.00    +0.000 NA
ATOM     17  N   UNL     1       7.569   5.294  13.437  0.00  0.00    +0.000 NA
ATOM     18  C   UNL     1       6.746   4.279  13.271  0.00  0.00    +0.000 A 
ATOM     19  O   UNL     1       6.312   3.755  14.463  0.00  0.00    +0.000 OA
BRANCH  18  20
ATOM     20  C   UNL     1       6.217   3.671  12.018  0.00  0.00    +0.000 C 
ATOM     21  C   UNL     1       6.948   2.366  11.699  0.00  0.00    +0.000 C 
ATOM     22  C   UNL     1       4.712   3.415  12.112  0.00  0.00    +0.000 C 
ENDBRANCH  18  20
ENDBRANCH  14  15
ENDBRANCH  12  14
ENDBRANCH   7  12
TORSDOF 5
ENDMDL
MODEL 5
REMARK VINA RESULT:      -7.1      2.319      6.628
REMARK  Name = 
REMARK  8 active torsions:
REMARK  status: ('A' for Active; 'I' for Inactive)
REMARK    1  A    between atoms: C_1  and  C_2
REMARK    2  A    between atoms: C_2  and  C_3
REMARK    3  A    between atoms: C_9  and  N_10
REMARK    4  A    between atoms: N_10  and  C_11
REMARK    5  A    between atoms: C_11  and  C_12
REMARK    6  A    between atoms: C_15  and  C_16
REMARK    7  A    between atoms: C_16  and  C_17
REMARK    8  A    between atoms: C_16  and  C_18
REMARK                            x       y       z     vdW  Elec       q    Type
REMARK                         _______ _______ _______ _____ _____    ______ ____
ROOT
ATOM      1  C   UNL     1       2.798   4.219  20.202  0.00  0.00    +0.000 A 
ATOM      2  N   UNL     1       3.369   5.446  20.028  0.00  0.00    +0.000 NA
ATOM      3  C   UNL     1       3.803   5.402  18.795  0.00  0.00    +0.000 A 
ATOM      4  N   UNL     1       3.484   4.188  18.250  0.00  0.00    +0.000 N 
ATOM      5  N   UNL     1       2.848   3.403  19.136  0.00  0.00    +0.000 NA
ATOM      6  C   UNL     1       3.771   3.774  16.891  0.00  0.00    +0.000 C 
ATOM      7  C   UNL     1       4.896   4.631  16.260  0.00  0.00    +0.000 C 
ATOM      8  C   UNL     1       4.579   6.126  16.554  0.00  0.00    +0.000 C 
ATOM      9  C   UNL     1       4.584   6.422  18.056  0.00  0.00    +0.000 C 
ENDROOT
BRANCH   1  11
ATOM     10  C   UNL     1       1.163   2.765  21.391  0.00  0.00    +0.000 C 
ATOM     11  C   UNL     1       2.225   3.844  21.523  0.00  0.00    +0.000 C 
ENDBRANCH   1  11
BRANCH   7  12
ATOM     12  N   UNL     1       6.255   4.291  16.731  0.00  0.00    +0.000 NA
ATOM     13  H   UNL     1       6.384   3.276  16.766  0.00  0.00    +0.000 HD
BRANCH  12  14
ATOM     14  C   UNL     1       7.341   4.831  15.882  0.00  0.00    +0.000 C 
BRANCH  14  15
ATOM     15  C   UNL     1       7.118   4.551  14.435  0.00  0.00    +0.000 A 
ATOM     16  N   UNL     1       7.567   5.192  13.372  0.00  0.00    +0.000 NA
ATOM     17  N   UNL     1       7.057   4.541  12.276  0.00  0.00    +0.000 NA
ATOM     18  C   UNL     1       6.317   3.552  12.732  0.00  0.00    +0.000 A 
ATOM     19  O   UNL     1       6.295   3.502  14.104  0.00  0.00    +0.000 OA
BRANCH  18  20
ATOM     20  C   UNL     1       5.507   2.543  11.994  0.00  0.00    +0.000 C 
ATOM     21  C   UNL     1       4.353   3.217  11.248  0.00  0.00    +0.000 C 
ATOM     22  C   UNL     1       6.365   1.744  11.013  0.00  0.00    +0.000 C 
ENDBRANCH  18  20
ENDBRANCH  14  15
ENDBRANCH  12  14
ENDBRANCH   7  12
TORSDOF 5
ENDMDL
MODEL 6
REMARK VINA RESULT:      -7.1      2.489      6.491
REMARK  Name = 
REMARK  8 active torsions:
REMARK  status: ('A' for Active; 'I' for Inactive)
REMARK    1  A    between atoms: C_1  and  C_2
REMARK    2  A    between atoms: C_2  and  C_3
REMARK    3  A    between atoms: C_9  and  N_10
REMARK    4  A    between atoms: N_10  and  C_11
REMARK    5  A    between atoms: C_11  and  C_12
REMARK    6  A    between atoms: C_15  and  C_16
REMARK    7  A    between atoms: C_16  and  C_17
REMARK    8  A    between atoms: C_16  and  C_18
REMARK                            x       y       z     vdW  Elec       q    Type
REMARK                         _______ _______ _______ _____ _____    ______ ____
ROOT
ATOM      1  C   UNL     1       2.511   6.677  18.933  0.00  0.00    +0.000 A 
ATOM      2  N   UNL     1       1.725   5.800  18.244  0.00  0.00    +0.000 NA
ATOM      3  C   UNL     1       2.438   4.705  18.232  0.00  0.00    +0.000 A 
ATOM      4  N   UNL     1       3.608   4.923  18.906  0.00  0.00    +0.000 N 
ATOM      5  N   UNL     1       3.687   6.186  19.358  0.00  0.00    +0.000 NA
ATOM      6  C   UNL     1       4.646   3.937  19.134  0.00  0.00    +0.000 C 
ATOM      7  C   UNL     1       4.541   2.760  18.134  0.00  0.00    +0.000 C 
ATOM      8  C   UNL     1       3.053   2.307  18.084  0.00  0.00    +0.000 C 
ATOM      9  C   UNL     1       2.140   3.417  17.559  0.00  0.00    +0.000 C 
ENDROOT
BRANCH   1  11
ATOM     10  C   UNL     1       2.303   8.921  17.871  0.00  0.00    +0.000 C 
ATOM     11  C   UNL     1       2.070   8.086  19.120  0.00  0.00    +0.000 C 
ENDBRANCH   1  11
BRANCH   7  12
ATOM     12  N   UNL     1       5.030   3.071  16.775  0.00  0.00    +0.000 NA
ATOM     13  H   UNL     1       4.267   3.410  16.183  0.00  0.00    +0.000 HD
BRANCH  12  14
ATOM     14  C   UNL     1       6.092   4.102  16.736  0.00  0.00    +0.000 C 
BRANCH  14  15
ATOM     15  C   UNL     1       6.552   4.386  15.347  0.00  0.00    +0.000 A 
ATOM     16  N   UNL     1       7.409   5.290  14.909  0.00  0.00    +0.000 NA
ATOM     17  N   UNL     1       7.466   5.148  13.544  0.00  0.00    +0.000 NA
ATOM     18  C   UNL     1       6.633   4.178  13.228  0.00  0.00    +0.000 A 
ATOM     19  O   UNL     1       6.000   3.651  14.326  0.00  0.00    +0.000 OA
BRANCH  18  20
ATOM     20  C   UNL     1       6.274   3.622  11.894  0.00  0.00    +0.000 C 
ATOM     21  C   UNL     1       6.983   2.288  11.653  0.00  0.00    +0.000 C 
ATOM     22  C   UNL     1       4.762   3.441  11.750  0.00  0.00    +0.000 C 
ENDBRANCH  18  20
ENDBRANCH  14  15
ENDBRANCH  12  14
ENDBRANCH   7  12
TORSDOF 5
ENDMDL
MODEL 7
REMARK VINA RESULT:      -7.1      2.254      6.736
REMARK  Name = 
REMARK  8 active torsions:
REMARK  status: ('A' for Active; 'I' for Inactive)
REMARK    1  A    between atoms: C_1  and  C_2
REMARK    2  A    between atoms: C_2  and  C_3
REMARK    3  A    between atoms: C_9  and  N_10
REMARK    4  A    between atoms: N_10  and  C_11
REMARK    5  A    between atoms: C_11  and  C_12
REMARK    6  A    between atoms: C_15  and  C_16
REMARK    7  A    between atoms: C_16  and  C_17
REMARK    8  A    between atoms: C_16  and  C_18
REMARK                            x       y       z     vdW  Elec       q    Type
REMARK                         _______ _______ _______ _____ _____    ______ ____
ROOT
ATOM      1  C   UNL     1       2.284   3.460  19.685  0.00  0.00    +0.000 A 
ATOM      2  N   UNL     1       3.559   3.467  20.172  0.00  0.00    +0.000 NA
ATOM      3  C   UNL     1       4.195   4.243  19.334  0.00  0.00    +0.000 A 
ATOM      4  N   UNL     1       3.319   4.694  18.386  0.00  0.00    +0.000 N 
ATOM      5  N   UNL     1       2.086   4.198  18.580  0.00  0.00    +0.000 NA
ATOM      6  C   UNL     1       3.644   5.602  17.303  0.00  0.00    +0.000 C 
ATOM      7  C   UNL     1       5.166   5.632  17.023  0.00  0.00    +0.000 C 
ATOM      8  C   UNL     1       5.901   5.775  18.388  0.00  0.00    +0.000 C 
ATOM      9  C   UNL     1       5.641   4.573  19.300  0.00  0.00    +0.000 C 
ENDROOT
BRANCH   1  11
ATOM     10  C   UNL     1       1.485   2.487  21.833  0.00  0.00    +0.000 C 
ATOM     11  C   UNL     1       1.240   2.628  20.340  0.00  0.00    +0.000 C 
ENDBRANCH   1  11
BRANCH   7  12
ATOM     12  N   UNL     1       5.672   4.455  16.288  0.00  0.00    +0.000 NA
ATOM     13  H   UNL     1       5.073   4.242  15.485  0.00  0.00    +0.000 HD
BRANCH  12  14
ATOM     14  C   UNL     1       7.048   4.614  15.764  0.00  0.00    +0.000 C 
BRANCH  14  15
ATOM     15  C   UNL     1       7.098   4.539  14.277  0.00  0.00    +0.000 A 
ATOM     16  N   UNL     1       7.803   5.253  13.419  0.00  0.00    +0.000 NA
ATOM     17  N   UNL     1       7.470   4.801  12.165  0.00  0.00    +0.000 NA
ATOM     18  C   UNL     1       6.575   3.849  12.330  0.00  0.00    +0.000 A 
ATOM     19  O   UNL     1       6.274   3.634  13.652  0.00  0.00    +0.000 OA
BRANCH  18  20
ATOM     20  C   UNL     1       5.848   3.033  11.318  0.00  0.00    +0.000 C 
ATOM     21  C   UNL     1       6.300   1.572  11.374  0.00  0.00    +0.000 C 
ATOM     22  C   UNL     1       4.334   3.116  11.512  0.00  0.00    +0.000 C 
ENDBRANCH  18  20
ENDBRANCH  14  15
ENDBRANCH  12  14
ENDBRANCH   7  12
TORSDOF 5
ENDMDL
MODEL 8
REMARK VINA RESULT:      -7.1      3.489      4.003
REMARK  Name = 
REMARK  8 active torsions:
REMARK  status: ('A' for Active; 'I' for Inactive)
REMARK    1  A    between atoms: C_1  and  C_2
REMARK    2  A    between atoms: C_2  and  C_3
REMARK    3  A    between atoms: C_9  and  N_10
REMARK    4  A    between atoms: N_10  and  C_11
REMARK    5  A    between atoms: C_11  and  C_12
REMARK    6  A    between atoms: C_15  and  C_16
REMARK    7  A    between atoms: C_16  and  C_17
REMARK    8  A    between atoms: C_16  and  C_18
REMARK                            x       y       z     vdW  Elec       q    Type
REMARK                         _______ _______ _______ _____ _____    ______ ____
ROOT
ATOM      1  C   UNL     1       6.665   4.395  14.268  0.00  0.00    +0.000 A 
ATOM      2  N   UNL     1       7.458   5.239  14.989  0.00  0.00    +0.000 NA
ATOM      3  C   UNL     1       6.893   5.247  16.168  0.00  0.00    +0.000 A 
ATOM      4  N   UNL     1       5.803   4.420  16.149  0.00  0.00    +0.000 N 
ATOM      5  N   UNL     1       5.627   3.868  14.936  0.00  0.00    +0.000 NA
ATOM      6  C   UNL     1       4.937   4.142  17.277  0.00  0.00    +0.000 C 
ATOM      7  C   UNL     1       5.057   5.233  18.369  0.00  0.00    +0.000 C 
ATOM      8  C   UNL     1       6.570   5.499  18.614  0.00  0.00    +0.000 C 
ATOM      9  C   UNL     1       7.260   6.047  17.362  0.00  0.00    +0.000 C 
ENDROOT
BRANCH   1  11
ATOM     10  C   UNL     1       5.936   3.208  12.204  0.00  0.00    +0.000 C 
ATOM     11  C   UNL     1       6.946   4.158  12.826  0.00  0.00    +0.000 C 
ENDBRANCH   1  11
BRANCH   7  12
ATOM     12  N   UNL     1       4.358   6.495  18.046  0.00  0.00    +0.000 NA
ATOM     13  H   UNL     1       4.525   6.764  17.073  0.00  0.00    +0.000 HD
BRANCH  12  14
ATOM     14  C   UNL     1       2.890   6.437  18.228  0.00  0.00    +0.000 C 
BRANCH  14  15
ATOM     15  C   UNL     1       2.281   7.792  18.335  0.00  0.00    +0.000 A 
ATOM     16  N   UNL     1       2.258   8.780  17.459  0.00  0.00    +0.000 NA
ATOM     17  N   UNL     1       1.587   9.819  18.056  0.00  0.00    +0.000 NA
ATOM     18  C   UNL     1       1.252   9.412  19.263  0.00  0.00    +0.000 A 
ATOM     19  O   UNL     1       1.674   8.131  19.520  0.00  0.00    +0.000 OA
BRANCH  18  20
ATOM     20  C   UNL     1       0.539  10.133  20.353  0.00  0.00    +0.000 C 
ATOM     21  C   UNL     1       0.600   9.339  21.659  0.00  0.00    +0.000 C 
ATOM     22  C   UNL     1       1.115  11.534  20.569  0.00  0.00    +0.000 C 
ENDBRANCH  18  20
ENDBRANCH  14  15
ENDBRANCH  12  14
ENDBRANCH   7  12
TORSDOF 5
ENDMDL
MODEL 9
REMARK VINA RESULT:      -7.0      0.931      1.200
REMARK  Name = 
REMARK  8 active torsions:
REMARK  status: ('A' for Active; 'I' for Inactive)
REMARK    1  A    between atoms: C_1  and  C_2
REMARK    2  A    between atoms: C_2  and  C_3
REMARK    3  A    between atoms: C_9  and  N_10
REMARK    4  A    between atoms: N_10  and  C_11
REMARK    5  A    between atoms: C_11  and  C_12
REMARK    6  A    between atoms: C_15  and  C_16
REMARK    7  A    between atoms: C_16  and  C_17
REMARK    8  A    between atoms: C_16  and  C_18
REMARK                            x       y       z     vdW  Elec       q    Type
REMARK                         _______ _______ _______ _____ _____    ______ ____
ROOT
ATOM      1  C   UNL     1       5.969   4.609  14.683  0.00  0.00    +0.000 A 
ATOM      2  N   UNL     1       5.731   5.900  15.056  0.00  0.00    +0.000 NA
ATOM      3  C   UNL     1       6.388   6.012  16.181  0.00  0.00    +0.000 A 
ATOM      4  N   UNL     1       7.009   4.825  16.459  0.00  0.00    +0.000 N 
ATOM      5  N   UNL     1       6.747   3.902  15.519  0.00  0.00    +0.000 NA
ATOM      6  C   UNL     1       7.857   4.567  17.606  0.00  0.00    +0.000 C 
ATOM      7  C   UNL     1       7.607   5.591  18.740  0.00  0.00    +0.000 C 
ATOM      8  C   UNL     1       7.590   7.012  18.106  0.00  0.00    +0.000 C 
ATOM      9  C   UNL     1       6.444   7.172  17.104  0.00  0.00    +0.000 C 
ENDROOT
BRANCH   1  11
ATOM     10  C   UNL     1       6.371   3.543  12.469  0.00  0.00    +0.000 C 
ATOM     11  C   UNL     1       5.336   4.059  13.455  0.00  0.00    +0.000 C 
ENDBRANCH   1  11
BRANCH   7  12
ATOM     12  N   UNL     1       6.368   5.356  19.509  0.00  0.00    +0.000 NA
ATOM     13  H   UNL     1       5.560   5.762  19.030  0.00  0.00    +0.000 HD
BRANCH  12  14
ATOM     14  C   UNL     1       6.057   3.926  19.733  0.00  0.00    +0.000 C 
BRANCH  14  15
ATOM     15  C   UNL     1       4.726   3.545  19.183  0.00  0.00    +0.000 A 
ATOM     16  N   UNL     1       4.276   3.604  17.944  0.00  0.00    +0.000 NA
ATOM     17  N   UNL     1       2.979   3.153  17.975  0.00  0.00    +0.000 NA
ATOM     18  C   UNL     1       2.709   2.858  19.230  0.00  0.00    +0.000 A 
ATOM     19  O   UNL     1       3.773   3.096  20.065  0.00  0.00    +0.000 OA
BRANCH  18  20
ATOM     20  C   UNL     1       1.450   2.356  19.846  0.00  0.00    +0.000 C 
ATOM     21  C   UNL     1       1.353   2.788  21.310  0.00  0.00    +0.000 C 
ATOM     22  C   UNL     1       0.218   2.840  19.078  0.00  0.00    +0.000 C 
ENDBRANCH  18  20
ENDBRANCH  14  15
ENDBRANCH  12  14
ENDBRANCH   7  12
TORSDOF 5
ENDMDL
