MODEL 1
REMARK VINA RESULT:      -6.2      0.000      0.000
REMARK  Name = 
REMARK  3 active torsions:
REMARK  status: ('A' for Active; 'I' for Inactive)
REMARK    1  A    between atoms: O_1  and  N_2
REMARK    2  A    between atoms: C_3  and  C_4
REMARK    3  A    between atoms: N_11  and  C_12
REMARK                            x       y       z     vdW  Elec       q    Type
REMARK                         _______ _______ _______ _____ _____    ______ ____
ROOT
ATOM      1  C   UNL     1       2.422   3.542  19.224  0.00  0.00    +0.000 A 
ATOM      2  C   UNL     1       1.583   3.960  20.232  0.00  0.00    +0.000 A 
ATOM      3  N   UNL     1       1.498   5.330  20.415  0.00  0.00    +0.000 NA
ATOM      4  C   UNL     1       2.236   5.968  19.531  0.00  0.00    +0.000 A 
ATOM      5  N   UNL     1       2.360   7.322  19.476  0.00  0.00    +0.000 N 
ATOM      6  C   UNL     1       2.586   8.045  18.215  0.00  0.00    +0.000 C 
ATOM      7  C   UNL     1       1.357   8.897  17.838  0.00  0.00    +0.000 C 
ATOM      8  N   UNL     1       0.974   9.782  18.949  0.00  0.00    +0.000 N 
ATOM      9  C   UNL     1       0.703   9.070  20.213  0.00  0.00    +0.000 C 
ATOM     10  C   UNL     1       1.892   8.154  20.599  0.00  0.00    +0.000 C 
ATOM     11  S   UNL     1       3.130   4.909  18.486  0.00  0.00    +0.000 S 
ENDROOT
BRANCH   8  12
ATOM     12  C   UNL     1       1.026  11.158  18.859  0.00  0.00    +0.000 A 
ATOM     13  C   UNL     1      -0.070  11.959  19.222  0.00  0.00    +0.000 A 
ATOM     14  C   UNL     1      -0.047  13.353  19.096  0.00  0.00    +0.000 A 
ATOM     15  C   UNL     1       1.087  13.991  18.610  0.00  0.00    +0.000 A 
ATOM     16  C   UNL     1       2.191  13.231  18.250  0.00  0.00    +0.000 A 
ATOM     17  C   UNL     1       2.156  11.837  18.378  0.00  0.00    +0.000 A 
ENDBRANCH   8  12
BRANCH   1  19
ATOM     18  N   UNL     1       3.905   1.591  18.925  0.00  0.00    +0.000 NA
ATOM     19  C   UNL     1       2.784   2.232  18.754  0.00  0.00    +0.000 C 
BRANCH  18  20
ATOM     20  O   UNL     1       4.814   2.289  19.724  0.00  0.00    +0.000 OA
ATOM     21  H   UNL     1       4.294   2.463  20.531  0.00  0.00    +0.000 HD
ENDBRANCH  18  20
ENDBRANCH   1  19
TORSDOF 3
ENDMDL
MODEL 2
REMARK VINA RESULT:      -6.1      4.062      8.288
REMARK  Name = 
REMARK  3 active torsions:
REMARK  status: ('A' for Active; 'I' for Inactive)
REMARK    1  A    between atoms: O_1  and  N_2
REMARK    2  A    between atoms: C_3  and  C_4
REMARK    3  A    between atoms: N_11  and  C_12
REMARK                            x       y       z     vdW  Elec       q    Type
REMARK                         _______ _______ _______ _____ _____    ______ ____
ROOT
ATOM      1  C   UNL     1       1.091  13.713  19.661  0.00  0.00    +0.000 A 
ATOM      2  C   UNL     1       1.285  13.189  20.918  0.00  0.00    +0.000 A 
ATOM      3  N   UNL     1       1.170  11.813  21.022  0.00  0.00    +0.000 NA
ATOM      4  C   UNL     1       0.925  11.273  19.847  0.00  0.00    +0.000 A 
ATOM      5  N   UNL     1       0.750   9.939  19.642  0.00  0.00    +0.000 N 
ATOM      6  C   UNL     1       1.129   9.275  18.386  0.00  0.00    +0.000 C 
ATOM      7  C   UNL     1       2.319   8.317  18.605  0.00  0.00    +0.000 C 
ATOM      8  N   UNL     1       2.035   7.371  19.694  0.00  0.00    +0.000 N 
ATOM      9  C   UNL     1       1.691   8.021  20.975  0.00  0.00    +0.000 C 
ATOM     10  C   UNL     1       0.536   9.037  20.788  0.00  0.00    +0.000 C 
ATOM     11  S   UNL     1       0.748  12.440  18.575  0.00  0.00    +0.000 S 
ENDROOT
BRANCH   8  12
ATOM     12  C   UNL     1       1.936   6.009  19.494  0.00  0.00    +0.000 A 
ATOM     13  C   UNL     1       2.209   5.430  18.244  0.00  0.00    +0.000 A 
ATOM     14  C   UNL     1       2.072   4.055  18.015  0.00  0.00    +0.000 A 
ATOM     15  C   UNL     1       1.665   3.213  19.042  0.00  0.00    +0.000 A 
ATOM     16  C   UNL     1       1.395   3.752  20.294  0.00  0.00    +0.000 A 
ATOM     17  C   UNL     1       1.533   5.129  20.510  0.00  0.00    +0.000 A 
ENDBRANCH   8  12
BRANCH   1  19
ATOM     18  N   UNL     1       0.096  15.857  18.949  0.00  0.00    +0.000 NA
ATOM     19  C   UNL     1       1.105  15.064  19.167  0.00  0.00    +0.000 C 
BRANCH  18  20
ATOM     20  O   UNL     1      -1.129  15.292  19.314  0.00  0.00    +0.000 OA
ATOM     21  H   UNL     1      -0.924  14.338  19.327  0.00  0.00    +0.000 HD
ENDBRANCH  18  20
ENDBRANCH   1  19
TORSDOF 3
ENDMDL
MODEL 3
REMARK VINA RESULT:      -6.1      0.184      1.077
REMARK  Name = 
REMARK  3 active torsions:
REMARK  status: ('A' for Active; 'I' for Inactive)
REMARK    1  A    between atoms: O_1  and  N_2
REMARK    2  A    between atoms: C_3  and  C_4
REMARK    3  A    between atoms: N_11  and  C_12
REMARK                            x       y       z     vdW  Elec       q    Type
REMARK                         _______ _______ _______ _____ _____    ______ ____
ROOT
ATOM      1  C   UNL     1       2.437   3.480  19.091  0.00  0.00    +0.000 A 
ATOM      2  C   UNL     1       1.568   3.886  20.078  0.00  0.00    +0.000 A 
ATOM      3  N   UNL     1       1.491   5.253  20.288  0.00  0.00    +0.000 NA
ATOM      4  C   UNL     1       2.267   5.902  19.444  0.00  0.00    +0.000 A 
ATOM      5  N   UNL     1       2.406   7.255  19.423  0.00  0.00    +0.000 N 
ATOM      6  C   UNL     1       2.684   8.002  18.187  0.00  0.00    +0.000 C 
ATOM      7  C   UNL     1       1.478   8.876  17.786  0.00  0.00    +0.000 C 
ATOM      8  N   UNL     1       1.066   9.741  18.901  0.00  0.00    +0.000 N 
ATOM      9  C   UNL     1       0.743   9.005  20.140  0.00  0.00    +0.000 C 
ATOM     10  C   UNL     1       1.908   8.068  20.547  0.00  0.00    +0.000 C 
ATOM     11  S   UNL     1       3.185   4.855  18.409  0.00  0.00    +0.000 S 
ENDROOT
BRANCH   8  12
ATOM     12  C   UNL     1       1.135  11.118  18.844  0.00  0.00    +0.000 A 
ATOM     13  C   UNL     1       2.206  11.773  18.213  0.00  0.00    +0.000 A 
ATOM     14  C   UNL     1       2.311  13.169  18.185  0.00  0.00    +0.000 A 
ATOM     15  C   UNL     1       1.334  13.955  18.782  0.00  0.00    +0.000 A 
ATOM     16  C   UNL     1       0.257  13.341  19.406  0.00  0.00    +0.000 A 
ATOM     17  C   UNL     1       0.163  11.943  19.430  0.00  0.00    +0.000 A 
ENDBRANCH   8  12
BRANCH   1  19
ATOM     18  N   UNL     1       3.905   1.515  18.810  0.00  0.00    +0.000 NA
ATOM     19  C   UNL     1       2.801   2.177  18.606  0.00  0.00    +0.000 C 
BRANCH  18  20
ATOM     20  O   UNL     1       4.787   2.181  19.665  0.00  0.00    +0.000 OA
ATOM     21  H   UNL     1       5.585   1.621  19.621  0.00  0.00    +0.000 HD
ENDBRANCH  18  20
ENDBRANCH   1  19
TORSDOF 3
ENDMDL
MODEL 4
REMARK VINA RESULT:      -6.1      3.981      7.469
REMARK  Name = 
REMARK  3 active torsions:
REMARK  status: ('A' for Active; 'I' for Inactive)
REMARK    1  A    between atoms: O_1  and  N_2
REMARK    2  A    between atoms: C_3  and  C_4
REMARK    3  A    between atoms: N_11  and  C_12
REMARK                            x       y       z     vdW  Elec       q    Type
REMARK                         _______ _______ _______ _____ _____    ______ ____
ROOT
ATOM      1  C   UNL     1       0.443  10.258  21.419  0.00  0.00    +0.000 A 
ATOM      2  C   UNL     1       1.070   9.277  22.153  0.00  0.00    +0.000 A 
ATOM      3  N   UNL     1       1.633   8.244  21.421  0.00  0.00    +0.000 NA
ATOM      4  C   UNL     1       1.475   8.444  20.130  0.00  0.00    +0.000 A 
ATOM      5  N   UNL     1       1.913   7.588  19.167  0.00  0.00    +0.000 N 
ATOM      6  C   UNL     1       2.340   8.046  17.836  0.00  0.00    +0.000 C 
ATOM      7  C   UNL     1       3.857   7.844  17.643  0.00  0.00    +0.000 C 
ATOM      8  N   UNL     1       4.239   6.452  17.923  0.00  0.00    +0.000 N 
ATOM      9  C   UNL     1       3.854   5.987  19.271  0.00  0.00    +0.000 C 
ATOM     10  C   UNL     1       2.345   6.226  19.529  0.00  0.00    +0.000 C 
ATOM     11  S   UNL     1       0.558   9.870  19.760  0.00  0.00    +0.000 S 
ENDROOT
BRANCH   8  12
ATOM     12  C   UNL     1       4.758   5.612  16.960  0.00  0.00    +0.000 A 
ATOM     13  C   UNL     1       4.807   4.220  17.148  0.00  0.00    +0.000 A 
ATOM     14  C   UNL     1       5.370   3.360  16.198  0.00  0.00    +0.000 A 
ATOM     15  C   UNL     1       5.893   3.870  15.017  0.00  0.00    +0.000 A 
ATOM     16  C   UNL     1       5.852   5.240  14.793  0.00  0.00    +0.000 A 
ATOM     17  C   UNL     1       5.289   6.092  15.752  0.00  0.00    +0.000 A 
ENDBRANCH   8  12
BRANCH   1  19
ATOM     18  N   UNL     1       0.189  12.670  21.882  0.00  0.00    +0.000 NA
ATOM     19  C   UNL     1      -0.262  11.450  21.807  0.00  0.00    +0.000 C 
BRANCH  18  20
ATOM     20  O   UNL     1       1.517  12.785  21.462  0.00  0.00    +0.000 OA
ATOM     21  H   UNL     1       1.536  12.222  20.665  0.00  0.00    +0.000 HD
ENDBRANCH  18  20
ENDBRANCH   1  19
TORSDOF 3
ENDMDL
MODEL 5
REMARK VINA RESULT:      -6.1      0.961      1.417
REMARK  Name = 
REMARK  3 active torsions:
REMARK  status: ('A' for Active; 'I' for Inactive)
REMARK    1  A    between atoms: O_1  and  N_2
REMARK    2  A    between atoms: C_3  and  C_4
REMARK    3  A    between atoms: N_11  and  C_12
REMARK                            x       y       z     vdW  Elec       q    Type
REMARK                         _______ _______ _______ _____ _____    ______ ____
ROOT
ATOM      1  C   UNL     1       2.837   3.714  19.701  0.00  0.00    +0.000 A 
ATOM      2  C   UNL     1       1.840   4.064  20.583  0.00  0.00    +0.000 A 
ATOM      3  N   UNL     1       1.575   5.420  20.685  0.00  0.00    +0.000 NA
ATOM      4  C   UNL     1       2.335   6.109  19.860  0.00  0.00    +0.000 A 
ATOM      5  N   UNL     1       2.306   7.465  19.750  0.00  0.00    +0.000 N 
ATOM      6  C   UNL     1       2.597   8.163  18.488  0.00  0.00    +0.000 C 
ATOM      7  C   UNL     1       1.331   8.844  17.929  0.00  0.00    +0.000 C 
ATOM      8  N   UNL     1       0.717   9.717  18.941  0.00  0.00    +0.000 N 
ATOM      9  C   UNL     1       0.380   9.024  20.201  0.00  0.00    +0.000 C 
ATOM     10  C   UNL     1       1.612   8.275  20.767  0.00  0.00    +0.000 C 
ATOM     11  S   UNL     1       3.465   5.129  18.981  0.00  0.00    +0.000 S 
ENDROOT
BRANCH   8  12
ATOM     12  C   UNL     1       0.618  11.084  18.787  0.00  0.00    +0.000 A 
ATOM     13  C   UNL     1       1.759  11.891  18.645  0.00  0.00    +0.000 A 
ATOM     14  C   UNL     1       1.677  13.284  18.532  0.00  0.00    +0.000 A 
ATOM     15  C   UNL     1       0.438  13.913  18.546  0.00  0.00    +0.000 A 
ATOM     16  C   UNL     1      -0.711  13.145  18.676  0.00  0.00    +0.000 A 
ATOM     17  C   UNL     1      -0.616  11.753  18.791  0.00  0.00    +0.000 A 
ENDBRANCH   8  12
BRANCH   1  19
ATOM     18  N   UNL     1       3.010   1.609  18.422  0.00  0.00    +0.000 NA
ATOM     19  C   UNL     1       3.403   2.441  19.344  0.00  0.00    +0.000 C 
BRANCH  18  20
ATOM     20  O   UNL     1       1.932   2.094  17.677  0.00  0.00    +0.000 OA
ATOM     21  H   UNL     1       1.164   1.771  18.183  0.00  0.00    +0.000 HD
ENDBRANCH  18  20
ENDBRANCH   1  19
TORSDOF 3
ENDMDL
MODEL 6
REMARK VINA RESULT:      -6.1      3.982      7.499
REMARK  Name = 
REMARK  3 active torsions:
REMARK  status: ('A' for Active; 'I' for Inactive)
REMARK    1  A    between atoms: O_1  and  N_2
REMARK    2  A    between atoms: C_3  and  C_4
REMARK    3  A    between atoms: N_11  and  C_12
REMARK                            x       y       z     vdW  Elec       q    Type
REMARK                         _______ _______ _______ _____ _____    ______ ____
ROOT
ATOM      1  C   UNL     1       0.487  10.217  21.342  0.00  0.00    +0.000 A 
ATOM      2  C   UNL     1       1.071   9.213  22.079  0.00  0.00    +0.000 A 
ATOM      3  N   UNL     1       1.639   8.182  21.348  0.00  0.00    +0.000 NA
ATOM      4  C   UNL     1       1.529   8.407  20.056  0.00  0.00    +0.000 A 
ATOM      5  N   UNL     1       1.984   7.561  19.093  0.00  0.00    +0.000 N 
ATOM      6  C   UNL     1       2.464   8.034  17.786  0.00  0.00    +0.000 C 
ATOM      7  C   UNL     1       3.983   7.808  17.641  0.00  0.00    +0.000 C 
ATOM      8  N   UNL     1       4.330   6.404  17.908  0.00  0.00    +0.000 N 
ATOM      9  C   UNL     1       3.891   5.922  19.233  0.00  0.00    +0.000 C 
ATOM     10  C   UNL     1       2.379   6.185  19.445  0.00  0.00    +0.000 C 
ATOM     11  S   UNL     1       0.651   9.857  19.681  0.00  0.00    +0.000 S 
ENDROOT
BRANCH   8  12
ATOM     12  C   UNL     1       4.867   5.571  16.948  0.00  0.00    +0.000 A 
ATOM     13  C   UNL     1       5.303   6.066  15.708  0.00  0.00    +0.000 A 
ATOM     14  C   UNL     1       5.810   5.227  14.707  0.00  0.00    +0.000 A 
ATOM     15  C   UNL     1       5.904   3.859  14.926  0.00  0.00    +0.000 A 
ATOM     16  C   UNL     1       5.489   3.336  16.144  0.00  0.00    +0.000 A 
ATOM     17  C   UNL     1       4.982   4.185  17.136  0.00  0.00    +0.000 A 
ENDBRANCH   8  12
BRANCH   1  19
ATOM     18  N   UNL     1       0.252  12.631  21.809  0.00  0.00    +0.000 NA
ATOM     19  C   UNL     1      -0.209  11.415  21.729  0.00  0.00    +0.000 C 
BRANCH  18  20
ATOM     20  O   UNL     1       1.584  12.734  21.399  0.00  0.00    +0.000 OA
ATOM     21  H   UNL     1       1.998  13.209  22.144  0.00  0.00    +0.000 HD
ENDBRANCH  18  20
ENDBRANCH   1  19
TORSDOF 3
ENDMDL
MODEL 7
REMARK VINA RESULT:      -6.1      4.040      8.240
REMARK  Name = 
REMARK  3 active torsions:
REMARK  status: ('A' for Active; 'I' for Inactive)
REMARK    1  A    between atoms: O_1  and  N_2
REMARK    2  A    between atoms: C_3  and  C_4
REMARK    3  A    between atoms: N_11  and  C_12
REMARK                            x       y       z     vdW  Elec       q    Type
REMARK                         _______ _______ _______ _____ _____    ______ ____
ROOT
ATOM      1  C   UNL     1       1.162  13.680  19.613  0.00  0.00    +0.000 A 
ATOM      2  C   UNL     1       1.322  13.149  20.872  0.00  0.00    +0.000 A 
ATOM      3  N   UNL     1       1.191  11.774  20.967  0.00  0.00    +0.000 NA
ATOM      4  C   UNL     1       0.968  11.241  19.785  0.00  0.00    +0.000 A 
ATOM      5  N   UNL     1       0.784   9.910  19.570  0.00  0.00    +0.000 N 
ATOM      6  C   UNL     1       1.186   9.247  18.321  0.00  0.00    +0.000 C 
ATOM      7  C   UNL     1       2.361   8.277  18.562  0.00  0.00    +0.000 C 
ATOM      8  N   UNL     1       2.042   7.329  19.641  0.00  0.00    +0.000 N 
ATOM      9  C   UNL     1       1.675   7.977  20.916  0.00  0.00    +0.000 C 
ATOM     10  C   UNL     1       0.536   9.005  20.707  0.00  0.00    +0.000 C 
ATOM     11  S   UNL     1       0.832  12.415  18.514  0.00  0.00    +0.000 S 
ENDROOT
BRANCH   8  12
ATOM     12  C   UNL     1       1.935   5.969  19.433  0.00  0.00    +0.000 A 
ATOM     13  C   UNL     1       1.590   5.092  20.474  0.00  0.00    +0.000 A 
ATOM     14  C   UNL     1       1.519   3.706  20.288  0.00  0.00    +0.000 A 
ATOM     15  C   UNL     1       1.783   3.155  19.040  0.00  0.00    +0.000 A 
ATOM     16  C   UNL     1       2.119   3.994  17.985  0.00  0.00    +0.000 A 
ATOM     17  C   UNL     1       2.189   5.379  18.185  0.00  0.00    +0.000 A 
ENDBRANCH   8  12
BRANCH   1  19
ATOM     18  N   UNL     1       0.205  15.839  18.892  0.00  0.00    +0.000 NA
ATOM     19  C   UNL     1       1.201  15.033  19.125  0.00  0.00    +0.000 C 
BRANCH  18  20
ATOM     20  O   UNL     1      -1.032  15.286  19.232  0.00  0.00    +0.000 OA
ATOM     21  H   UNL     1      -1.625  16.061  19.201  0.00  0.00    +0.000 HD
ENDBRANCH  18  20
ENDBRANCH   1  19
TORSDOF 3
ENDMDL
MODEL 8
REMARK VINA RESULT:      -6.1      2.533      3.505
REMARK  Name = 
REMARK  3 active torsions:
REMARK  status: ('A' for Active; 'I' for Inactive)
REMARK    1  A    between atoms: O_1  and  N_2
REMARK    2  A    between atoms: C_3  and  C_4
REMARK    3  A    between atoms: N_11  and  C_12
REMARK                            x       y       z     vdW  Elec       q    Type
REMARK                         _______ _______ _______ _____ _____    ______ ____
ROOT
ATOM      1  C   UNL     1       4.391   5.735  18.295  0.00  0.00    +0.000 A 
ATOM      2  C   UNL     1       4.368   6.889  17.545  0.00  0.00    +0.000 A 
ATOM      3  N   UNL     1       3.357   7.786  17.851  0.00  0.00    +0.000 NA
ATOM      4  C   UNL     1       2.628   7.346  18.854  0.00  0.00    +0.000 A 
ATOM      5  N   UNL     1       1.556   8.010  19.365  0.00  0.00    +0.000 N 
ATOM      6  C   UNL     1       1.170   7.919  20.782  0.00  0.00    +0.000 C 
ATOM      7  C   UNL     1       1.393   9.265  21.502  0.00  0.00    +0.000 C 
ATOM      8  N   UNL     1       0.713  10.357  20.790  0.00  0.00    +0.000 N 
ATOM      9  C   UNL     1       1.117  10.490  19.376  0.00  0.00    +0.000 C 
ATOM     10  C   UNL     1       0.966   9.142  18.628  0.00  0.00    +0.000 C 
ATOM     11  S   UNL     1       3.102   5.774  19.415  0.00  0.00    +0.000 S 
ENDROOT
BRANCH   8  12
ATOM     12  C   UNL     1      -0.323  11.080  21.345  0.00  0.00    +0.000 A 
ATOM     13  C   UNL     1      -0.701  10.909  22.687  0.00  0.00    +0.000 A 
ATOM     14  C   UNL     1      -1.778  11.604  23.251  0.00  0.00    +0.000 A 
ATOM     15  C   UNL     1      -2.505  12.507  22.484  0.00  0.00    +0.000 A 
ATOM     16  C   UNL     1      -2.152  12.707  21.156  0.00  0.00    +0.000 A 
ATOM     17  C   UNL     1      -1.075  12.004  20.602  0.00  0.00    +0.000 A 
ENDBRANCH   8  12
BRANCH   1  19
ATOM     18  N   UNL     1       6.355   4.376  18.921  0.00  0.00    +0.000 NA
ATOM     19  C   UNL     1       5.250   4.582  18.262  0.00  0.00    +0.000 C 
BRANCH  18  20
ATOM     20  O   UNL     1       6.665   5.416  19.800  0.00  0.00    +0.000 OA
ATOM     21  H   UNL     1       7.635   5.344  19.878  0.00  0.00    +0.000 HD
ENDBRANCH  18  20
ENDBRANCH   1  19
TORSDOF 3
ENDMDL
MODEL 9
REMARK VINA RESULT:      -6.0      2.525      3.514
REMARK  Name = 
REMARK  3 active torsions:
REMARK  status: ('A' for Active; 'I' for Inactive)
REMARK    1  A    between atoms: O_1  and  N_2
REMARK    2  A    between atoms: C_3  and  C_4
REMARK    3  A    between atoms: N_11  and  C_12
REMARK                            x       y       z     vdW  Elec       q    Type
REMARK                         _______ _______ _______ _____ _____    ______ ____
ROOT
ATOM      1  C   UNL     1       4.272   5.700  18.359  0.00  0.00    +0.000 A 
ATOM      2  C   UNL     1       4.281   6.860  17.618  0.00  0.00    +0.000 A 
ATOM      3  N   UNL     1       3.298   7.784  17.934  0.00  0.00    +0.000 NA
ATOM      4  C   UNL     1       2.559   7.358  18.937  0.00  0.00    +0.000 A 
ATOM      5  N   UNL     1       1.509   8.050  19.457  0.00  0.00    +0.000 N 
ATOM      6  C   UNL     1       1.126   7.959  20.875  0.00  0.00    +0.000 C 
ATOM      7  C   UNL     1       1.391   9.292  21.604  0.00  0.00    +0.000 C 
ATOM      8  N   UNL     1       0.742  10.410  20.903  0.00  0.00    +0.000 N 
ATOM      9  C   UNL     1       1.145  10.541  19.488  0.00  0.00    +0.000 C 
ATOM     10  C   UNL     1       0.951   9.204  18.731  0.00  0.00    +0.000 C 
ATOM     11  S   UNL     1       2.989   5.768  19.484  0.00  0.00    +0.000 S 
ENDROOT
BRANCH   8  12
ATOM     12  C   UNL     1      -0.270  11.159  21.467  0.00  0.00    +0.000 A 
ATOM     13  C   UNL     1      -0.759  12.319  20.844  0.00  0.00    +0.000 A 
ATOM     14  C   UNL     1      -1.756  13.113  21.426  0.00  0.00    +0.000 A 
ATOM     15  C   UNL     1      -2.304  12.758  22.652  0.00  0.00    +0.000 A 
ATOM     16  C   UNL     1      -1.850  11.612  23.291  0.00  0.00    +0.000 A 
ATOM     17  C   UNL     1      -0.851  10.827  22.701  0.00  0.00    +0.000 A 
ENDBRANCH   8  12
BRANCH   1  19
ATOM     18  N   UNL     1       6.225   4.300  18.926  0.00  0.00    +0.000 NA
ATOM     19  C   UNL     1       5.097   4.523  18.314  0.00  0.00    +0.000 C 
BRANCH  18  20
ATOM     20  O   UNL     1       6.606   5.351  19.764  0.00  0.00    +0.000 OA
ATOM     21  H   UNL     1       5.831   5.444  20.350  0.00  0.00    +0.000 HD
ENDBRANCH  18  20
ENDBRANCH   1  19
TORSDOF 3
ENDMDL
