MODEL 1
REMARK VINA RESULT:      -6.6      0.000      0.000
REMARK  Name = 
REMARK  9 active torsions:
REMARK  status: ('A' for Active; 'I' for Inactive)
REMARK    1  A    between atoms: C_1  and  C_2
REMARK    2  A    between atoms: C_2  and  C_3
REMARK    3  A    between atoms: C_3  and  C_4
REMARK    4  A    between atoms: C_4  and  C_5
REMARK    5  A    between atoms: C_5  and  S_6
REMARK    6  A    between atoms: S_6  and  C_7
REMARK    7  A    between atoms: C_14  and  O_16
REMARK    8  A    between atoms: O_16  and  C_17
REMARK    9  A    between atoms: C_17  and  C_18
REMARK                            x       y       z     vdW  Elec       q    Type
REMARK                         _______ _______ _______ _____ _____    ______ ____
ROOT
ATOM      1  C   UNL     1       3.276   6.218  18.978  0.00  0.00    +0.000 A 
ATOM      2  C   UNL     1       3.280   7.025  17.839  0.00  0.00    +0.000 A 
ATOM      3  C   UNL     1       2.560   8.232  17.805  0.00  0.00    +0.000 A 
ATOM      4  C   UNL     1       1.808   8.645  18.930  0.00  0.00    +0.000 A 
ATOM      5  N   UNL     1       1.026   9.797  19.050  0.00  0.00    +0.000 NA
ATOM      6  C   UNL     1       0.510   9.864  20.256  0.00  0.00    +0.000 A 
ATOM      7  N   UNL     1      -0.328  10.882  20.669  0.00  0.00    +0.000 N 
ATOM      8  C   UNL     1      -0.604  11.194  21.979  0.00  0.00    +0.000 C 
ATOM      9  O   UNL     1      -0.192  10.636  22.970  0.00  0.00    +0.000 OA
ATOM     10  S   UNL     1       0.866   8.545  21.280  0.00  0.00    +0.000 S 
ATOM     11  C   UNL     1       1.823   7.824  20.055  0.00  0.00    +0.000 A 
ATOM     12  C   UNL     1       2.541   6.610  20.101  0.00  0.00    +0.000 A 
ATOM     13  H   UNL     1      -0.725  11.462  19.944  0.00  0.00    +0.000 HD
ENDROOT
BRANCH   1  14
ATOM     14  S   UNL     1       4.189   4.681  19.046  0.00  0.00    +0.000 S 
BRANCH  14  15
ATOM     15  C   UNL     1       3.456   3.789  17.626  0.00  0.00    +0.000 C 
BRANCH  15  16
ATOM     16  C   UNL     1       1.952   3.610  17.847  0.00  0.00    +0.000 C 
BRANCH  16  17
ATOM     17  C   UNL     1       1.662   2.610  18.972  0.00  0.00    +0.000 C 
BRANCH  17  19
ATOM     18  C   UNL     1       1.495   2.895  21.472  0.00  0.00    +0.000 C 
ATOM     19  C   UNL     1       0.900   3.270  20.124  0.00  0.00    +0.000 C 
ENDBRANCH  17  19
ENDBRANCH  16  17
ENDBRANCH  15  16
ENDBRANCH  14  15
ENDBRANCH   1  14
BRANCH   8  20
ATOM     20  O   UNL     1      -1.502  12.228  22.031  0.00  0.00    +0.000 OA
BRANCH  20  21
ATOM     21  C   UNL     1      -1.201  13.166  23.081  0.00  0.00    +0.000 C 
ATOM     22  C   UNL     1      -0.287  14.249  22.548  0.00  0.00    +0.000 C 
ENDBRANCH  20  21
ENDBRANCH   8  20
TORSDOF 7
ENDMDL
MODEL 2
REMARK VINA RESULT:      -6.6      6.013      8.265
REMARK  Name = 
REMARK  9 active torsions:
REMARK  status: ('A' for Active; 'I' for Inactive)
REMARK    1  A    between atoms: C_1  and  C_2
REMARK    2  A    between atoms: C_2  and  C_3
REMARK    3  A    between atoms: C_3  and  C_4
REMARK    4  A    between atoms: C_4  and  C_5
REMARK    5  A    between atoms: C_5  and  S_6
REMARK    6  A    between atoms: S_6  and  C_7
REMARK    7  A    between atoms: C_14  and  O_16
REMARK    8  A    between atoms: O_16  and  C_17
REMARK    9  A    between atoms: C_17  and  C_18
REMARK                            x       y       z     vdW  Elec       q    Type
REMARK                         _______ _______ _______ _____ _____    ______ ____
ROOT
ATOM      1  C   UNL     1       6.543   4.475  14.176  0.00  0.00    +0.000 A 
ATOM      2  C   UNL     1       7.468   5.094  15.018  0.00  0.00    +0.000 A 
ATOM      3  C   UNL     1       7.283   5.112  16.412  0.00  0.00    +0.000 A 
ATOM      4  C   UNL     1       6.141   4.504  16.985  0.00  0.00    +0.000 A 
ATOM      5  N   UNL     1       5.800   4.452  18.339  0.00  0.00    +0.000 NA
ATOM      6  C   UNL     1       4.690   3.767  18.496  0.00  0.00    +0.000 A 
ATOM      7  N   UNL     1       4.090   3.561  19.722  0.00  0.00    +0.000 N 
ATOM      8  C   UNL     1       3.158   2.587  19.991  0.00  0.00    +0.000 C 
ATOM      9  O   UNL     1       2.696   1.778  19.219  0.00  0.00    +0.000 OA
ATOM     10  S   UNL     1       3.963   3.212  17.054  0.00  0.00    +0.000 S 
ATOM     11  C   UNL     1       5.235   3.889  16.125  0.00  0.00    +0.000 A 
ATOM     12  C   UNL     1       5.410   3.866  14.725  0.00  0.00    +0.000 A 
ATOM     13  H   UNL     1       4.402   4.149  20.482  0.00  0.00    +0.000 HD
ENDROOT
BRANCH   1  14
ATOM     14  S   UNL     1       6.760   4.436  12.402  0.00  0.00    +0.000 S 
BRANCH  14  15
ATOM     15  C   UNL     1       6.653   2.637  12.087  0.00  0.00    +0.000 C 
BRANCH  15  16
ATOM     16  C   UNL     1       5.360   2.319  11.333  0.00  0.00    +0.000 C 
BRANCH  16  17
ATOM     17  C   UNL     1       4.411   3.522  11.306  0.00  0.00    +0.000 C 
BRANCH  17  19
ATOM     18  C   UNL     1       2.852   4.303   9.484  0.00  0.00    +0.000 C 
ATOM     19  C   UNL     1       3.142   3.215  10.506  0.00  0.00    +0.000 C 
ENDBRANCH  17  19
ENDBRANCH  16  17
ENDBRANCH  15  16
ENDBRANCH  14  15
ENDBRANCH   1  14
BRANCH   8  20
ATOM     20  O   UNL     1       2.741   2.689  21.293  0.00  0.00    +0.000 OA
BRANCH  20  21
ATOM     21  C   UNL     1       2.125   3.959  21.576  0.00  0.00    +0.000 C 
ATOM     22  C   UNL     1       0.998   4.206  20.595  0.00  0.00    +0.000 C 
ENDBRANCH  20  21
ENDBRANCH   8  20
TORSDOF 7
ENDMDL
MODEL 3
REMARK VINA RESULT:      -6.6      1.032      1.181
REMARK  Name = 
REMARK  9 active torsions:
REMARK  status: ('A' for Active; 'I' for Inactive)
REMARK    1  A    between atoms: C_1  and  C_2
REMARK    2  A    between atoms: C_2  and  C_3
REMARK    3  A    between atoms: C_3  and  C_4
REMARK    4  A    between atoms: C_4  and  C_5
REMARK    5  A    between atoms: C_5  and  S_6
REMARK    6  A    between atoms: S_6  and  C_7
REMARK    7  A    between atoms: C_14  and  O_16
REMARK    8  A    between atoms: O_16  and  C_17
REMARK    9  A    between atoms: C_17  and  C_18
REMARK                            x       y       z     vdW  Elec       q    Type
REMARK                         _______ _______ _______ _____ _____    ______ ____
ROOT
ATOM      1  C   UNL     1       3.154   6.786  18.521  0.00  0.00    +0.000 A 
ATOM      2  C   UNL     1       2.863   7.728  17.533  0.00  0.00    +0.000 A 
ATOM      3  C   UNL     1       2.007   8.813  17.795  0.00  0.00    +0.000 A 
ATOM      4  C   UNL     1       1.419   8.962  19.073  0.00  0.00    +0.000 A 
ATOM      5  N   UNL     1       0.537   9.964  19.488  0.00  0.00    +0.000 NA
ATOM      6  C   UNL     1       0.234   9.798  20.755  0.00  0.00    +0.000 A 
ATOM      7  N   UNL     1      -0.635  10.622  21.443  0.00  0.00    +0.000 N 
ATOM      8  C   UNL     1      -0.714  10.717  22.812  0.00  0.00    +0.000 C 
ATOM      9  O   UNL     1      -0.072  10.100  23.630  0.00  0.00    +0.000 OA
ATOM     10  S   UNL     1       0.919   8.421  21.497  0.00  0.00    +0.000 S 
ATOM     11  C   UNL     1       1.728   8.012  20.043  0.00  0.00    +0.000 A 
ATOM     12  C   UNL     1       2.584   6.918  19.791  0.00  0.00    +0.000 A 
ATOM     13  H   UNL     1      -1.219  11.229  20.886  0.00  0.00    +0.000 HD
ENDROOT
BRANCH   1  14
ATOM     14  S   UNL     1       4.242   5.401  18.212  0.00  0.00    +0.000 S 
BRANCH  14  15
ATOM     15  C   UNL     1       3.133   4.307  17.252  0.00  0.00    +0.000 C 
BRANCH  15  16
ATOM     16  C   UNL     1       1.786   4.179  17.967  0.00  0.00    +0.000 C 
BRANCH  16  17
ATOM     17  C   UNL     1       1.486   2.726  18.352  0.00  0.00    +0.000 C 
BRANCH  17  19
ATOM     18  C   UNL     1       0.976   3.941  20.502  0.00  0.00    +0.000 C 
ATOM     19  C   UNL     1       1.221   2.588  19.854  0.00  0.00    +0.000 C 
ENDBRANCH  17  19
ENDBRANCH  16  17
ENDBRANCH  15  16
ENDBRANCH  14  15
ENDBRANCH   1  14
BRANCH   8  20
ATOM     20  O   UNL     1      -1.707  11.596  23.160  0.00  0.00    +0.000 OA
BRANCH  20  21
ATOM     21  C   UNL     1      -2.166  12.378  22.042  0.00  0.00    +0.000 C 
ATOM     22  C   UNL     1      -3.635  12.701  22.218  0.00  0.00    +0.000 C 
ENDBRANCH  20  21
ENDBRANCH   8  20
TORSDOF 7
ENDMDL
MODEL 4
REMARK VINA RESULT:      -6.6      2.929      4.385
REMARK  Name = 
REMARK  9 active torsions:
REMARK  status: ('A' for Active; 'I' for Inactive)
REMARK    1  A    between atoms: C_1  and  C_2
REMARK    2  A    between atoms: C_2  and  C_3
REMARK    3  A    between atoms: C_3  and  C_4
REMARK    4  A    between atoms: C_4  and  C_5
REMARK    5  A    between atoms: C_5  and  S_6
REMARK    6  A    between atoms: S_6  and  C_7
REMARK    7  A    between atoms: C_14  and  O_16
REMARK    8  A    between atoms: O_16  and  C_17
REMARK    9  A    between atoms: C_17  and  C_18
REMARK                            x       y       z     vdW  Elec       q    Type
REMARK                         _______ _______ _______ _____ _____    ______ ____
ROOT
ATOM      1  C   UNL     1       4.402   4.729  17.590  0.00  0.00    +0.000 A 
ATOM      2  C   UNL     1       4.125   4.188  18.846  0.00  0.00    +0.000 A 
ATOM      3  C   UNL     1       3.348   4.892  19.783  0.00  0.00    +0.000 A 
ATOM      4  C   UNL     1       2.837   6.173  19.465  0.00  0.00    +0.000 A 
ATOM      5  N   UNL     1       2.071   7.006  20.285  0.00  0.00    +0.000 NA
ATOM      6  C   UNL     1       1.746   8.100  19.633  0.00  0.00    +0.000 A 
ATOM      7  N   UNL     1       1.007   9.125  20.190  0.00  0.00    +0.000 N 
ATOM      8  C   UNL     1       0.350  10.100  19.478  0.00  0.00    +0.000 C 
ATOM      9  O   UNL     1       0.321  10.240  18.277  0.00  0.00    +0.000 OA
ATOM     10  S   UNL     1       2.381   8.227  18.053  0.00  0.00    +0.000 S 
ATOM     11  C   UNL     1       3.123   6.689  18.204  0.00  0.00    +0.000 A 
ATOM     12  C   UNL     1       3.903   5.993  17.256  0.00  0.00    +0.000 A 
ATOM     13  H   UNL     1       0.913   9.120  21.196  0.00  0.00    +0.000 HD
ENDROOT
BRANCH   1  14
ATOM     14  S   UNL     1       5.384   3.851  16.381  0.00  0.00    +0.000 S 
BRANCH  14  15
ATOM     15  C   UNL     1       6.918   4.850  16.401  0.00  0.00    +0.000 C 
BRANCH  15  16
ATOM     16  C   UNL     1       7.583   4.750  17.775  0.00  0.00    +0.000 C 
BRANCH  16  17
ATOM     17  C   UNL     1       7.663   6.115  18.465  0.00  0.00    +0.000 C 
BRANCH  17  19
ATOM     18  C   UNL     1       8.086   8.539  17.911  0.00  0.00    +0.000 C 
ATOM     19  C   UNL     1       7.392   7.256  17.481  0.00  0.00    +0.000 C 
ENDBRANCH  17  19
ENDBRANCH  16  17
ENDBRANCH  15  16
ENDBRANCH  14  15
ENDBRANCH   1  14
BRANCH   8  20
ATOM     20  O   UNL     1      -0.250  10.981  20.340  0.00  0.00    +0.000 OA
BRANCH  20  21
ATOM     21  C   UNL     1       0.253  12.322  20.195  0.00  0.00    +0.000 C 
ATOM     22  C   UNL     1      -0.871  13.241  19.765  0.00  0.00    +0.000 C 
ENDBRANCH  20  21
ENDBRANCH   8  20
TORSDOF 7
ENDMDL
MODEL 5
REMARK VINA RESULT:      -6.4      1.864      2.190
REMARK  Name = 
REMARK  9 active torsions:
REMARK  status: ('A' for Active; 'I' for Inactive)
REMARK    1  A    between atoms: C_1  and  C_2
REMARK    2  A    between atoms: C_2  and  C_3
REMARK    3  A    between atoms: C_3  and  C_4
REMARK    4  A    between atoms: C_4  and  C_5
REMARK    5  A    between atoms: C_5  and  S_6
REMARK    6  A    between atoms: S_6  and  C_7
REMARK    7  A    between atoms: C_14  and  O_16
REMARK    8  A    between atoms: O_16  and  C_17
REMARK    9  A    between atoms: C_17  and  C_18
REMARK                            x       y       z     vdW  Elec       q    Type
REMARK                         _______ _______ _______ _____ _____    ______ ____
ROOT
ATOM      1  C   UNL     1       3.967   5.263  18.619  0.00  0.00    +0.000 A 
ATOM      2  C   UNL     1       4.419   5.792  17.409  0.00  0.00    +0.000 A 
ATOM      3  C   UNL     1       3.974   7.045  16.953  0.00  0.00    +0.000 A 
ATOM      4  C   UNL     1       3.045   7.791  17.718  0.00  0.00    +0.000 A 
ATOM      5  N   UNL     1       2.491   9.033  17.399  0.00  0.00    +0.000 NA
ATOM      6  C   UNL     1       1.700   9.433  18.369  0.00  0.00    +0.000 A 
ATOM      7  N   UNL     1       0.991  10.618  18.333  0.00  0.00    +0.000 N 
ATOM      8  C   UNL     1       0.446  11.245  19.428  0.00  0.00    +0.000 C 
ATOM      9  O   UNL     1       0.472  10.871  20.578  0.00  0.00    +0.000 OA
ATOM     10  S   UNL     1       1.521   8.337  19.666  0.00  0.00    +0.000 S 
ATOM     11  C   UNL     1       2.612   7.244  18.923  0.00  0.00    +0.000 A 
ATOM     12  C   UNL     1       3.051   5.987  19.389  0.00  0.00    +0.000 A 
ATOM     13  H   UNL     1       0.913  11.070  17.433  0.00  0.00    +0.000 HD
ENDROOT
BRANCH   1  14
ATOM     14  S   UNL     1       4.523   3.674  19.220  0.00  0.00    +0.000 S 
BRANCH  14  15
ATOM     15  C   UNL     1       3.809   2.563  17.952  0.00  0.00    +0.000 C 
BRANCH  15  16
ATOM     16  C   UNL     1       2.295   2.770  17.876  0.00  0.00    +0.000 C 
BRANCH  16  17
ATOM     17  C   UNL     1       1.569   2.057  19.023  0.00  0.00    +0.000 C 
BRANCH  17  19
ATOM     18  C   UNL     1       1.415   2.907  21.392  0.00  0.00    +0.000 C 
ATOM     19  C   UNL     1       0.900   3.057  19.970  0.00  0.00    +0.000 C 
ENDBRANCH  17  19
ENDBRANCH  16  17
ENDBRANCH  15  16
ENDBRANCH  14  15
ENDBRANCH   1  14
BRANCH   8  20
ATOM     20  O   UNL     1      -0.222  12.374  19.032  0.00  0.00    +0.000 OA
BRANCH  20  21
ATOM     21  C   UNL     1      -1.600  12.112  18.707  0.00  0.00    +0.000 C 
ATOM     22  C   UNL     1      -2.481  12.521  19.868  0.00  0.00    +0.000 C 
ENDBRANCH  20  21
ENDBRANCH   8  20
TORSDOF 7
ENDMDL
MODEL 6
REMARK VINA RESULT:      -6.4      2.004      3.240
REMARK  Name = 
REMARK  9 active torsions:
REMARK  status: ('A' for Active; 'I' for Inactive)
REMARK    1  A    between atoms: C_1  and  C_2
REMARK    2  A    between atoms: C_2  and  C_3
REMARK    3  A    between atoms: C_3  and  C_4
REMARK    4  A    between atoms: C_4  and  C_5
REMARK    5  A    between atoms: C_5  and  S_6
REMARK    6  A    between atoms: S_6  and  C_7
REMARK    7  A    between atoms: C_14  and  O_16
REMARK    8  A    between atoms: O_16  and  C_17
REMARK    9  A    between atoms: C_17  and  C_18
REMARK                            x       y       z     vdW  Elec       q    Type
REMARK                         _______ _______ _______ _____ _____    ______ ____
ROOT
ATOM      1  C   UNL     1       2.895   6.072  19.137  0.00  0.00    +0.000 A 
ATOM      2  C   UNL     1       3.031   6.954  18.064  0.00  0.00    +0.000 A 
ATOM      3  C   UNL     1       2.439   8.229  18.095  0.00  0.00    +0.000 A 
ATOM      4  C   UNL     1       1.684   8.637  19.220  0.00  0.00    +0.000 A 
ATOM      5  N   UNL     1       1.019   9.852  19.399  0.00  0.00    +0.000 NA
ATOM      6  C   UNL     1       0.460   9.888  20.587  0.00  0.00    +0.000 A 
ATOM      7  N   UNL     1      -0.287  10.955  21.045  0.00  0.00    +0.000 N 
ATOM      8  C   UNL     1      -0.587  11.200  22.364  0.00  0.00    +0.000 C 
ATOM      9  O   UNL     1      -0.279  10.533  23.324  0.00  0.00    +0.000 OA
ATOM     10  S   UNL     1       0.634   8.468  21.520  0.00  0.00    +0.000 S 
ATOM     11  C   UNL     1       1.567   7.740  20.280  0.00  0.00    +0.000 A 
ATOM     12  C   UNL     1       2.155   6.458  20.259  0.00  0.00    +0.000 A 
ATOM     13  H   UNL     1      -0.592  11.624  20.352  0.00  0.00    +0.000 HD
ENDROOT
BRANCH   1  14
ATOM     14  S   UNL     1       3.642   4.448  19.122  0.00  0.00    +0.000 S 
BRANCH  14  15
ATOM     15  C   UNL     1       5.411   4.888  19.286  0.00  0.00    +0.000 C 
BRANCH  15  16
ATOM     16  C   UNL     1       6.099   4.784  17.923  0.00  0.00    +0.000 C 
BRANCH  16  17
ATOM     17  C   UNL     1       7.605   5.051  18.028  0.00  0.00    +0.000 C 
BRANCH  17  19
ATOM     18  C   UNL     1       7.584   7.533  17.584  0.00  0.00    +0.000 C 
ATOM     19  C   UNL     1       7.888   6.443  18.599  0.00  0.00    +0.000 C 
ENDBRANCH  17  19
ENDBRANCH  16  17
ENDBRANCH  15  16
ENDBRANCH  14  15
ENDBRANCH   1  14
BRANCH   8  20
ATOM     20  O   UNL     1      -1.377  12.316  22.461  0.00  0.00    +0.000 OA
BRANCH  20  21
ATOM     21  C   UNL     1      -2.541  12.097  23.279  0.00  0.00    +0.000 C 
ATOM     22  C   UNL     1      -3.527  13.227  23.069  0.00  0.00    +0.000 C 
ENDBRANCH  20  21
ENDBRANCH   8  20
TORSDOF 7
ENDMDL
MODEL 7
REMARK VINA RESULT:      -6.4      1.804      2.053
REMARK  Name = 
REMARK  9 active torsions:
REMARK  status: ('A' for Active; 'I' for Inactive)
REMARK    1  A    between atoms: C_1  and  C_2
REMARK    2  A    between atoms: C_2  and  C_3
REMARK    3  A    between atoms: C_3  and  C_4
REMARK    4  A    between atoms: C_4  and  C_5
REMARK    5  A    between atoms: C_5  and  S_6
REMARK    6  A    between atoms: S_6  and  C_7
REMARK    7  A    between atoms: C_14  and  O_16
REMARK    8  A    between atoms: O_16  and  C_17
REMARK    9  A    between atoms: C_17  and  C_18
REMARK                            x       y       z     vdW  Elec       q    Type
REMARK                         _______ _______ _______ _____ _____    ______ ____
ROOT
ATOM      1  C   UNL     1       3.834   5.520  18.736  0.00  0.00    +0.000 A 
ATOM      2  C   UNL     1       4.251   6.071  17.523  0.00  0.00    +0.000 A 
ATOM      3  C   UNL     1       3.755   7.310  17.082  0.00  0.00    +0.000 A 
ATOM      4  C   UNL     1       2.811   8.019  17.864  0.00  0.00    +0.000 A 
ATOM      5  N   UNL     1       2.209   9.242  17.560  0.00  0.00    +0.000 NA
ATOM      6  C   UNL     1       1.418   9.608  18.543  0.00  0.00    +0.000 A 
ATOM      7  N   UNL     1       0.667  10.767  18.524  0.00  0.00    +0.000 N 
ATOM      8  C   UNL     1       0.116  11.368  19.630  0.00  0.00    +0.000 C 
ATOM      9  O   UNL     1       0.171  10.989  20.777  0.00  0.00    +0.000 OA
ATOM     10  S   UNL     1       1.296   8.499  19.836  0.00  0.00    +0.000 S 
ATOM     11  C   UNL     1       2.414   7.450  19.071  0.00  0.00    +0.000 A 
ATOM     12  C   UNL     1       2.904   6.206  19.523  0.00  0.00    +0.000 A 
ATOM     13  H   UNL     1       0.561  11.222  17.628  0.00  0.00    +0.000 HD
ENDROOT
BRANCH   1  14
ATOM     14  S   UNL     1       4.454   3.947  19.320  0.00  0.00    +0.000 S 
BRANCH  14  15
ATOM     15  C   UNL     1       3.596   2.801  18.179  0.00  0.00    +0.000 C 
BRANCH  15  16
ATOM     16  C   UNL     1       2.649   1.896  18.971  0.00  0.00    +0.000 C 
BRANCH  16  17
ATOM     17  C   UNL     1       1.196   2.373  18.870  0.00  0.00    +0.000 C 
BRANCH  17  19
ATOM     18  C   UNL     1       1.382   2.797  21.348  0.00  0.00    +0.000 C 
ATOM     19  C   UNL     1       0.833   3.308  20.026  0.00  0.00    +0.000 C 
ENDBRANCH  17  19
ENDBRANCH  16  17
ENDBRANCH  15  16
ENDBRANCH  14  15
ENDBRANCH   1  14
BRANCH   8  20
ATOM     20  O   UNL     1      -0.598  12.475  19.250  0.00  0.00    +0.000 OA
BRANCH  20  21
ATOM     21  C   UNL     1       0.167  13.363  18.414  0.00  0.00    +0.000 C 
ATOM     22  C   UNL     1       0.941  14.334  19.279  0.00  0.00    +0.000 C 
ENDBRANCH  20  21
ENDBRANCH   8  20
TORSDOF 7
ENDMDL
MODEL 8
REMARK VINA RESULT:      -6.3      1.366      2.028
REMARK  Name = 
REMARK  9 active torsions:
REMARK  status: ('A' for Active; 'I' for Inactive)
REMARK    1  A    between atoms: C_1  and  C_2
REMARK    2  A    between atoms: C_2  and  C_3
REMARK    3  A    between atoms: C_3  and  C_4
REMARK    4  A    between atoms: C_4  and  C_5
REMARK    5  A    between atoms: C_5  and  S_6
REMARK    6  A    between atoms: S_6  and  C_7
REMARK    7  A    between atoms: C_14  and  O_16
REMARK    8  A    between atoms: O_16  and  C_17
REMARK    9  A    between atoms: C_17  and  C_18
REMARK                            x       y       z     vdW  Elec       q    Type
REMARK                         _______ _______ _______ _____ _____    ______ ____
ROOT
ATOM      1  C   UNL     1       2.358   7.174  19.351  0.00  0.00    +0.000 A 
ATOM      2  C   UNL     1       2.353   7.900  18.160  0.00  0.00    +0.000 A 
ATOM      3  C   UNL     1       1.702   9.144  18.072  0.00  0.00    +0.000 A 
ATOM      4  C   UNL     1       1.031   9.677  19.198  0.00  0.00    +0.000 A 
ATOM      5  N   UNL     1       0.323  10.879  19.271  0.00  0.00    +0.000 NA
ATOM      6  C   UNL     1      -0.129  11.061  20.491  0.00  0.00    +0.000 A 
ATOM      7  N   UNL     1      -0.885  12.153  20.867  0.00  0.00    +0.000 N 
ATOM      8  C   UNL     1      -1.078  12.570  22.163  0.00  0.00    +0.000 C 
ATOM      9  O   UNL     1      -0.651  12.057  23.171  0.00  0.00    +0.000 OA
ATOM     10  S   UNL     1       0.201   9.795  21.588  0.00  0.00    +0.000 S 
ATOM     11  C   UNL     1       1.054   8.935  20.376  0.00  0.00    +0.000 A 
ATOM     12  C   UNL     1       1.703   7.686  20.476  0.00  0.00    +0.000 A 
ATOM     13  H   UNL     1      -1.283  12.705  20.121  0.00  0.00    +0.000 HD
ENDROOT
BRANCH   1  14
ATOM     14  S   UNL     1       3.183   5.593  19.488  0.00  0.00    +0.000 S 
BRANCH  14  15
ATOM     15  C   UNL     1       2.288   4.866  20.910  0.00  0.00    +0.000 C 
BRANCH  15  16
ATOM     16  C   UNL     1       1.035   4.139  20.416  0.00  0.00    +0.000 C 
BRANCH  16  17
ATOM     17  C   UNL     1       1.318   2.662  20.122  0.00  0.00    +0.000 C 
BRANCH  17  19
ATOM     18  C   UNL     1       2.385   2.201  17.884  0.00  0.00    +0.000 C 
ATOM     19  C   UNL     1       1.076   2.329  18.647  0.00  0.00    +0.000 C 
ENDBRANCH  17  19
ENDBRANCH  16  17
ENDBRANCH  15  16
ENDBRANCH  14  15
ENDBRANCH   1  14
BRANCH   8  20
ATOM     20  O   UNL     1      -1.911  13.658  22.181  0.00  0.00    +0.000 OA
BRANCH  20  21
ATOM     21  C   UNL     1      -2.837  13.624  23.282  0.00  0.00    +0.000 C 
ATOM     22  C   UNL     1      -4.092  12.884  22.868  0.00  0.00    +0.000 C 
ENDBRANCH  20  21
ENDBRANCH   8  20
TORSDOF 7
ENDMDL
MODEL 9
REMARK VINA RESULT:      -6.3      4.845      8.519
REMARK  Name = 
REMARK  9 active torsions:
REMARK  status: ('A' for Active; 'I' for Inactive)
REMARK    1  A    between atoms: C_1  and  C_2
REMARK    2  A    between atoms: C_2  and  C_3
REMARK    3  A    between atoms: C_3  and  C_4
REMARK    4  A    between atoms: C_4  and  C_5
REMARK    5  A    between atoms: C_5  and  S_6
REMARK    6  A    between atoms: S_6  and  C_7
REMARK    7  A    between atoms: C_14  and  O_16
REMARK    8  A    between atoms: O_16  and  C_17
REMARK    9  A    between atoms: C_17  and  C_18
REMARK                            x       y       z     vdW  Elec       q    Type
REMARK                         _______ _______ _______ _____ _____    ______ ____
ROOT
ATOM      1  C   UNL     1       1.638   7.085  20.525  0.00  0.00    +0.000 A 
ATOM      2  C   UNL     1       1.552   5.732  20.856  0.00  0.00    +0.000 A 
ATOM      3  C   UNL     1       2.279   4.764  20.140  0.00  0.00    +0.000 A 
ATOM      4  C   UNL     1       3.108   5.150  19.061  0.00  0.00    +0.000 A 
ATOM      5  N   UNL     1       3.874   4.317  18.241  0.00  0.00    +0.000 NA
ATOM      6  C   UNL     1       4.546   5.038  17.372  0.00  0.00    +0.000 A 
ATOM      7  N   UNL     1       5.377   4.493  16.413  0.00  0.00    +0.000 N 
ATOM      8  C   UNL     1       6.352   5.181  15.732  0.00  0.00    +0.000 C 
ATOM      9  O   UNL     1       6.632   6.354  15.833  0.00  0.00    +0.000 OA
ATOM     10  S   UNL     1       4.257   6.720  17.437  0.00  0.00    +0.000 S 
ATOM     11  C   UNL     1       3.180   6.507  18.753  0.00  0.00    +0.000 A 
ATOM     12  C   UNL     1       2.455   7.487  19.463  0.00  0.00    +0.000 A 
ATOM     13  H   UNL     1       5.280   3.502  16.241  0.00  0.00    +0.000 HD
ENDROOT
BRANCH   1  14
ATOM     14  S   UNL     1       0.727   8.334  21.424  0.00  0.00    +0.000 S 
BRANCH  14  15
ATOM     15  C   UNL     1       0.894   9.758  20.286  0.00  0.00    +0.000 C 
BRANCH  15  16
ATOM     16  C   UNL     1      -0.487  10.184  19.782  0.00  0.00    +0.000 C 
BRANCH  16  17
ATOM     17  C   UNL     1      -0.585  10.093  18.256  0.00  0.00    +0.000 C 
BRANCH  17  19
ATOM     18  C   UNL     1      -2.643   9.907  16.811  0.00  0.00    +0.000 C 
ATOM     19  C   UNL     1      -1.834  10.806  17.731  0.00  0.00    +0.000 C 
ENDBRANCH  17  19
ENDBRANCH  16  17
ENDBRANCH  15  16
ENDBRANCH  14  15
ENDBRANCH   1  14
BRANCH   8  20
ATOM     20  O   UNL     1       6.961   4.351  14.827  0.00  0.00    +0.000 OA
BRANCH  20  21
ATOM     21  C   UNL     1       6.014   3.607  14.039  0.00  0.00    +0.000 C 
ATOM     22  C   UNL     1       6.405   3.675  12.578  0.00  0.00    +0.000 C 
ENDBRANCH  20  21
ENDBRANCH   8  20
TORSDOF 7
ENDMDL
