MODEL 1
REMARK VINA RESULT:      -8.4      0.000      0.000
REMARK  Name = 
REMARK  11 active torsions:
REMARK  status: ('A' for Active; 'I' for Inactive)
REMARK    1  A    between atoms: C_1  and  C_2
REMARK    2  A    between atoms: C_2  and  O_3
REMARK    3  A    between atoms: O_3  and  C_4
REMARK    4  A    between atoms: C_7  and  C_8
REMARK    5  A    between atoms: N_10  and  C_11
REMARK    6  A    between atoms: C_14  and  S_15
REMARK    7  A    between atoms: S_15  and  N_18
REMARK    8  A    between atoms: C_23  and  C_24
REMARK    9  A    between atoms: C_29  and  O_30
REMARK   10  A    between atoms: O_30  and  C_31
REMARK   11  A    between atoms: C_31  and  C_32
REMARK                            x       y       z     vdW  Elec       q    Type
REMARK                         _______ _______ _______ _____ _____    ______ ____
ROOT
ATOM      1  C   UNL     1       0.481   9.247  21.298  0.00  0.00    +0.000 A 
ATOM      2  C   UNL     1       0.046   9.203  22.630  0.00  0.00    +0.000 A 
ATOM      3  C   UNL     1      -0.801  10.182  23.147  0.00  0.00    +0.000 A 
ATOM      4  C   UNL     1      -1.212  11.239  22.341  0.00  0.00    +0.000 A 
ATOM      5  C   UNL     1      -0.815  11.293  21.001  0.00  0.00    +0.000 A 
ATOM      6  C   UNL     1       0.045  10.304  20.489  0.00  0.00    +0.000 A 
ENDROOT
BRANCH   1   9
ATOM      7  C   UNL     1       1.778   8.241  19.433  0.00  0.00    +0.000 C 
ATOM      8  O   UNL     1       1.548   9.099  18.581  0.00  0.00    +0.000 OA
ATOM      9  N   UNL     1       1.345   8.266  20.749  0.00  0.00    +0.000 N 
ATOM     10  H   UNL     1       1.766   7.608  21.400  0.00  0.00    +0.000 HD
BRANCH   7  14
ATOM     11  C   UNL     1       4.346   5.088  18.045  0.00  0.00    +0.000 A 
ATOM     12  C   UNL     1       4.206   6.293  17.346  0.00  0.00    +0.000 A 
ATOM     13  C   UNL     1       3.382   7.301  17.832  0.00  0.00    +0.000 A 
ATOM     14  C   UNL     1       2.661   7.120  19.016  0.00  0.00    +0.000 A 
ATOM     15  C   UNL     1       2.722   5.889  19.675  0.00  0.00    +0.000 A 
ATOM     16  C   UNL     1       3.536   4.854  19.175  0.00  0.00    +0.000 A 
BRANCH  11  17
ATOM     17  O   UNL     1       5.265   4.142  17.663  0.00  0.00    +0.000 OA
BRANCH  17  19
ATOM     18  C   UNL     1       7.608   4.672  17.758  0.00  0.00    +0.000 C 
ATOM     19  C   UNL     1       6.368   4.626  16.887  0.00  0.00    +0.000 C 
ENDBRANCH  17  19
ENDBRANCH  11  17
BRANCH  16  20
ATOM     20  O   UNL     1       3.446   3.693  19.906  0.00  0.00    +0.000 OA
BRANCH  20  21
ATOM     21  C   UNL     1       2.132   3.183  20.154  0.00  0.00    +0.000 C 
ATOM     22  C   UNL     1       1.988   2.870  21.636  0.00  0.00    +0.000 C 
ENDBRANCH  20  21
ENDBRANCH  16  20
ENDBRANCH   7  14
ENDBRANCH   1   9
BRANCH   4  23
ATOM     23  S   UNL     1      -2.332  12.439  23.018  0.00  0.00    +0.000 S 
ATOM     24  O   UNL     1      -3.278  11.709  23.840  0.00  0.00    +0.000 OA
ATOM     25  O   UNL     1      -1.560  13.521  23.591  0.00  0.00    +0.000 OA
BRANCH  23  26
ATOM     26  N   UNL     1      -3.206  12.975  21.699  0.00  0.00    +0.000 N 
ATOM     27  C   UNL     1      -4.554  13.226  21.947  0.00  0.00    +0.000 A 
ATOM     28  N   UNL     1      -4.881  14.401  22.489  0.00  0.00    +0.000 NA
ATOM     29  C   UNL     1      -6.205  14.618  22.604  0.00  0.00    +0.000 A 
ATOM     30  C   UNL     1      -7.165  13.704  22.229  0.00  0.00    +0.000 A 
ATOM     31  C   UNL     1      -6.701  12.514  21.699  0.00  0.00    +0.000 A 
ATOM     32  C   UNL     1      -7.649  11.428  21.290  0.00  0.00    +0.000 C 
ATOM     33  N   UNL     1      -5.384  12.272  21.522  0.00  0.00    +0.000 NA
ATOM     34  H   UNL     1      -3.098  12.317  20.935  0.00  0.00    +0.000 HD
ENDBRANCH  23  26
ENDBRANCH   4  23
TORSDOF 8
ENDMDL
MODEL 2
REMARK VINA RESULT:      -8.3      1.135      1.544
REMARK  Name = 
REMARK  11 active torsions:
REMARK  status: ('A' for Active; 'I' for Inactive)
REMARK    1  A    between atoms: C_1  and  C_2
REMARK    2  A    between atoms: C_2  and  O_3
REMARK    3  A    between atoms: O_3  and  C_4
REMARK    4  A    between atoms: C_7  and  C_8
REMARK    5  A    between atoms: N_10  and  C_11
REMARK    6  A    between atoms: C_14  and  S_15
REMARK    7  A    between atoms: S_15  and  N_18
REMARK    8  A    between atoms: C_23  and  C_24
REMARK    9  A    between atoms: C_29  and  O_30
REMARK   10  A    between atoms: O_30  and  C_31
REMARK   11  A    between atoms: C_31  and  C_32
REMARK                            x       y       z     vdW  Elec       q    Type
REMARK                         _______ _______ _______ _____ _____    ______ ____
ROOT
ATOM      1  C   UNL     1       0.882   8.960  20.622  0.00  0.00    +0.000 A 
ATOM      2  C   UNL     1       0.149   9.920  19.912  0.00  0.00    +0.000 A 
ATOM      3  C   UNL     1      -0.650  10.854  20.570  0.00  0.00    +0.000 A 
ATOM      4  C   UNL     1      -0.745  10.828  21.958  0.00  0.00    +0.000 A 
ATOM      5  C   UNL     1      -0.005   9.897  22.693  0.00  0.00    +0.000 A 
ATOM      6  C   UNL     1       0.795   8.954  22.020  0.00  0.00    +0.000 A 
ENDROOT
BRANCH   1   9
ATOM      7  C   UNL     1       2.120   8.072  18.660  0.00  0.00    +0.000 C 
ATOM      8  O   UNL     1       1.921   9.012  17.891  0.00  0.00    +0.000 OA
ATOM      9  N   UNL     1       1.699   7.997  19.977  0.00  0.00    +0.000 N 
ATOM     10  H   UNL     1       2.096   7.265  20.562  0.00  0.00    +0.000 HD
BRANCH   7  14
ATOM     11  C   UNL     1       4.617   4.983  17.021  0.00  0.00    +0.000 A 
ATOM     12  C   UNL     1       4.909   6.342  16.851  0.00  0.00    +0.000 A 
ATOM     13  C   UNL     1       4.091   7.317  17.410  0.00  0.00    +0.000 A 
ATOM     14  C   UNL     1       2.950   6.957  18.133  0.00  0.00    +0.000 A 
ATOM     15  C   UNL     1       2.599   5.608  18.234  0.00  0.00    +0.000 A 
ATOM     16  C   UNL     1       3.409   4.616  17.649  0.00  0.00    +0.000 A 
BRANCH  11  17
ATOM     17  O   UNL     1       5.487   4.007  16.605  0.00  0.00    +0.000 OA
BRANCH  17  19
ATOM     18  C   UNL     1       5.975   4.052  14.251  0.00  0.00    +0.000 C 
ATOM     19  C   UNL     1       6.464   4.415  15.640  0.00  0.00    +0.000 C 
ENDBRANCH  17  19
ENDBRANCH  11  17
BRANCH  16  20
ATOM     20  O   UNL     1       2.899   3.347  17.792  0.00  0.00    +0.000 OA
BRANCH  20  21
ATOM     21  C   UNL     1       2.741   2.858  19.127  0.00  0.00    +0.000 C 
ATOM     22  C   UNL     1       4.096   2.420  19.664  0.00  0.00    +0.000 C 
ENDBRANCH  20  21
ENDBRANCH  16  20
ENDBRANCH   7  14
ENDBRANCH   1   9
BRANCH   4  23
ATOM     23  S   UNL     1      -1.731  12.065  22.765  0.00  0.00    +0.000 S 
ATOM     24  O   UNL     1      -2.695  11.359  23.587  0.00  0.00    +0.000 OA
ATOM     25  O   UNL     1      -0.847  13.043  23.363  0.00  0.00    +0.000 OA
BRANCH  23  26
ATOM     26  N   UNL     1      -2.618  12.753  21.528  0.00  0.00    +0.000 N 
ATOM     27  C   UNL     1      -3.885  13.206  21.891  0.00  0.00    +0.000 A 
ATOM     28  N   UNL     1      -3.978  14.407  22.465  0.00  0.00    +0.000 NA
ATOM     29  C   UNL     1      -5.238  14.825  22.694  0.00  0.00    +0.000 A 
ATOM     30  C   UNL     1      -6.356  14.078  22.399  0.00  0.00    +0.000 A 
ATOM     31  C   UNL     1      -6.130  12.840  21.826  0.00  0.00    +0.000 A 
ATOM     32  C   UNL     1      -7.267  11.921  21.495  0.00  0.00    +0.000 C 
ATOM     33  N   UNL     1      -4.886  12.400  21.535  0.00  0.00    +0.000 NA
ATOM     34  H   UNL     1      -2.679  12.100  20.755  0.00  0.00    +0.000 HD
ENDBRANCH  23  26
ENDBRANCH   4  23
TORSDOF 8
ENDMDL
MODEL 3
REMARK VINA RESULT:      -8.2      0.711      1.148
REMARK  Name = 
REMARK  11 active torsions:
REMARK  status: ('A' for Active; 'I' for Inactive)
REMARK    1  A    between atoms: C_1  and  C_2
REMARK    2  A    between atoms: C_2  and  O_3
REMARK    3  A    between atoms: O_3  and  C_4
REMARK    4  A    between atoms: C_7  and  C_8
REMARK    5  A    between atoms: N_10  and  C_11
REMARK    6  A    between atoms: C_14  and  S_15
REMARK    7  A    between atoms: S_15  and  N_18
REMARK    8  A    between atoms: C_23  and  C_24
REMARK    9  A    between atoms: C_29  and  O_30
REMARK   10  A    between atoms: O_30  and  C_31
REMARK   11  A    between atoms: C_31  and  C_32
REMARK                            x       y       z     vdW  Elec       q    Type
REMARK                         _______ _______ _______ _____ _____    ______ ____
ROOT
ATOM      1  C   UNL     1       0.161   9.578  21.236  0.00  0.00    +0.000 A 
ATOM      2  C   UNL     1      -0.420  10.619  20.499  0.00  0.00    +0.000 A 
ATOM      3  C   UNL     1      -1.280  11.538  21.099  0.00  0.00    +0.000 A 
ATOM      4  C   UNL     1      -1.591  11.416  22.450  0.00  0.00    +0.000 A 
ATOM      5  C   UNL     1      -1.004  10.403  23.214  0.00  0.00    +0.000 A 
ATOM      6  C   UNL     1      -0.141   9.477  22.599  0.00  0.00    +0.000 A 
ENDROOT
BRANCH   1   9
ATOM      7  C   UNL     1       1.552   8.716  19.367  0.00  0.00    +0.000 C 
ATOM      8  O   UNL     1       1.398   9.656  18.589  0.00  0.00    +0.000 OA
ATOM      9  N   UNL     1       1.036   8.629  20.649  0.00  0.00    +0.000 N 
ATOM     10  H   UNL     1       1.399   7.900  21.259  0.00  0.00    +0.000 HD
BRANCH   7  14
ATOM     11  C   UNL     1       4.131   5.634  17.844  0.00  0.00    +0.000 A 
ATOM     12  C   UNL     1       4.068   6.905  17.260  0.00  0.00    +0.000 A 
ATOM     13  C   UNL     1       3.238   7.887  17.789  0.00  0.00    +0.000 A 
ATOM     14  C   UNL     1       2.434   7.613  18.899  0.00  0.00    +0.000 A 
ATOM     15  C   UNL     1       2.420   6.323  19.436  0.00  0.00    +0.000 A 
ATOM     16  C   UNL     1       3.241   5.316  18.890  0.00  0.00    +0.000 A 
BRANCH  11  17
ATOM     17  O   UNL     1       5.050   4.702  17.431  0.00  0.00    +0.000 OA
BRANCH  17  19
ATOM     18  C   UNL     1       5.991   3.726  15.445  0.00  0.00    +0.000 C 
ATOM     19  C   UNL     1       5.743   5.009  16.215  0.00  0.00    +0.000 C 
ENDBRANCH  17  19
ENDBRANCH  11  17
BRANCH  16  20
ATOM     20  O   UNL     1       3.072   4.093  19.495  0.00  0.00    +0.000 OA
BRANCH  20  21
ATOM     21  C   UNL     1       1.745   3.747  19.900  0.00  0.00    +0.000 C 
ATOM     22  C   UNL     1       1.785   3.173  21.309  0.00  0.00    +0.000 C 
ENDBRANCH  20  21
ENDBRANCH  16  20
ENDBRANCH   7  14
ENDBRANCH   1   9
BRANCH   4  23
ATOM     23  S   UNL     1      -2.648  12.635  23.191  0.00  0.00    +0.000 S 
ATOM     24  O   UNL     1      -3.622  11.913  23.987  0.00  0.00    +0.000 OA
ATOM     25  O   UNL     1      -1.822  13.651  23.806  0.00  0.00    +0.000 OA
BRANCH  23  26
ATOM     26  N   UNL     1      -3.504  13.272  21.906  0.00  0.00    +0.000 N 
ATOM     27  C   UNL     1      -4.891  13.213  22.033  0.00  0.00    +0.000 A 
ATOM     28  N   UNL     1      -5.493  14.164  22.749  0.00  0.00    +0.000 NA
ATOM     29  C   UNL     1      -6.838  14.105  22.743  0.00  0.00    +0.000 A 
ATOM     30  C   UNL     1      -7.558  13.133  22.084  0.00  0.00    +0.000 A 
ATOM     31  C   UNL     1      -6.820  12.190  21.393  0.00  0.00    +0.000 A 
ATOM     32  C   UNL     1      -7.490  11.062  20.669  0.00  0.00    +0.000 C 
ATOM     33  N   UNL     1      -5.471  12.237  21.333  0.00  0.00    +0.000 NA
ATOM     34  H   UNL     1      -3.203  12.824  21.047  0.00  0.00    +0.000 HD
ENDBRANCH  23  26
ENDBRANCH   4  23
TORSDOF 8
ENDMDL
MODEL 4
REMARK VINA RESULT:      -8.2      2.476      3.718
REMARK  Name = 
REMARK  11 active torsions:
REMARK  status: ('A' for Active; 'I' for Inactive)
REMARK    1  A    between atoms: C_1  and  C_2
REMARK    2  A    between atoms: C_2  and  O_3
REMARK    3  A    between atoms: O_3  and  C_4
REMARK    4  A    between atoms: C_7  and  C_8
REMARK    5  A    between atoms: N_10  and  C_11
REMARK    6  A    between atoms: C_14  and  S_15
REMARK    7  A    between atoms: S_15  and  N_18
REMARK    8  A    between atoms: C_23  and  C_24
REMARK    9  A    between atoms: C_29  and  O_30
REMARK   10  A    between atoms: O_30  and  C_31
REMARK   11  A    between atoms: C_31  and  C_32
REMARK                            x       y       z     vdW  Elec       q    Type
REMARK                         _______ _______ _______ _____ _____    ______ ____
ROOT
ATOM      1  C   UNL     1       0.839   9.698  18.455  0.00  0.00    +0.000 A 
ATOM      2  C   UNL     1       1.155  10.605  19.475  0.00  0.00    +0.000 A 
ATOM      3  C   UNL     1       0.210  11.511  19.958  0.00  0.00    +0.000 A 
ATOM      4  C   UNL     1      -1.067  11.537  19.408  0.00  0.00    +0.000 A 
ATOM      5  C   UNL     1      -1.417  10.625  18.407  0.00  0.00    +0.000 A 
ATOM      6  C   UNL     1      -0.456   9.719  17.922  0.00  0.00    +0.000 A 
ENDROOT
BRANCH   1   9
ATOM      7  C   UNL     1       2.283   7.686  18.645  0.00  0.00    +0.000 C 
ATOM      8  O   UNL     1       1.928   7.324  19.766  0.00  0.00    +0.000 OA
ATOM      9  N   UNL     1       1.781   8.770  17.945  0.00  0.00    +0.000 N 
ATOM     10  H   UNL     1       2.010   8.844  16.956  0.00  0.00    +0.000 HD
BRANCH   7  14
ATOM     11  C   UNL     1       5.101   5.047  16.759  0.00  0.00    +0.000 A 
ATOM     12  C   UNL     1       3.894   4.583  17.297  0.00  0.00    +0.000 A 
ATOM     13  C   UNL     1       2.995   5.465  17.883  0.00  0.00    +0.000 A 
ATOM     14  C   UNL     1       3.291   6.829  17.966  0.00  0.00    +0.000 A 
ATOM     15  C   UNL     1       4.529   7.291  17.514  0.00  0.00    +0.000 A 
ATOM     16  C   UNL     1       5.456   6.399  16.940  0.00  0.00    +0.000 A 
BRANCH  11  17
ATOM     17  O   UNL     1       5.932   4.219  16.046  0.00  0.00    +0.000 OA
BRANCH  17  19
ATOM     18  C   UNL     1       6.960   4.732  13.934  0.00  0.00    +0.000 C 
ATOM     19  C   UNL     1       5.722   4.199  14.629  0.00  0.00    +0.000 C 
ENDBRANCH  17  19
ENDBRANCH  11  17
BRANCH  16  20
ATOM     20  O   UNL     1       6.644   6.999  16.595  0.00  0.00    +0.000 OA
BRANCH  20  21
ATOM     21  C   UNL     1       7.632   7.121  17.622  0.00  0.00    +0.000 C 
ATOM     22  C   UNL     1       7.986   8.589  17.806  0.00  0.00    +0.000 C 
ENDBRANCH  20  21
ENDBRANCH  16  20
ENDBRANCH   7  14
ENDBRANCH   1   9
BRANCH   4  23
ATOM     23  S   UNL     1      -2.259  12.667  20.082  0.00  0.00    +0.000 S 
ATOM     24  O   UNL     1      -1.642  13.979  20.072  0.00  0.00    +0.000 OA
ATOM     25  O   UNL     1      -3.526  12.457  19.413  0.00  0.00    +0.000 OA
BRANCH  23  26
ATOM     26  N   UNL     1      -2.367  12.236  21.693  0.00  0.00    +0.000 N 
ATOM     27  C   UNL     1      -3.361  12.896  22.415  0.00  0.00    +0.000 A 
ATOM     28  N   UNL     1      -4.608  12.430  22.330  0.00  0.00    +0.000 NA
ATOM     29  C   UNL     1      -5.495  13.049  23.132  0.00  0.00    +0.000 A 
ATOM     30  C   UNL     1      -5.172  14.102  23.959  0.00  0.00    +0.000 A 
ATOM     31  C   UNL     1      -3.851  14.509  23.944  0.00  0.00    +0.000 A 
ATOM     32  C   UNL     1      -3.388  15.668  24.772  0.00  0.00    +0.000 C 
ATOM     33  N   UNL     1      -2.918  13.887  23.190  0.00  0.00    +0.000 NA
ATOM     34  H   UNL     1      -1.463  12.358  22.134  0.00  0.00    +0.000 HD
ENDBRANCH  23  26
ENDBRANCH   4  23
TORSDOF 8
ENDMDL
MODEL 5
REMARK VINA RESULT:      -8.2      7.525     11.349
REMARK  Name = 
REMARK  11 active torsions:
REMARK  status: ('A' for Active; 'I' for Inactive)
REMARK    1  A    between atoms: C_1  and  C_2
REMARK    2  A    between atoms: C_2  and  O_3
REMARK    3  A    between atoms: O_3  and  C_4
REMARK    4  A    between atoms: C_7  and  C_8
REMARK    5  A    between atoms: N_10  and  C_11
REMARK    6  A    between atoms: C_14  and  S_15
REMARK    7  A    between atoms: S_15  and  N_18
REMARK    8  A    between atoms: C_23  and  C_24
REMARK    9  A    between atoms: C_29  and  O_30
REMARK   10  A    between atoms: O_30  and  C_31
REMARK   11  A    between atoms: C_31  and  C_32
REMARK                            x       y       z     vdW  Elec       q    Type
REMARK                         _______ _______ _______ _____ _____    ______ ____
ROOT
ATOM      1  C   UNL     1       8.000   8.544  17.914  0.00  0.00    +0.000 A 
ATOM      2  C   UNL     1       6.825   8.383  17.166  0.00  0.00    +0.000 A 
ATOM      3  C   UNL     1       6.109   7.187  17.191  0.00  0.00    +0.000 A 
ATOM      4  C   UNL     1       6.572   6.119  17.953  0.00  0.00    +0.000 A 
ATOM      5  C   UNL     1       7.727   6.261  18.728  0.00  0.00    +0.000 A 
ATOM      6  C   UNL     1       8.446   7.470  18.693  0.00  0.00    +0.000 A 
ENDROOT
BRANCH   1   9
ATOM      7  C   UNL     1       9.192  10.414  19.033  0.00  0.00    +0.000 C 
ATOM      8  O   UNL     1       9.076  10.022  20.194  0.00  0.00    +0.000 OA
ATOM      9  N   UNL     1       8.748   9.748  17.903  0.00  0.00    +0.000 N 
ATOM     10  H   UNL     1       9.080  10.075  16.998  0.00  0.00    +0.000 HD
BRANCH   7  14
ATOM     11  C   UNL     1      11.432  14.007  18.306  0.00  0.00    +0.000 A 
ATOM     12  C   UNL     1      11.263  13.026  17.322  0.00  0.00    +0.000 A 
ATOM     13  C   UNL     1      10.516  11.884  17.582  0.00  0.00    +0.000 A 
ATOM     14  C   UNL     1       9.940  11.684  18.840  0.00  0.00    +0.000 A 
ATOM     15  C   UNL     1      10.176  12.612  19.858  0.00  0.00    +0.000 A 
ATOM     16  C   UNL     1      10.953  13.761  19.608  0.00  0.00    +0.000 A 
BRANCH  11  17
ATOM     17  O   UNL     1      12.038  15.207  18.024  0.00  0.00    +0.000 OA
BRANCH  17  19
ATOM     18  C   UNL     1      11.474  17.462  17.409  0.00  0.00    +0.000 C 
ATOM     19  C   UNL     1      11.404  16.000  17.013  0.00  0.00    +0.000 C 
ENDBRANCH  17  19
ENDBRANCH  11  17
BRANCH  16  20
ATOM     20  O   UNL     1      11.135  14.545  20.723  0.00  0.00    +0.000 OA
BRANCH  20  21
ATOM     21  C   UNL     1      10.060  15.416  21.086  0.00  0.00    +0.000 C 
ATOM     22  C   UNL     1       9.571  15.054  22.481  0.00  0.00    +0.000 C 
ENDBRANCH  20  21
ENDBRANCH  16  20
ENDBRANCH   7  14
ENDBRANCH   1   9
BRANCH   4  23
ATOM     23  S   UNL     1       5.607   4.629  18.001  0.00  0.00    +0.000 S 
ATOM     24  O   UNL     1       5.989   3.847  16.842  0.00  0.00    +0.000 OA
ATOM     25  O   UNL     1       5.708   4.056  19.327  0.00  0.00    +0.000 OA
BRANCH  23  26
ATOM     26  N   UNL     1       4.046   5.142  17.701  0.00  0.00    +0.000 N 
ATOM     27  C   UNL     1       3.112   4.794  18.676  0.00  0.00    +0.000 A 
ATOM     28  N   UNL     1       3.028   5.563  19.763  0.00  0.00    +0.000 NA
ATOM     29  C   UNL     1       2.038   5.231  20.612  0.00  0.00    +0.000 A 
ATOM     30  C   UNL     1       1.186   4.167  20.414  0.00  0.00    +0.000 A 
ATOM     31  C   UNL     1       1.386   3.431  19.261  0.00  0.00    +0.000 A 
ATOM     32  C   UNL     1       0.547   2.228  18.955  0.00  0.00    +0.000 C 
ATOM     33  N   UNL     1       2.338   3.756  18.358  0.00  0.00    +0.000 NA
ATOM     34  H   UNL     1       3.753   4.809  16.790  0.00  0.00    +0.000 HD
ENDBRANCH  23  26
ENDBRANCH   4  23
TORSDOF 8
ENDMDL
MODEL 6
REMARK VINA RESULT:      -8.1      2.386      3.359
REMARK  Name = 
REMARK  11 active torsions:
REMARK  status: ('A' for Active; 'I' for Inactive)
REMARK    1  A    between atoms: C_1  and  C_2
REMARK    2  A    between atoms: C_2  and  O_3
REMARK    3  A    between atoms: O_3  and  C_4
REMARK    4  A    between atoms: C_7  and  C_8
REMARK    5  A    between atoms: N_10  and  C_11
REMARK    6  A    between atoms: C_14  and  S_15
REMARK    7  A    between atoms: S_15  and  N_18
REMARK    8  A    between atoms: C_23  and  C_24
REMARK    9  A    between atoms: C_29  and  O_30
REMARK   10  A    between atoms: O_30  and  C_31
REMARK   11  A    between atoms: C_31  and  C_32
REMARK                            x       y       z     vdW  Elec       q    Type
REMARK                         _______ _______ _______ _____ _____    ______ ____
ROOT
ATOM      1  C   UNL     1       0.612   9.860  18.528  0.00  0.00    +0.000 A 
ATOM      2  C   UNL     1      -0.710   9.906  18.067  0.00  0.00    +0.000 A 
ATOM      3  C   UNL     1      -1.631  10.809  18.596  0.00  0.00    +0.000 A 
ATOM      4  C   UNL     1      -1.246  11.671  19.618  0.00  0.00    +0.000 A 
ATOM      5  C   UNL     1       0.074  11.664  20.079  0.00  0.00    +0.000 A 
ATOM      6  C   UNL     1       0.995  10.746  19.543  0.00  0.00    +0.000 A 
ENDROOT
BRANCH   1   9
ATOM      7  C   UNL     1       2.109   7.885  18.711  0.00  0.00    +0.000 C 
ATOM      8  O   UNL     1       1.785   7.528  19.843  0.00  0.00    +0.000 OA
ATOM      9  N   UNL     1       1.567   8.949  18.009  0.00  0.00    +0.000 N 
ATOM     10  H   UNL     1       1.774   9.017  17.016  0.00  0.00    +0.000 HD
BRANCH   7  14
ATOM     11  C   UNL     1       4.950   5.293  16.795  0.00  0.00    +0.000 A 
ATOM     12  C   UNL     1       3.757   4.809  17.346  0.00  0.00    +0.000 A 
ATOM     13  C   UNL     1       2.850   5.677  17.942  0.00  0.00    +0.000 A 
ATOM     14  C   UNL     1       3.123   7.045  18.022  0.00  0.00    +0.000 A 
ATOM     15  C   UNL     1       4.349   7.528  17.557  0.00  0.00    +0.000 A 
ATOM     16  C   UNL     1       5.285   6.651  16.973  0.00  0.00    +0.000 A 
BRANCH  11  17
ATOM     17  O   UNL     1       5.787   4.479  16.073  0.00  0.00    +0.000 OA
BRANCH  17  19
ATOM     18  C   UNL     1       6.516   4.216  13.797  0.00  0.00    +0.000 C 
ATOM     19  C   UNL     1       5.341   4.144  14.753  0.00  0.00    +0.000 C 
ENDBRANCH  17  19
ENDBRANCH  11  17
BRANCH  16  20
ATOM     20  O   UNL     1       6.459   7.271  16.616  0.00  0.00    +0.000 OA
BRANCH  20  21
ATOM     21  C   UNL     1       7.515   7.265  17.580  0.00  0.00    +0.000 C 
ATOM     22  C   UNL     1       7.994   8.691  17.808  0.00  0.00    +0.000 C 
ENDBRANCH  20  21
ENDBRANCH  16  20
ENDBRANCH   7  14
ENDBRANCH   1   9
BRANCH   4  23
ATOM     23  S   UNL     1      -2.431  12.842  20.232  0.00  0.00    +0.000 S 
ATOM     24  O   UNL     1      -2.935  12.309  21.483  0.00  0.00    +0.000 OA
ATOM     25  O   UNL     1      -1.838  14.162  20.195  0.00  0.00    +0.000 OA
BRANCH  23  26
ATOM     26  N   UNL     1      -3.704  12.740  19.156  0.00  0.00    +0.000 N 
ATOM     27  C   UNL     1      -4.971  12.826  19.731  0.00  0.00    +0.000 A 
ATOM     28  N   UNL     1      -5.453  14.040  20.000  0.00  0.00    +0.000 NA
ATOM     29  C   UNL     1      -6.721  14.054  20.456  0.00  0.00    +0.000 A 
ATOM     30  C   UNL     1      -7.469  12.917  20.667  0.00  0.00    +0.000 A 
ATOM     31  C   UNL     1      -6.852  11.716  20.370  0.00  0.00    +0.000 A 
ATOM     32  C   UNL     1      -7.553  10.410  20.594  0.00  0.00    +0.000 C 
ATOM     33  N   UNL     1      -5.599  11.657  19.867  0.00  0.00    +0.000 NA
ATOM     34  H   UNL     1      -3.615  11.890  18.610  0.00  0.00    +0.000 HD
ENDBRANCH  23  26
ENDBRANCH   4  23
TORSDOF 8
ENDMDL
MODEL 7
REMARK VINA RESULT:      -8.1      4.157     10.519
REMARK  Name = 
REMARK  11 active torsions:
REMARK  status: ('A' for Active; 'I' for Inactive)
REMARK    1  A    between atoms: C_1  and  C_2
REMARK    2  A    between atoms: C_2  and  O_3
REMARK    3  A    between atoms: O_3  and  C_4
REMARK    4  A    between atoms: C_7  and  C_8
REMARK    5  A    between atoms: N_10  and  C_11
REMARK    6  A    between atoms: C_14  and  S_15
REMARK    7  A    between atoms: S_15  and  N_18
REMARK    8  A    between atoms: C_23  and  C_24
REMARK    9  A    between atoms: C_29  and  O_30
REMARK   10  A    between atoms: O_30  and  C_31
REMARK   11  A    between atoms: C_31  and  C_32
REMARK                            x       y       z     vdW  Elec       q    Type
REMARK                         _______ _______ _______ _____ _____    ______ ____
ROOT
ATOM      1  C   UNL     1       2.283   7.384  18.695  0.00  0.00    +0.000 A 
ATOM      2  C   UNL     1       2.678   6.668  19.833  0.00  0.00    +0.000 A 
ATOM      3  C   UNL     1       3.818   5.865  19.823  0.00  0.00    +0.000 A 
ATOM      4  C   UNL     1       4.573   5.748  18.660  0.00  0.00    +0.000 A 
ATOM      5  C   UNL     1       4.215   6.472  17.518  0.00  0.00    +0.000 A 
ATOM      6  C   UNL     1       3.061   7.276  17.535  0.00  0.00    +0.000 A 
ENDROOT
BRANCH   1   9
ATOM      7  C   UNL     1       1.095   9.518  18.240  0.00  0.00    +0.000 C 
ATOM      8  O   UNL     1       2.033  10.132  17.731  0.00  0.00    +0.000 OA
ATOM      9  N   UNL     1       1.127   8.205  18.678  0.00  0.00    +0.000 N 
ATOM     10  H   UNL     1       0.240   7.754  18.891  0.00  0.00    +0.000 HD
BRANCH   7  14
ATOM     11  C   UNL     1      -2.597  11.675  18.657  0.00  0.00    +0.000 A 
ATOM     12  C   UNL     1      -1.530  11.852  19.546  0.00  0.00    +0.000 A 
ATOM     13  C   UNL     1      -0.341  11.153  19.372  0.00  0.00    +0.000 A 
ATOM     14  C   UNL     1      -0.199  10.245  18.320  0.00  0.00    +0.000 A 
ATOM     15  C   UNL     1      -1.287   9.993  17.479  0.00  0.00    +0.000 A 
ATOM     16  C   UNL     1      -2.503  10.680  17.663  0.00  0.00    +0.000 A 
BRANCH  11  17
ATOM     17  O   UNL     1      -3.720  12.462  18.722  0.00  0.00    +0.000 OA
BRANCH  17  19
ATOM     18  C   UNL     1      -5.864  11.871  19.637  0.00  0.00    +0.000 C 
ATOM     19  C   UNL     1      -4.468  12.378  19.942  0.00  0.00    +0.000 C 
ENDBRANCH  17  19
ENDBRANCH  11  17
BRANCH  16  20
ATOM     20  O   UNL     1      -3.488  10.282  16.790  0.00  0.00    +0.000 OA
BRANCH  20  21
ATOM     21  C   UNL     1      -3.558  10.966  15.536  0.00  0.00    +0.000 C 
ATOM     22  C   UNL     1      -3.126  10.020  14.425  0.00  0.00    +0.000 C 
ENDBRANCH  20  21
ENDBRANCH  16  20
ENDBRANCH   7  14
ENDBRANCH   1   9
BRANCH   4  23
ATOM     23  S   UNL     1       6.046   4.757  18.699  0.00  0.00    +0.000 S 
ATOM     24  O   UNL     1       6.545   4.698  17.339  0.00  0.00    +0.000 OA
ATOM     25  O   UNL     1       6.900   5.241  19.763  0.00  0.00    +0.000 OA
BRANCH  23  26
ATOM     26  N   UNL     1       5.495   3.218  19.042  0.00  0.00    +0.000 N 
ATOM     27  C   UNL     1       4.124   3.032  18.879  0.00  0.00    +0.000 A 
ATOM     28  N   UNL     1       3.668   2.791  17.648  0.00  0.00    +0.000 NA
ATOM     29  C   UNL     1       2.351   2.518  17.579  0.00  0.00    +0.000 A 
ATOM     30  C   UNL     1       1.514   2.513  18.673  0.00  0.00    +0.000 A 
ATOM     31  C   UNL     1       2.100   2.799  19.892  0.00  0.00    +0.000 A 
ATOM     32  C   UNL     1       1.283   2.860  21.148  0.00  0.00    +0.000 C 
ATOM     33  N   UNL     1       3.425   3.032  20.015  0.00  0.00    +0.000 NA
ATOM     34  H   UNL     1       5.783   2.959  19.979  0.00  0.00    +0.000 HD
ENDBRANCH  23  26
ENDBRANCH   4  23
TORSDOF 8
ENDMDL
MODEL 8
REMARK VINA RESULT:      -8.1      1.095      1.231
REMARK  Name = 
REMARK  11 active torsions:
REMARK  status: ('A' for Active; 'I' for Inactive)
REMARK    1  A    between atoms: C_1  and  C_2
REMARK    2  A    between atoms: C_2  and  O_3
REMARK    3  A    between atoms: O_3  and  C_4
REMARK    4  A    between atoms: C_7  and  C_8
REMARK    5  A    between atoms: N_10  and  C_11
REMARK    6  A    between atoms: C_14  and  S_15
REMARK    7  A    between atoms: S_15  and  N_18
REMARK    8  A    between atoms: C_23  and  C_24
REMARK    9  A    between atoms: C_29  and  O_30
REMARK   10  A    between atoms: O_30  and  C_31
REMARK   11  A    between atoms: C_31  and  C_32
REMARK                            x       y       z     vdW  Elec       q    Type
REMARK                         _______ _______ _______ _____ _____    ______ ____
ROOT
ATOM      1  C   UNL     1       0.296   9.963  20.712  0.00  0.00    +0.000 A 
ATOM      2  C   UNL     1       0.197   9.903  22.108  0.00  0.00    +0.000 A 
ATOM      3  C   UNL     1      -0.675  10.735  22.809  0.00  0.00    +0.000 A 
ATOM      4  C   UNL     1      -1.451  11.662  22.119  0.00  0.00    +0.000 A 
ATOM      5  C   UNL     1      -1.390  11.725  20.723  0.00  0.00    +0.000 A 
ATOM      6  C   UNL     1      -0.503  10.885  20.025  0.00  0.00    +0.000 A 
ENDROOT
BRANCH   1   9
ATOM      7  C   UNL     1       1.520   7.835  20.328  0.00  0.00    +0.000 C 
ATOM      8  O   UNL     1       1.053   7.195  21.270  0.00  0.00    +0.000 OA
ATOM      9  N   UNL     1       1.177   9.130  19.977  0.00  0.00    +0.000 N 
ATOM     10  H   UNL     1       1.481   9.471  19.068  0.00  0.00    +0.000 HD
BRANCH   7  14
ATOM     11  C   UNL     1       4.266   5.879  17.664  0.00  0.00    +0.000 A 
ATOM     12  C   UNL     1       3.751   7.153  17.396  0.00  0.00    +0.000 A 
ATOM     13  C   UNL     1       2.880   7.767  18.288  0.00  0.00    +0.000 A 
ATOM     14  C   UNL     1       2.484   7.112  19.457  0.00  0.00    +0.000 A 
ATOM     15  C   UNL     1       2.920   5.805  19.693  0.00  0.00    +0.000 A 
ATOM     16  C   UNL     1       3.784   5.168  18.782  0.00  0.00    +0.000 A 
BRANCH  11  17
ATOM     17  O   UNL     1       5.240   5.320  16.875  0.00  0.00    +0.000 OA
BRANCH  17  19
ATOM     18  C   UNL     1       7.295   6.022  17.907  0.00  0.00    +0.000 C 
ATOM     19  C   UNL     1       6.413   6.118  16.677  0.00  0.00    +0.000 C 
ENDBRANCH  17  19
ENDBRANCH  11  17
BRANCH  16  20
ATOM     20  O   UNL     1       4.077   3.870  19.130  0.00  0.00    +0.000 OA
BRANCH  20  21
ATOM     21  C   UNL     1       2.986   2.947  19.170  0.00  0.00    +0.000 C 
ATOM     22  C   UNL     1       2.614   2.550  17.749  0.00  0.00    +0.000 C 
ENDBRANCH  20  21
ENDBRANCH  16  20
ENDBRANCH   7  14
ENDBRANCH   1   9
BRANCH   4  23
ATOM     23  S   UNL     1      -2.587  12.670  23.038  0.00  0.00    +0.000 S 
ATOM     24  O   UNL     1      -3.436  11.765  23.788  0.00  0.00    +0.000 OA
ATOM     25  O   UNL     1      -1.839  13.700  23.728  0.00  0.00    +0.000 OA
BRANCH  23  26
ATOM     26  N   UNL     1      -3.574  13.345  21.871  0.00  0.00    +0.000 N 
ATOM     27  C   UNL     1      -4.941  13.228  22.115  0.00  0.00    +0.000 A 
ATOM     28  N   UNL     1      -5.507  14.116  22.934  0.00  0.00    +0.000 NA
ATOM     29  C   UNL     1      -6.845  14.009  23.043  0.00  0.00    +0.000 A 
ATOM     30  C   UNL     1      -7.589  13.048  22.395  0.00  0.00    +0.000 A 
ATOM     31  C   UNL     1      -6.887  12.171  21.590  0.00  0.00    +0.000 A 
ATOM     32  C   UNL     1      -7.583  11.060  20.864  0.00  0.00    +0.000 C 
ATOM     33  N   UNL     1      -5.551  12.271  21.415  0.00  0.00    +0.000 NA
ATOM     34  H   UNL     1      -3.337  12.955  20.965  0.00  0.00    +0.000 HD
ENDBRANCH  23  26
ENDBRANCH   4  23
TORSDOF 8
ENDMDL
MODEL 9
REMARK VINA RESULT:      -8.0      0.949      2.405
REMARK  Name = 
REMARK  11 active torsions:
REMARK  status: ('A' for Active; 'I' for Inactive)
REMARK    1  A    between atoms: C_1  and  C_2
REMARK    2  A    between atoms: C_2  and  O_3
REMARK    3  A    between atoms: O_3  and  C_4
REMARK    4  A    between atoms: C_7  and  C_8
REMARK    5  A    between atoms: N_10  and  C_11
REMARK    6  A    between atoms: C_14  and  S_15
REMARK    7  A    between atoms: S_15  and  N_18
REMARK    8  A    between atoms: C_23  and  C_24
REMARK    9  A    between atoms: C_29  and  O_30
REMARK   10  A    between atoms: O_30  and  C_31
REMARK   11  A    between atoms: C_31  and  C_32
REMARK                            x       y       z     vdW  Elec       q    Type
REMARK                         _______ _______ _______ _____ _____    ______ ____
ROOT
ATOM      1  C   UNL     1       0.147   9.321  21.419  0.00  0.00    +0.000 A 
ATOM      2  C   UNL     1      -0.179   9.401  22.780  0.00  0.00    +0.000 A 
ATOM      3  C   UNL     1      -0.989  10.424  23.272  0.00  0.00    +0.000 A 
ATOM      4  C   UNL     1      -1.471  11.401  22.407  0.00  0.00    +0.000 A 
ATOM      5  C   UNL     1      -1.183  11.331  21.041  0.00  0.00    +0.000 A 
ATOM      6  C   UNL     1      -0.360  10.298  20.554  0.00  0.00    +0.000 A 
ENDROOT
BRANCH   1   9
ATOM      7  C   UNL     1       1.588   8.329  19.655  0.00  0.00    +0.000 C 
ATOM      8  O   UNL     1       1.581   9.279  18.872  0.00  0.00    +0.000 OA
ATOM      9  N   UNL     1       0.971   8.293  20.894  0.00  0.00    +0.000 N 
ATOM     10  H   UNL     1       1.217   7.535  21.526  0.00  0.00    +0.000 HD
BRANCH   7  14
ATOM     11  C   UNL     1       3.911   4.851  18.671  0.00  0.00    +0.000 A 
ATOM     12  C   UNL     1       3.197   4.952  19.871  0.00  0.00    +0.000 A 
ATOM     13  C   UNL     1       2.439   6.082  20.151  0.00  0.00    +0.000 A 
ATOM     14  C   UNL     1       2.395   7.149  19.248  0.00  0.00    +0.000 A 
ATOM     15  C   UNL     1       3.174   7.099  18.089  0.00  0.00    +0.000 A 
ATOM     16  C   UNL     1       3.963   5.966  17.810  0.00  0.00    +0.000 A 
BRANCH  11  17
ATOM     17  O   UNL     1       4.542   3.687  18.309  0.00  0.00    +0.000 OA
BRANCH  17  19
ATOM     18  C   UNL     1       3.424   1.560  18.398  0.00  0.00    +0.000 C 
ATOM     19  C   UNL     1       4.287   2.555  19.149  0.00  0.00    +0.000 C 
ENDBRANCH  17  19
ENDBRANCH  11  17
BRANCH  16  20
ATOM     20  O   UNL     1       4.708   6.095  16.661  0.00  0.00    +0.000 OA
BRANCH  20  21
ATOM     21  C   UNL     1       6.084   6.453  16.817  0.00  0.00    +0.000 C 
ATOM     22  C   UNL     1       6.958   5.329  16.279  0.00  0.00    +0.000 C 
ENDBRANCH  20  21
ENDBRANCH  16  20
ENDBRANCH   7  14
ENDBRANCH   1   9
BRANCH   4  23
ATOM     23  S   UNL     1      -2.541  12.659  23.059  0.00  0.00    +0.000 S 
ATOM     24  O   UNL     1      -3.513  11.986  23.898  0.00  0.00    +0.000 OA
ATOM     25  O   UNL     1      -1.725  13.722  23.606  0.00  0.00    +0.000 OA
BRANCH  23  26
ATOM     26  N   UNL     1      -3.396  13.200  21.729  0.00  0.00    +0.000 N 
ATOM     27  C   UNL     1      -4.778  13.253  21.898  0.00  0.00    +0.000 A 
ATOM     28  N   UNL     1      -5.292  14.320  22.512  0.00  0.00    +0.000 NA
ATOM     29  C   UNL     1      -6.638  14.355  22.548  0.00  0.00    +0.000 A 
ATOM     30  C   UNL     1      -7.442  13.364  22.027  0.00  0.00    +0.000 A 
ATOM     31  C   UNL     1      -6.792  12.298  21.435  0.00  0.00    +0.000 A 
ATOM     32  C   UNL     1      -7.558  11.143  20.867  0.00  0.00    +0.000 C 
ATOM     33  N   UNL     1      -5.445  12.244  21.335  0.00  0.00    +0.000 NA
ATOM     34  H   UNL     1      -3.154  12.635  20.923  0.00  0.00    +0.000 HD
ENDBRANCH  23  26
ENDBRANCH   4  23
TORSDOF 8
ENDMDL
