MODEL 1
REMARK VINA RESULT:      -5.9      0.000      0.000
REMARK  Name = 
REMARK  7 active torsions:
REMARK  status: ('A' for Active; 'I' for Inactive)
REMARK    1  A    between atoms: C_1  and  O_2
REMARK    2  A    between atoms: O_2  and  N_3
REMARK    3  A    between atoms: N_3  and  C_4
REMARK    4  A    between atoms: C_5  and  C_7
REMARK    5  A    between atoms: C_11  and  N_12
REMARK    6  A    between atoms: N_12  and  C_13
REMARK    7  A    between atoms: N_12  and  C_14
REMARK                            x       y       z     vdW  Elec       q    Type
REMARK                         _______ _______ _______ _____ _____    ______ ____
ROOT
ATOM      1  C   UNL     1       4.928   4.281  17.999  0.00  0.00    +0.000 A 
ATOM      2  C   UNL     1       4.308   3.452  17.063  0.00  0.00    +0.000 A 
ATOM      3  C   UNL     1       3.078   2.882  17.370  0.00  0.00    +0.000 A 
ATOM      4  C   UNL     1       2.481   3.137  18.611  0.00  0.00    +0.000 A 
ATOM      5  C   UNL     1       3.063   3.985  19.570  0.00  0.00    +0.000 A 
ATOM      6  C   UNL     1       4.278   4.579  19.211  0.00  0.00    +0.000 A 
ENDROOT
BRANCH   1   9
ATOM      7  N   UNL     1       6.323   5.854  16.690  0.00  0.00    +0.000 N 
ATOM      8  C   UNL     1       5.320   6.908  16.589  0.00  0.00    +0.000 C 
ATOM      9  C   UNL     1       6.263   4.851  17.674  0.00  0.00    +0.000 C 
ATOM     10  O   UNL     1       7.242   4.403  18.270  0.00  0.00    +0.000 OA
BRANCH   7  12
ATOM     11  C   UNL     1       7.568   7.644  17.450  0.00  0.00    +0.000 C 
ATOM     12  O   UNL     1       7.621   6.448  16.677  0.00  0.00    +0.000 OA
ENDBRANCH   7  12
ENDBRANCH   1   9
BRANCH   5  13
ATOM     13  N   UNL     1       2.425   4.241  20.782  0.00  0.00    +0.000 N 
ATOM     14  C   UNL     1       1.956   3.142  21.625  0.00  0.00    +0.000 C 
ATOM     15  C   UNL     1       1.621   5.459  20.882  0.00  0.00    +0.000 C 
ENDBRANCH   5  13
TORSDOF 3
ENDMDL
MODEL 2
REMARK VINA RESULT:      -5.9      2.207      3.056
REMARK  Name = 
REMARK  7 active torsions:
REMARK  status: ('A' for Active; 'I' for Inactive)
REMARK    1  A    between atoms: C_1  and  O_2
REMARK    2  A    between atoms: O_2  and  N_3
REMARK    3  A    between atoms: N_3  and  C_4
REMARK    4  A    between atoms: C_5  and  C_7
REMARK    5  A    between atoms: C_11  and  N_12
REMARK    6  A    between atoms: N_12  and  C_13
REMARK    7  A    between atoms: N_12  and  C_14
REMARK                            x       y       z     vdW  Elec       q    Type
REMARK                         _______ _______ _______ _____ _____    ______ ____
ROOT
ATOM      1  C   UNL     1       4.882   5.588  16.957  0.00  0.00    +0.000 A 
ATOM      2  C   UNL     1       4.168   6.714  17.368  0.00  0.00    +0.000 A 
ATOM      3  C   UNL     1       2.918   6.552  17.952  0.00  0.00    +0.000 A 
ATOM      4  C   UNL     1       2.386   5.266  18.115  0.00  0.00    +0.000 A 
ATOM      5  C   UNL     1       3.084   4.105  17.737  0.00  0.00    +0.000 A 
ATOM      6  C   UNL     1       4.359   4.302  17.194  0.00  0.00    +0.000 A 
ENDROOT
BRANCH   1   9
ATOM      7  N   UNL     1       6.574   4.853  15.306  0.00  0.00    +0.000 N 
ATOM      8  C   UNL     1       5.626   4.329  14.330  0.00  0.00    +0.000 C 
ATOM      9  C   UNL     1       6.200   5.779  16.296  0.00  0.00    +0.000 C 
ATOM     10  O   UNL     1       6.898   6.724  16.661  0.00  0.00    +0.000 OA
BRANCH   7  12
ATOM     11  C   UNL     1       7.576   5.023  13.233  0.00  0.00    +0.000 C 
ATOM     12  O   UNL     1       7.737   5.316  14.618  0.00  0.00    +0.000 OA
ENDBRANCH   7  12
ENDBRANCH   1   9
BRANCH   5  13
ATOM     13  N   UNL     1       2.537   2.841  17.943  0.00  0.00    +0.000 N 
ATOM     14  C   UNL     1       1.229   2.689  18.579  0.00  0.00    +0.000 C 
ATOM     15  C   UNL     1       3.461   1.735  18.197  0.00  0.00    +0.000 C 
ENDBRANCH   5  13
TORSDOF 3
ENDMDL
MODEL 3
REMARK VINA RESULT:      -5.9      1.416      1.709
REMARK  Name = 
REMARK  7 active torsions:
REMARK  status: ('A' for Active; 'I' for Inactive)
REMARK    1  A    between atoms: C_1  and  O_2
REMARK    2  A    between atoms: O_2  and  N_3
REMARK    3  A    between atoms: N_3  and  C_4
REMARK    4  A    between atoms: C_5  and  C_7
REMARK    5  A    between atoms: C_11  and  N_12
REMARK    6  A    between atoms: N_12  and  C_13
REMARK    7  A    between atoms: N_12  and  C_14
REMARK                            x       y       z     vdW  Elec       q    Type
REMARK                         _______ _______ _______ _____ _____    ______ ____
ROOT
ATOM      1  C   UNL     1       4.568   5.356  17.335  0.00  0.00    +0.000 A 
ATOM      2  C   UNL     1       4.482   4.109  16.716  0.00  0.00    +0.000 A 
ATOM      3  C   UNL     1       3.612   3.154  17.228  0.00  0.00    +0.000 A 
ATOM      4  C   UNL     1       2.840   3.448  18.359  0.00  0.00    +0.000 A 
ATOM      5  C   UNL     1       2.881   4.701  18.997  0.00  0.00    +0.000 A 
ATOM      6  C   UNL     1       3.733   5.655  18.428  0.00  0.00    +0.000 A 
ENDROOT
BRANCH   1   9
ATOM      7  N   UNL     1       6.592   6.750  17.639  0.00  0.00    +0.000 N 
ATOM      8  C   UNL     1       7.307   5.808  18.492  0.00  0.00    +0.000 C 
ATOM      9  C   UNL     1       5.534   6.354  16.802  0.00  0.00    +0.000 C 
ATOM     10  O   UNL     1       5.345   6.790  15.667  0.00  0.00    +0.000 OA
BRANCH   7  12
ATOM     11  C   UNL     1       7.979   8.595  17.716  0.00  0.00    +0.000 C 
ATOM     12  O   UNL     1       7.542   7.514  16.896  0.00  0.00    +0.000 OA
ENDBRANCH   7  12
ENDBRANCH   1   9
BRANCH   5  13
ATOM     13  N   UNL     1       2.075   4.969  20.101  0.00  0.00    +0.000 N 
ATOM     14  C   UNL     1       0.976   4.074  20.457  0.00  0.00    +0.000 C 
ATOM     15  C   UNL     1       1.845   6.372  20.449  0.00  0.00    +0.000 C 
ENDBRANCH   5  13
TORSDOF 3
ENDMDL
MODEL 4
REMARK VINA RESULT:      -5.9      1.838      2.626
REMARK  Name = 
REMARK  7 active torsions:
REMARK  status: ('A' for Active; 'I' for Inactive)
REMARK    1  A    between atoms: C_1  and  O_2
REMARK    2  A    between atoms: O_2  and  N_3
REMARK    3  A    between atoms: N_3  and  C_4
REMARK    4  A    between atoms: C_5  and  C_7
REMARK    5  A    between atoms: C_11  and  N_12
REMARK    6  A    between atoms: N_12  and  C_13
REMARK    7  A    between atoms: N_12  and  C_14
REMARK                            x       y       z     vdW  Elec       q    Type
REMARK                         _______ _______ _______ _____ _____    ______ ____
ROOT
ATOM      1  C   UNL     1       4.873   6.237  17.645  0.00  0.00    +0.000 A 
ATOM      2  C   UNL     1       3.928   7.243  17.441  0.00  0.00    +0.000 A 
ATOM      3  C   UNL     1       2.738   7.213  18.159  0.00  0.00    +0.000 A 
ATOM      4  C   UNL     1       2.498   6.176  19.069  0.00  0.00    +0.000 A 
ATOM      5  C   UNL     1       3.435   5.158  19.320  0.00  0.00    +0.000 A 
ATOM      6  C   UNL     1       4.641   5.243  18.614  0.00  0.00    +0.000 A 
ENDROOT
BRANCH   1   9
ATOM      7  N   UNL     1       6.450   5.100  16.111  0.00  0.00    +0.000 N 
ATOM      8  C   UNL     1       5.445   4.314  15.405  0.00  0.00    +0.000 C 
ATOM      9  C   UNL     1       6.123   6.258  16.840  0.00  0.00    +0.000 C 
ATOM     10  O   UNL     1       6.812   7.277  16.869  0.00  0.00    +0.000 OA
BRANCH   7  12
ATOM     11  C   UNL     1       7.163   4.915  13.923  0.00  0.00    +0.000 C 
ATOM     12  O   UNL     1       7.533   5.373  15.221  0.00  0.00    +0.000 OA
ENDBRANCH   7  12
ENDBRANCH   1   9
BRANCH   5  13
ATOM     13  N   UNL     1       3.175   4.159  20.255  0.00  0.00    +0.000 N 
ATOM     14  C   UNL     1       3.634   2.789  20.031  0.00  0.00    +0.000 C 
ATOM     15  C   UNL     1       1.936   4.258  21.028  0.00  0.00    +0.000 C 
ENDBRANCH   5  13
TORSDOF 3
ENDMDL
MODEL 5
REMARK VINA RESULT:      -5.9      2.812      5.755
REMARK  Name = 
REMARK  7 active torsions:
REMARK  status: ('A' for Active; 'I' for Inactive)
REMARK    1  A    between atoms: C_1  and  O_2
REMARK    2  A    between atoms: O_2  and  N_3
REMARK    3  A    between atoms: N_3  and  C_4
REMARK    4  A    between atoms: C_5  and  C_7
REMARK    5  A    between atoms: C_11  and  N_12
REMARK    6  A    between atoms: N_12  and  C_13
REMARK    7  A    between atoms: N_12  and  C_14
REMARK                            x       y       z     vdW  Elec       q    Type
REMARK                         _______ _______ _______ _____ _____    ______ ____
ROOT
ATOM      1  C   UNL     1       3.071   4.940  17.837  0.00  0.00    +0.000 A 
ATOM      2  C   UNL     1       2.762   6.295  17.956  0.00  0.00    +0.000 A 
ATOM      3  C   UNL     1       3.674   7.242  17.508  0.00  0.00    +0.000 A 
ATOM      4  C   UNL     1       4.891   6.830  16.952  0.00  0.00    +0.000 A 
ATOM      5  C   UNL     1       5.230   5.474  16.793  0.00  0.00    +0.000 A 
ATOM      6  C   UNL     1       4.270   4.547  17.212  0.00  0.00    +0.000 A 
ENDROOT
BRANCH   1   9
ATOM      7  N   UNL     1       2.404   3.317  19.585  0.00  0.00    +0.000 N 
ATOM      8  C   UNL     1       2.982   4.046  20.707  0.00  0.00    +0.000 C 
ATOM      9  C   UNL     1       2.104   3.938  18.359  0.00  0.00    +0.000 C 
ATOM     10  O   UNL     1       1.105   3.694  17.684  0.00  0.00    +0.000 OA
BRANCH   7  12
ATOM     11  C   UNL     1       1.261   2.633  21.471  0.00  0.00    +0.000 C 
ATOM     12  O   UNL     1       1.274   2.577  20.047  0.00  0.00    +0.000 OA
ENDBRANCH   7  12
ENDBRANCH   1   9
BRANCH   5  13
ATOM     13  N   UNL     1       6.437   5.101  16.207  0.00  0.00    +0.000 N 
ATOM     14  C   UNL     1       6.474   4.580  14.841  0.00  0.00    +0.000 C 
ATOM     15  C   UNL     1       7.480   4.565  17.082  0.00  0.00    +0.000 C 
ENDBRANCH   5  13
TORSDOF 3
ENDMDL
MODEL 6
REMARK VINA RESULT:      -5.9      2.979      5.864
REMARK  Name = 
REMARK  7 active torsions:
REMARK  status: ('A' for Active; 'I' for Inactive)
REMARK    1  A    between atoms: C_1  and  O_2
REMARK    2  A    between atoms: O_2  and  N_3
REMARK    3  A    between atoms: N_3  and  C_4
REMARK    4  A    between atoms: C_5  and  C_7
REMARK    5  A    between atoms: C_11  and  N_12
REMARK    6  A    between atoms: N_12  and  C_13
REMARK    7  A    between atoms: N_12  and  C_14
REMARK                            x       y       z     vdW  Elec       q    Type
REMARK                         _______ _______ _______ _____ _____    ______ ____
ROOT
ATOM      1  C   UNL     1       3.193   4.524  17.593  0.00  0.00    +0.000 A 
ATOM      2  C   UNL     1       3.148   5.881  17.914  0.00  0.00    +0.000 A 
ATOM      3  C   UNL     1       4.095   6.740  17.371  0.00  0.00    +0.000 A 
ATOM      4  C   UNL     1       5.085   6.237  16.517  0.00  0.00    +0.000 A 
ATOM      5  C   UNL     1       5.150   4.880  16.151  0.00  0.00    +0.000 A 
ATOM      6  C   UNL     1       4.154   4.051  16.679  0.00  0.00    +0.000 A 
ENDROOT
BRANCH   1   9
ATOM      7  N   UNL     1       2.662   2.704  19.187  0.00  0.00    +0.000 N 
ATOM      8  C   UNL     1       3.654   3.077  20.189  0.00  0.00    +0.000 C 
ATOM      9  C   UNL     1       2.199   3.609  18.215  0.00  0.00    +0.000 C 
ATOM     10  O   UNL     1       1.031   3.680  17.833  0.00  0.00    +0.000 OA
BRANCH   7  12
ATOM     11  C   UNL     1       1.434   2.651  21.142  0.00  0.00    +0.000 C 
ATOM     12  O   UNL     1       1.556   2.082  19.841  0.00  0.00    +0.000 OA
ENDBRANCH   7  12
ENDBRANCH   1   9
BRANCH   5  13
ATOM     13  N   UNL     1       6.130   4.421  15.274  0.00  0.00    +0.000 N 
ATOM     14  C   UNL     1       7.491   4.952  15.332  0.00  0.00    +0.000 C 
ATOM     15  C   UNL     1       5.705   4.005  13.937  0.00  0.00    +0.000 C 
ENDBRANCH   5  13
TORSDOF 3
ENDMDL
MODEL 7
REMARK VINA RESULT:      -5.8      1.975      2.988
REMARK  Name = 
REMARK  7 active torsions:
REMARK  status: ('A' for Active; 'I' for Inactive)
REMARK    1  A    between atoms: C_1  and  O_2
REMARK    2  A    between atoms: O_2  and  N_3
REMARK    3  A    between atoms: N_3  and  C_4
REMARK    4  A    between atoms: C_5  and  C_7
REMARK    5  A    between atoms: C_11  and  N_12
REMARK    6  A    between atoms: N_12  and  C_13
REMARK    7  A    between atoms: N_12  and  C_14
REMARK                            x       y       z     vdW  Elec       q    Type
REMARK                         _______ _______ _______ _____ _____    ______ ____
ROOT
ATOM      1  C   UNL     1       4.267   5.763  17.148  0.00  0.00    +0.000 A 
ATOM      2  C   UNL     1       3.709   6.770  17.936  0.00  0.00    +0.000 A 
ATOM      3  C   UNL     1       2.659   6.461  18.792  0.00  0.00    +0.000 A 
ATOM      4  C   UNL     1       2.168   5.151  18.849  0.00  0.00    +0.000 A 
ATOM      5  C   UNL     1       2.719   4.103  18.089  0.00  0.00    +0.000 A 
ATOM      6  C   UNL     1       3.805   4.439  17.273  0.00  0.00    +0.000 A 
ENDROOT
BRANCH   1   9
ATOM      7  N   UNL     1       6.666   5.707  16.539  0.00  0.00    +0.000 N 
ATOM      8  C   UNL     1       6.948   4.402  17.125  0.00  0.00    +0.000 C 
ATOM      9  C   UNL     1       5.363   6.117  16.207  0.00  0.00    +0.000 C 
ATOM     10  O   UNL     1       5.073   6.762  15.200  0.00  0.00    +0.000 OA
BRANCH   7  12
ATOM     11  C   UNL     1       7.336   4.851  14.501  0.00  0.00    +0.000 C 
ATOM     12  O   UNL     1       7.541   5.913  15.429  0.00  0.00    +0.000 OA
ENDBRANCH   7  12
ENDBRANCH   1   9
BRANCH   5  13
ATOM     13  N   UNL     1       2.226   2.805  18.195  0.00  0.00    +0.000 N 
ATOM     14  C   UNL     1       0.909   2.553  18.779  0.00  0.00    +0.000 C 
ATOM     15  C   UNL     1       3.192   1.726  18.405  0.00  0.00    +0.000 C 
ENDBRANCH   5  13
TORSDOF 3
ENDMDL
MODEL 8
REMARK VINA RESULT:      -5.8      2.655      5.322
REMARK  Name = 
REMARK  7 active torsions:
REMARK  status: ('A' for Active; 'I' for Inactive)
REMARK    1  A    between atoms: C_1  and  O_2
REMARK    2  A    between atoms: O_2  and  N_3
REMARK    3  A    between atoms: N_3  and  C_4
REMARK    4  A    between atoms: C_5  and  C_7
REMARK    5  A    between atoms: C_11  and  N_12
REMARK    6  A    between atoms: N_12  and  C_13
REMARK    7  A    between atoms: N_12  and  C_14
REMARK                            x       y       z     vdW  Elec       q    Type
REMARK                         _______ _______ _______ _____ _____    ______ ____
ROOT
ATOM      1  C   UNL     1       4.414   4.356  17.018  0.00  0.00    +0.000 A 
ATOM      2  C   UNL     1       4.782   3.810  15.788  0.00  0.00    +0.000 A 
ATOM      3  C   UNL     1       6.056   4.051  15.291  0.00  0.00    +0.000 A 
ATOM      4  C   UNL     1       6.953   4.840  16.022  0.00  0.00    +0.000 A 
ATOM      5  C   UNL     1       6.629   5.388  17.276  0.00  0.00    +0.000 A 
ATOM      6  C   UNL     1       5.353   5.088  17.768  0.00  0.00    +0.000 A 
ENDROOT
BRANCH   1   9
ATOM      7  N   UNL     1       2.619   2.793  17.701  0.00  0.00    +0.000 N 
ATOM      8  C   UNL     1       3.500   1.771  18.253  0.00  0.00    +0.000 C 
ATOM      9  C   UNL     1       3.032   4.124  17.518  0.00  0.00    +0.000 C 
ATOM     10  O   UNL     1       2.323   5.107  17.728  0.00  0.00    +0.000 OA
BRANCH   7  12
ATOM     11  C   UNL     1       1.620   2.253  19.712  0.00  0.00    +0.000 C 
ATOM     12  O   UNL     1       1.375   2.760  18.402  0.00  0.00    +0.000 OA
ENDBRANCH   7  12
ENDBRANCH   1   9
BRANCH   5  13
ATOM     13  N   UNL     1       7.557   6.143  17.990  0.00  0.00    +0.000 N 
ATOM     14  C   UNL     1       7.871   5.818  19.380  0.00  0.00    +0.000 C 
ATOM     15  C   UNL     1       7.669   7.565  17.665  0.00  0.00    +0.000 C 
ENDBRANCH   5  13
TORSDOF 3
ENDMDL
MODEL 9
REMARK VINA RESULT:      -5.7      1.256      1.392
REMARK  Name = 
REMARK  7 active torsions:
REMARK  status: ('A' for Active; 'I' for Inactive)
REMARK    1  A    between atoms: C_1  and  O_2
REMARK    2  A    between atoms: O_2  and  N_3
REMARK    3  A    between atoms: N_3  and  C_4
REMARK    4  A    between atoms: C_5  and  C_7
REMARK    5  A    between atoms: C_11  and  N_12
REMARK    6  A    between atoms: N_12  and  C_13
REMARK    7  A    between atoms: N_12  and  C_14
REMARK                            x       y       z     vdW  Elec       q    Type
REMARK                         _______ _______ _______ _____ _____    ______ ____
ROOT
ATOM      1  C   UNL     1       5.472   4.771  18.519  0.00  0.00    +0.000 A 
ATOM      2  C   UNL     1       5.367   4.235  17.235  0.00  0.00    +0.000 A 
ATOM      3  C   UNL     1       4.243   3.493  16.898  0.00  0.00    +0.000 A 
ATOM      4  C   UNL     1       3.234   3.284  17.846  0.00  0.00    +0.000 A 
ATOM      5  C   UNL     1       3.291   3.828  19.142  0.00  0.00    +0.000 A 
ATOM      6  C   UNL     1       4.415   4.608  19.434  0.00  0.00    +0.000 A 
ENDROOT
BRANCH   1   9
ATOM      7  N   UNL     1       7.194   6.455  17.943  0.00  0.00    +0.000 N 
ATOM      8  C   UNL     1       6.316   7.319  17.163  0.00  0.00    +0.000 C 
ATOM      9  C   UNL     1       6.700   5.529  18.879  0.00  0.00    +0.000 C 
ATOM     10  O   UNL     1       7.226   5.292  19.966  0.00  0.00    +0.000 OA
BRANCH   7  12
ATOM     11  C   UNL     1       8.140   8.561  17.981  0.00  0.00    +0.000 C 
ATOM     12  O   UNL     1       8.218   7.252  18.539  0.00  0.00    +0.000 OA
ENDBRANCH   7  12
ENDBRANCH   1   9
BRANCH   5  13
ATOM     13  N   UNL     1       2.254   3.626  20.050  0.00  0.00    +0.000 N 
ATOM     14  C   UNL     1       0.973   3.074  19.609  0.00  0.00    +0.000 C 
ATOM     15  C   UNL     1       2.152   4.549  21.182  0.00  0.00    +0.000 C 
ENDBRANCH   5  13
TORSDOF 3
ENDMDL
