MODEL 1
REMARK VINA RESULT:      -8.7      0.000      0.000
REMARK  Name = 
REMARK  9 active torsions:
REMARK  status: ('A' for Active; 'I' for Inactive)
REMARK    1  A    between atoms: C_2  and  C_3
REMARK    2  A    between atoms: C_4  and  C_5
REMARK    3  A    between atoms: C_6  and  C_7
REMARK    4  A    between atoms: C_6  and  C_14
REMARK    5  A    between atoms: N_21  and  C_22
REMARK    6  A    between atoms: C_22  and  C_23
REMARK    7  A    between atoms: C_23  and  C_24
REMARK    8  A    between atoms: C_24  and  C_25
REMARK    9  A    between atoms: C_25  and  C_26
REMARK                            x       y       z     vdW  Elec       q    Type
REMARK                         _______ _______ _______ _____ _____    ______ ____
ROOT
ATOM      1  C   UNL     1       1.887   9.332  18.647  0.00  0.00    +0.000 C 
ATOM      2  C   UNL     1       1.898   8.248  17.859  0.00  0.00    +0.000 C 
ENDROOT
BRANCH   1   4
ATOM      3  O   UNL     1      -0.115   9.553  19.904  0.00  0.00    +0.000 OA
ATOM      4  C   UNL     1       0.580   9.952  18.978  0.00  0.00    +0.000 C 
ATOM      5  N   UNL     1       0.243  10.979  18.131  0.00  0.00    +0.000 N 
ATOM      6  H   UNL     1       0.876  11.242  17.388  0.00  0.00    +0.000 HD
BRANCH   5   7
ATOM      7  C   UNL     1      -0.994  11.725  18.275  0.00  0.00    +0.000 C 
BRANCH   7   8
ATOM      8  C   UNL     1      -2.024  11.330  17.214  0.00  0.00    +0.000 C 
BRANCH   8   9
ATOM      9  C   UNL     1      -3.129  10.462  17.827  0.00  0.00    +0.000 C 
BRANCH   9  10
ATOM     10  C   UNL     1      -4.529  10.906  17.394  0.00  0.00    +0.000 C 
BRANCH  10  11
ATOM     11  C   UNL     1      -5.356  11.347  18.572  0.00  0.00    +0.000 A 
ATOM     12  C   UNL     1      -4.831  12.183  19.563  0.00  0.00    +0.000 A 
ATOM     13  C   UNL     1      -5.639  12.593  20.619  0.00  0.00    +0.000 A 
ATOM     14  C   UNL     1      -6.952  12.156  20.654  0.00  0.00    +0.000 A 
ATOM     15  N   UNL     1      -7.495  11.351  19.716  0.00  0.00    +0.000 NA
ATOM     16  C   UNL     1      -6.690  10.970  18.701  0.00  0.00    +0.000 A 
ENDBRANCH  10  11
ENDBRANCH   9  10
ENDBRANCH   8   9
ENDBRANCH   7   8
ENDBRANCH   5   7
ENDBRANCH   1   4
BRANCH   2  17
ATOM     17  C   UNL     1       3.108   7.565  17.447  0.00  0.00    +0.000 C 
ATOM     18  C   UNL     1       3.510   6.355  17.893  0.00  0.00    +0.000 C 
BRANCH  18  19
ATOM     19  C   UNL     1       2.659   5.550  18.799  0.00  0.00    +0.000 A 
ATOM     20  C   UNL     1       2.488   5.919  20.139  0.00  0.00    +0.000 A 
ATOM     21  C   UNL     1       1.723   5.126  20.999  0.00  0.00    +0.000 A 
ATOM     22  C   UNL     1       1.120   3.963  20.523  0.00  0.00    +0.000 A 
ATOM     23  C   UNL     1       1.270   3.606  19.183  0.00  0.00    +0.000 A 
ATOM     24 CL   UNL     1       0.514   2.177  18.593  0.00  0.00    +0.000 Cl
ATOM     25  C   UNL     1       2.036   4.389  18.322  0.00  0.00    +0.000 A 
ENDBRANCH  18  19
BRANCH  18  26
ATOM     26  C   UNL     1       4.815   5.853  17.401  0.00  0.00    +0.000 A 
ATOM     27  C   UNL     1       5.952   5.918  18.220  0.00  0.00    +0.000 A 
ATOM     28  C   UNL     1       7.182   5.436  17.765  0.00  0.00    +0.000 A 
ATOM     29  C   UNL     1       7.285   4.882  16.491  0.00  0.00    +0.000 A 
ATOM     30  C   UNL     1       6.156   4.811  15.676  0.00  0.00    +0.000 A 
ATOM     31 CL   UNL     1       6.283   4.122  14.104  0.00  0.00    +0.000 Cl
ATOM     32  C   UNL     1       4.924   5.294  16.122  0.00  0.00    +0.000 A 
ENDBRANCH  18  26
ENDBRANCH   2  17
TORSDOF 9
ENDMDL
MODEL 2
REMARK VINA RESULT:      -8.7      0.970      1.123
REMARK  Name = 
REMARK  9 active torsions:
REMARK  status: ('A' for Active; 'I' for Inactive)
REMARK    1  A    between atoms: C_2  and  C_3
REMARK    2  A    between atoms: C_4  and  C_5
REMARK    3  A    between atoms: C_6  and  C_7
REMARK    4  A    between atoms: C_6  and  C_14
REMARK    5  A    between atoms: N_21  and  C_22
REMARK    6  A    between atoms: C_22  and  C_23
REMARK    7  A    between atoms: C_23  and  C_24
REMARK    8  A    between atoms: C_24  and  C_25
REMARK    9  A    between atoms: C_25  and  C_26
REMARK                            x       y       z     vdW  Elec       q    Type
REMARK                         _______ _______ _______ _____ _____    ______ ____
ROOT
ATOM      1  C   UNL     1       2.064   9.453  18.308  0.00  0.00    +0.000 C 
ATOM      2  C   UNL     1       2.166   8.117  18.300  0.00  0.00    +0.000 C 
ENDROOT
BRANCH   1   4
ATOM      3  O   UNL     1       0.270   9.565  19.858  0.00  0.00    +0.000 OA
ATOM      4  C   UNL     1       0.851  10.065  18.904  0.00  0.00    +0.000 C 
ATOM      5  N   UNL     1       0.457  11.214  18.260  0.00  0.00    +0.000 N 
ATOM      6  H   UNL     1       0.995  11.556  17.476  0.00  0.00    +0.000 HD
BRANCH   5   7
ATOM      7  C   UNL     1      -0.705  11.974  18.679  0.00  0.00    +0.000 C 
BRANCH   7   8
ATOM      8  C   UNL     1      -1.845  11.880  17.663  0.00  0.00    +0.000 C 
BRANCH   8   9
ATOM      9  C   UNL     1      -2.515  10.503  17.724  0.00  0.00    +0.000 C 
BRANCH   9  10
ATOM     10  C   UNL     1      -3.706  10.389  16.769  0.00  0.00    +0.000 C 
BRANCH  10  11
ATOM     11  C   UNL     1      -4.937  11.037  17.344  0.00  0.00    +0.000 A 
ATOM     12  C   UNL     1      -5.618  10.480  18.432  0.00  0.00    +0.000 A 
ATOM     13  C   UNL     1      -6.734  11.128  18.952  0.00  0.00    +0.000 A 
ATOM     14  C   UNL     1      -7.138  12.317  18.372  0.00  0.00    +0.000 A 
ATOM     15  N   UNL     1      -6.507  12.887  17.323  0.00  0.00    +0.000 NA
ATOM     16  C   UNL     1      -5.426  12.239  16.838  0.00  0.00    +0.000 A 
ENDBRANCH  10  11
ENDBRANCH   9  10
ENDBRANCH   8   9
ENDBRANCH   7   8
ENDBRANCH   5   7
ENDBRANCH   1   4
BRANCH   2  17
ATOM     17  C   UNL     1       3.288   7.398  17.730  0.00  0.00    +0.000 C 
ATOM     18  C   UNL     1       3.631   6.126  18.027  0.00  0.00    +0.000 C 
BRANCH  18  19
ATOM     19  C   UNL     1       2.790   5.294  18.917  0.00  0.00    +0.000 A 
ATOM     20  C   UNL     1       2.714   5.563  20.290  0.00  0.00    +0.000 A 
ATOM     21  C   UNL     1       1.957   4.742  21.131  0.00  0.00    +0.000 A 
ATOM     22  C   UNL     1       1.268   3.650  20.603  0.00  0.00    +0.000 A 
ATOM     23  C   UNL     1       1.325   3.394  19.234  0.00  0.00    +0.000 A 
ATOM     24 CL   UNL     1       0.463   2.054  18.581  0.00  0.00    +0.000 Cl
ATOM     25  C   UNL     1       2.081   4.205  18.391  0.00  0.00    +0.000 A 
ENDBRANCH  18  19
BRANCH  18  26
ATOM     26  C   UNL     1       4.856   5.589  17.388  0.00  0.00    +0.000 A 
ATOM     27  C   UNL     1       6.058   5.524  18.107  0.00  0.00    +0.000 A 
ATOM     28  C   UNL     1       7.213   5.008  17.513  0.00  0.00    +0.000 A 
ATOM     29  C   UNL     1       7.174   4.551  16.198  0.00  0.00    +0.000 A 
ATOM     30  C   UNL     1       5.980   4.609  15.480  0.00  0.00    +0.000 A 
ATOM     31 CL   UNL     1       5.933   4.040  13.858  0.00  0.00    +0.000 Cl
ATOM     32  C   UNL     1       4.822   5.127  16.066  0.00  0.00    +0.000 A 
ENDBRANCH  18  26
ENDBRANCH   2  17
TORSDOF 9
ENDMDL
MODEL 3
REMARK VINA RESULT:      -8.7      1.227      1.695
REMARK  Name = 
REMARK  9 active torsions:
REMARK  status: ('A' for Active; 'I' for Inactive)
REMARK    1  A    between atoms: C_2  and  C_3
REMARK    2  A    between atoms: C_4  and  C_5
REMARK    3  A    between atoms: C_6  and  C_7
REMARK    4  A    between atoms: C_6  and  C_14
REMARK    5  A    between atoms: N_21  and  C_22
REMARK    6  A    between atoms: C_22  and  C_23
REMARK    7  A    between atoms: C_23  and  C_24
REMARK    8  A    between atoms: C_24  and  C_25
REMARK    9  A    between atoms: C_25  and  C_26
REMARK                            x       y       z     vdW  Elec       q    Type
REMARK                         _______ _______ _______ _____ _____    ______ ____
ROOT
ATOM      1  C   UNL     1       1.709   9.163  18.773  0.00  0.00    +0.000 C 
ATOM      2  C   UNL     1       1.862   8.296  17.762  0.00  0.00    +0.000 C 
ENDROOT
BRANCH   1   4
ATOM      3  O   UNL     1      -0.103   9.966  20.079  0.00  0.00    +0.000 OA
ATOM      4  C   UNL     1       0.380   9.793  18.968  0.00  0.00    +0.000 C 
ATOM      5  N   UNL     1      -0.234  10.128  17.785  0.00  0.00    +0.000 N 
ATOM      6  H   UNL     1       0.237   9.948  16.910  0.00  0.00    +0.000 HD
BRANCH   5   7
ATOM      7  C   UNL     1      -1.541  10.758  17.745  0.00  0.00    +0.000 C 
BRANCH   7   8
ATOM      8  C   UNL     1      -2.565   9.899  16.999  0.00  0.00    +0.000 C 
BRANCH   8   9
ATOM      9  C   UNL     1      -3.948  10.558  17.025  0.00  0.00    +0.000 C 
BRANCH   9  10
ATOM     10  C   UNL     1      -4.030  11.707  18.033  0.00  0.00    +0.000 C 
BRANCH  10  11
ATOM     11  C   UNL     1      -5.204  11.544  18.961  0.00  0.00    +0.000 A 
ATOM     12  C   UNL     1      -6.249  10.662  18.671  0.00  0.00    +0.000 A 
ATOM     13  C   UNL     1      -7.301  10.518  19.571  0.00  0.00    +0.000 A 
ATOM     14  C   UNL     1      -7.277  11.260  20.738  0.00  0.00    +0.000 A 
ATOM     15  N   UNL     1      -6.285  12.120  21.056  0.00  0.00    +0.000 NA
ATOM     16  C   UNL     1      -5.276  12.239  20.166  0.00  0.00    +0.000 A 
ENDBRANCH  10  11
ENDBRANCH   9  10
ENDBRANCH   8   9
ENDBRANCH   7   8
ENDBRANCH   5   7
ENDBRANCH   1   4
BRANCH   2  17
ATOM     17  C   UNL     1       3.111   7.630  17.454  0.00  0.00    +0.000 C 
ATOM     18  C   UNL     1       3.505   6.440  17.957  0.00  0.00    +0.000 C 
BRANCH  18  19
ATOM     19  C   UNL     1       2.607   5.637  18.819  0.00  0.00    +0.000 A 
ATOM     20  C   UNL     1       2.314   6.046  20.126  0.00  0.00    +0.000 A 
ATOM     21  C   UNL     1       1.505   5.256  20.949  0.00  0.00    +0.000 A 
ATOM     22  C   UNL     1       0.981   4.057  20.468  0.00  0.00    +0.000 A 
ATOM     23  C   UNL     1       1.254   3.660  19.159  0.00  0.00    +0.000 A 
ATOM     24 CL   UNL     1       0.596   2.186  18.561  0.00  0.00    +0.000 Cl
ATOM     25  C   UNL     1       2.063   4.440  18.335  0.00  0.00    +0.000 A 
ENDBRANCH  18  19
BRANCH  18  26
ATOM     26  C   UNL     1       4.852   5.955  17.572  0.00  0.00    +0.000 A 
ATOM     27  C   UNL     1       5.109   5.559  16.252  0.00  0.00    +0.000 A 
ATOM     28  C   UNL     1       6.379   5.111  15.880  0.00  0.00    +0.000 A 
ATOM     29  C   UNL     1       7.403   5.061  16.823  0.00  0.00    +0.000 A 
ATOM     30  C   UNL     1       7.153   5.458  18.136  0.00  0.00    +0.000 A 
ATOM     31 CL   UNL     1       8.419   5.400  19.299  0.00  0.00    +0.000 Cl
ATOM     32  C   UNL     1       5.885   5.903  18.516  0.00  0.00    +0.000 A 
ENDBRANCH  18  26
ENDBRANCH   2  17
TORSDOF 9
ENDMDL
MODEL 4
REMARK VINA RESULT:      -8.6      2.053      2.650
REMARK  Name = 
REMARK  9 active torsions:
REMARK  status: ('A' for Active; 'I' for Inactive)
REMARK    1  A    between atoms: C_2  and  C_3
REMARK    2  A    between atoms: C_4  and  C_5
REMARK    3  A    between atoms: C_6  and  C_7
REMARK    4  A    between atoms: C_6  and  C_14
REMARK    5  A    between atoms: N_21  and  C_22
REMARK    6  A    between atoms: C_22  and  C_23
REMARK    7  A    between atoms: C_23  and  C_24
REMARK    8  A    between atoms: C_24  and  C_25
REMARK    9  A    between atoms: C_25  and  C_26
REMARK                            x       y       z     vdW  Elec       q    Type
REMARK                         _______ _______ _______ _____ _____    ______ ____
ROOT
ATOM      1  C   UNL     1       1.532   8.888  17.572  0.00  0.00    +0.000 C 
ATOM      2  C   UNL     1       2.581   8.395  18.245  0.00  0.00    +0.000 C 
ENDROOT
BRANCH   1   4
ATOM      3  O   UNL     1      -0.554   9.988  17.843  0.00  0.00    +0.000 OA
ATOM      4  C   UNL     1       0.545   9.716  18.308  0.00  0.00    +0.000 C 
ATOM      5  N   UNL     1       1.009  10.145  19.528  0.00  0.00    +0.000 N 
ATOM      6  H   UNL     1       1.933   9.874  19.835  0.00  0.00    +0.000 HD
BRANCH   5   7
ATOM      7  C   UNL     1       0.205  10.967  20.414  0.00  0.00    +0.000 C 
BRANCH   7   8
ATOM      8  C   UNL     1      -0.674  10.119  21.336  0.00  0.00    +0.000 C 
BRANCH   8   9
ATOM      9  C   UNL     1      -0.745  10.735  22.738  0.00  0.00    +0.000 C 
BRANCH   9  10
ATOM     10  C   UNL     1      -1.071  12.231  22.703  0.00  0.00    +0.000 C 
BRANCH  10  11
ATOM     11  C   UNL     1      -2.556  12.469  22.635  0.00  0.00    +0.000 A 
ATOM     12  C   UNL     1      -3.193  12.780  21.430  0.00  0.00    +0.000 A 
ATOM     13  C   UNL     1      -4.572  12.963  21.405  0.00  0.00    +0.000 A 
ATOM     14  C   UNL     1      -5.277  12.827  22.588  0.00  0.00    +0.000 A 
ATOM     15  N   UNL     1      -4.699  12.525  23.771  0.00  0.00    +0.000 NA
ATOM     16  C   UNL     1      -3.360  12.352  23.766  0.00  0.00    +0.000 A 
ENDBRANCH  10  11
ENDBRANCH   9  10
ENDBRANCH   8   9
ENDBRANCH   7   8
ENDBRANCH   5   7
ENDBRANCH   1   4
BRANCH   2  17
ATOM     17  C   UNL     1       3.602   7.558  17.647  0.00  0.00    +0.000 C 
ATOM     18  C   UNL     1       3.781   6.244  17.903  0.00  0.00    +0.000 C 
BRANCH  18  19
ATOM     19  C   UNL     1       2.844   5.498  18.773  0.00  0.00    +0.000 A 
ATOM     20  C   UNL     1       2.589   5.924  20.083  0.00  0.00    +0.000 A 
ATOM     21  C   UNL     1       1.741   5.185  20.914  0.00  0.00    +0.000 A 
ATOM     22  C   UNL     1       1.139   4.021  20.438  0.00  0.00    +0.000 A 
ATOM     23  C   UNL     1       1.374   3.609  19.127  0.00  0.00    +0.000 A 
ATOM     24 CL   UNL     1       0.620   2.178  18.536  0.00  0.00    +0.000 Cl
ATOM     25  C   UNL     1       2.222   4.337  18.295  0.00  0.00    +0.000 A 
ENDBRANCH  18  19
BRANCH  18  26
ATOM     26  C   UNL     1       4.925   5.576  17.239  0.00  0.00    +0.000 A 
ATOM     27  C   UNL     1       6.114   5.344  17.945  0.00  0.00    +0.000 A 
ATOM     28  C   UNL     1       7.193   4.704  17.328  0.00  0.00    +0.000 A 
ATOM     29  C   UNL     1       7.090   4.290  16.002  0.00  0.00    +0.000 A 
ATOM     30  C   UNL     1       5.908   4.515  15.297  0.00  0.00    +0.000 A 
ATOM     31 CL   UNL     1       5.781   3.999  13.661  0.00  0.00    +0.000 Cl
ATOM     32  C   UNL     1       4.827   5.157  15.906  0.00  0.00    +0.000 A 
ENDBRANCH  18  26
ENDBRANCH   2  17
TORSDOF 9
ENDMDL
MODEL 5
REMARK VINA RESULT:      -8.6      2.408      2.957
REMARK  Name = 
REMARK  9 active torsions:
REMARK  status: ('A' for Active; 'I' for Inactive)
REMARK    1  A    between atoms: C_2  and  C_3
REMARK    2  A    between atoms: C_4  and  C_5
REMARK    3  A    between atoms: C_6  and  C_7
REMARK    4  A    between atoms: C_6  and  C_14
REMARK    5  A    between atoms: N_21  and  C_22
REMARK    6  A    between atoms: C_22  and  C_23
REMARK    7  A    between atoms: C_23  and  C_24
REMARK    8  A    between atoms: C_24  and  C_25
REMARK    9  A    between atoms: C_25  and  C_26
REMARK                            x       y       z     vdW  Elec       q    Type
REMARK                         _______ _______ _______ _____ _____    ______ ____
ROOT
ATOM      1  C   UNL     1       2.149   9.225  18.510  0.00  0.00    +0.000 C 
ATOM      2  C   UNL     1       2.209   7.947  18.112  0.00  0.00    +0.000 C 
ENDROOT
BRANCH   1   4
ATOM      3  O   UNL     1      -0.147   9.764  18.231  0.00  0.00    +0.000 OA
ATOM      4  C   UNL     1       0.840   9.766  18.955  0.00  0.00    +0.000 C 
ATOM      5  N   UNL     1       0.876  10.275  20.231  0.00  0.00    +0.000 N 
ATOM      6  H   UNL     1       1.736  10.238  20.760  0.00  0.00    +0.000 HD
BRANCH   5   7
ATOM      7  C   UNL     1      -0.295  10.853  20.864  0.00  0.00    +0.000 C 
BRANCH   7   8
ATOM      8  C   UNL     1      -0.583  10.210  22.223  0.00  0.00    +0.000 C 
BRANCH   8   9
ATOM      9  C   UNL     1      -1.312  11.194  23.146  0.00  0.00    +0.000 C 
BRANCH   9  10
ATOM     10  C   UNL     1      -2.035  12.297  22.369  0.00  0.00    +0.000 C 
BRANCH  10  11
ATOM     11  C   UNL     1      -3.438  12.498  22.874  0.00  0.00    +0.000 A 
ATOM     12  C   UNL     1      -4.467  12.925  22.028  0.00  0.00    +0.000 A 
ATOM     13  C   UNL     1      -5.758  13.069  22.528  0.00  0.00    +0.000 A 
ATOM     14  C   UNL     1      -5.985  12.779  23.862  0.00  0.00    +0.000 A 
ATOM     15  N   UNL     1      -5.019  12.363  24.710  0.00  0.00    +0.000 NA
ATOM     16  C   UNL     1      -3.776  12.230  24.198  0.00  0.00    +0.000 A 
ENDBRANCH  10  11
ENDBRANCH   9  10
ENDBRANCH   8   9
ENDBRANCH   7   8
ENDBRANCH   5   7
ENDBRANCH   1   4
BRANCH   2  17
ATOM     17  C   UNL     1       3.419   7.308  17.637  0.00  0.00    +0.000 C 
ATOM     18  C   UNL     1       3.733   6.006  17.812  0.00  0.00    +0.000 C 
BRANCH  18  19
ATOM     19  C   UNL     1       2.778   5.064  18.439  0.00  0.00    +0.000 A 
ATOM     20  C   UNL     1       1.698   4.549  17.712  0.00  0.00    +0.000 A 
ATOM     21  C   UNL     1       0.773   3.700  18.326  0.00  0.00    +0.000 A 
ATOM     22  C   UNL     1       0.926   3.357  19.669  0.00  0.00    +0.000 A 
ATOM     23  C   UNL     1       2.013   3.852  20.388  0.00  0.00    +0.000 A 
ATOM     24 CL   UNL     1       2.209   3.418  22.043  0.00  0.00    +0.000 Cl
ATOM     25  C   UNL     1       2.936   4.702  19.783  0.00  0.00    +0.000 A 
ENDBRANCH  18  19
BRANCH  18  26
ATOM     26  C   UNL     1       5.053   5.555  17.308  0.00  0.00    +0.000 A 
ATOM     27  C   UNL     1       6.170   5.556  18.155  0.00  0.00    +0.000 A 
ATOM     28  C   UNL     1       7.414   5.122  17.689  0.00  0.00    +0.000 A 
ATOM     29  C   UNL     1       7.550   4.681  16.375  0.00  0.00    +0.000 A 
ATOM     30  C   UNL     1       6.441   4.674  15.530  0.00  0.00    +0.000 A 
ATOM     31 CL   UNL     1       6.608   4.125  13.908  0.00  0.00    +0.000 Cl
ATOM     32  C   UNL     1       5.194   5.110  15.988  0.00  0.00    +0.000 A 
ENDBRANCH  18  26
ENDBRANCH   2  17
TORSDOF 9
ENDMDL
MODEL 6
REMARK VINA RESULT:      -8.5      2.766      3.486
REMARK  Name = 
REMARK  9 active torsions:
REMARK  status: ('A' for Active; 'I' for Inactive)
REMARK    1  A    between atoms: C_2  and  C_3
REMARK    2  A    between atoms: C_4  and  C_5
REMARK    3  A    between atoms: C_6  and  C_7
REMARK    4  A    between atoms: C_6  and  C_14
REMARK    5  A    between atoms: N_21  and  C_22
REMARK    6  A    between atoms: C_22  and  C_23
REMARK    7  A    between atoms: C_23  and  C_24
REMARK    8  A    between atoms: C_24  and  C_25
REMARK    9  A    between atoms: C_25  and  C_26
REMARK                            x       y       z     vdW  Elec       q    Type
REMARK                         _______ _______ _______ _____ _____    ______ ____
ROOT
ATOM      1  C   UNL     1       1.860   9.634  18.086  0.00  0.00    +0.000 C 
ATOM      2  C   UNL     1       1.918   8.328  17.788  0.00  0.00    +0.000 C 
ENDROOT
BRANCH   1   4
ATOM      3  O   UNL     1      -0.357   9.574  18.933  0.00  0.00    +0.000 OA
ATOM      4  C   UNL     1       0.539  10.226  18.413  0.00  0.00    +0.000 C 
ATOM      5  N   UNL     1       0.440  11.548  18.051  0.00  0.00    +0.000 N 
ATOM      6  H   UNL     1       1.230  12.009  17.624  0.00  0.00    +0.000 HD
BRANCH   5   7
ATOM      7  C   UNL     1      -0.766  12.322  18.281  0.00  0.00    +0.000 C 
BRANCH   7   8
ATOM      8  C   UNL     1      -0.453  13.711  18.843  0.00  0.00    +0.000 C 
BRANCH   8   9
ATOM      9  C   UNL     1      -1.016  13.863  20.261  0.00  0.00    +0.000 C 
BRANCH   9  10
ATOM     10  C   UNL     1       0.046  13.635  21.340  0.00  0.00    +0.000 C 
BRANCH  10  11
ATOM     11  C   UNL     1      -0.041  12.247  21.915  0.00  0.00    +0.000 A 
ATOM     12  C   UNL     1      -1.124  11.849  22.706  0.00  0.00    +0.000 A 
ATOM     13  C   UNL     1      -1.182  10.547  23.193  0.00  0.00    +0.000 A 
ATOM     14  C   UNL     1      -0.154   9.677  22.874  0.00  0.00    +0.000 A 
ATOM     15  N   UNL     1       0.906  10.022  22.112  0.00  0.00    +0.000 NA
ATOM     16  C   UNL     1       0.936  11.291  21.651  0.00  0.00    +0.000 A 
ENDBRANCH  10  11
ENDBRANCH   9  10
ENDBRANCH   8   9
ENDBRANCH   7   8
ENDBRANCH   5   7
ENDBRANCH   1   4
BRANCH   2  17
ATOM     17  C   UNL     1       3.140   7.636  17.433  0.00  0.00    +0.000 C 
ATOM     18  C   UNL     1       3.518   6.429  17.905  0.00  0.00    +0.000 C 
BRANCH  18  19
ATOM     19  C   UNL     1       2.626   5.634  18.779  0.00  0.00    +0.000 A 
ATOM     20  C   UNL     1       2.332   6.061  20.080  0.00  0.00    +0.000 A 
ATOM     21  C   UNL     1       1.529   5.280  20.917  0.00  0.00    +0.000 A 
ATOM     22  C   UNL     1       1.011   4.070  20.455  0.00  0.00    +0.000 A 
ATOM     23  C   UNL     1       1.285   3.655  19.152  0.00  0.00    +0.000 A 
ATOM     24 CL   UNL     1       0.634   2.168  18.578  0.00  0.00    +0.000 Cl
ATOM     25  C   UNL     1       2.088   4.426  18.315  0.00  0.00    +0.000 A 
ENDBRANCH  18  19
BRANCH  18  26
ATOM     26  C   UNL     1       4.840   5.917  17.471  0.00  0.00    +0.000 A 
ATOM     27  C   UNL     1       5.913   5.879  18.373  0.00  0.00    +0.000 A 
ATOM     28  C   UNL     1       7.159   5.387  17.974  0.00  0.00    +0.000 A 
ATOM     29  C   UNL     1       7.340   4.927  16.671  0.00  0.00    +0.000 A 
ATOM     30  C   UNL     1       6.275   4.959  15.772  0.00  0.00    +0.000 A 
ATOM     31 CL   UNL     1       6.499   4.386  14.166  0.00  0.00    +0.000 Cl
ATOM     32  C   UNL     1       5.028   5.452  16.164  0.00  0.00    +0.000 A 
ENDBRANCH  18  26
ENDBRANCH   2  17
TORSDOF 9
ENDMDL
MODEL 7
REMARK VINA RESULT:      -8.5      3.140      4.417
REMARK  Name = 
REMARK  9 active torsions:
REMARK  status: ('A' for Active; 'I' for Inactive)
REMARK    1  A    between atoms: C_2  and  C_3
REMARK    2  A    between atoms: C_4  and  C_5
REMARK    3  A    between atoms: C_6  and  C_7
REMARK    4  A    between atoms: C_6  and  C_14
REMARK    5  A    between atoms: N_21  and  C_22
REMARK    6  A    between atoms: C_22  and  C_23
REMARK    7  A    between atoms: C_23  and  C_24
REMARK    8  A    between atoms: C_24  and  C_25
REMARK    9  A    between atoms: C_25  and  C_26
REMARK                            x       y       z     vdW  Elec       q    Type
REMARK                         _______ _______ _______ _____ _____    ______ ____
ROOT
ATOM      1  C   UNL     1       2.023   9.121  18.013  0.00  0.00    +0.000 C 
ATOM      2  C   UNL     1       2.261   7.806  18.114  0.00  0.00    +0.000 C 
ENDROOT
BRANCH   1   4
ATOM      3  O   UNL     1      -0.218   9.891  17.868  0.00  0.00    +0.000 OA
ATOM      4  C   UNL     1       0.756   9.656  18.571  0.00  0.00    +0.000 C 
ATOM      5  N   UNL     1       0.815   9.870  19.927  0.00  0.00    +0.000 N 
ATOM      6  H   UNL     1       1.663   9.650  20.431  0.00  0.00    +0.000 HD
BRANCH   5   7
ATOM      7  C   UNL     1      -0.314  10.388  20.676  0.00  0.00    +0.000 C 
BRANCH   7   8
ATOM      8  C   UNL     1       0.014  11.723  21.349  0.00  0.00    +0.000 C 
BRANCH   8   9
ATOM      9  C   UNL     1      -0.870  12.845  20.790  0.00  0.00    +0.000 C 
BRANCH   9  10
ATOM     10  C   UNL     1      -0.595  13.122  19.310  0.00  0.00    +0.000 C 
BRANCH  10  11
ATOM     11  C   UNL     1       0.759  13.749  19.109  0.00  0.00    +0.000 A 
ATOM     12  C   UNL     1       1.748  13.125  18.342  0.00  0.00    +0.000 A 
ATOM     13  C   UNL     1       2.976  13.753  18.155  0.00  0.00    +0.000 A 
ATOM     14  C   UNL     1       3.180  14.991  18.740  0.00  0.00    +0.000 A 
ATOM     15  N   UNL     1       2.250  15.626  19.485  0.00  0.00    +0.000 NA
ATOM     16  C   UNL     1       1.067  14.995  19.649  0.00  0.00    +0.000 A 
ENDBRANCH  10  11
ENDBRANCH   9  10
ENDBRANCH   8   9
ENDBRANCH   7   8
ENDBRANCH   5   7
ENDBRANCH   1   4
BRANCH   2  17
ATOM     17  C   UNL     1       3.448   7.160  17.592  0.00  0.00    +0.000 C 
ATOM     18  C   UNL     1       3.750   5.851  17.737  0.00  0.00    +0.000 C 
BRANCH  18  19
ATOM     19  C   UNL     1       2.801   4.912  18.377  0.00  0.00    +0.000 A 
ATOM     20  C   UNL     1       1.768   4.323  17.638  0.00  0.00    +0.000 A 
ATOM     21  C   UNL     1       0.847   3.475  18.262  0.00  0.00    +0.000 A 
ATOM     22  C   UNL     1       0.958   3.208  19.626  0.00  0.00    +0.000 A 
ATOM     23  C   UNL     1       2.000   3.777  20.358  0.00  0.00    +0.000 A 
ATOM     24 CL   UNL     1       2.144   3.436  22.039  0.00  0.00    +0.000 Cl
ATOM     25  C   UNL     1       2.918   4.626  19.744  0.00  0.00    +0.000 A 
ENDBRANCH  18  19
BRANCH  18  26
ATOM     26  C   UNL     1       5.048   5.393  17.186  0.00  0.00    +0.000 A 
ATOM     27  C   UNL     1       6.201   5.416  17.984  0.00  0.00    +0.000 A 
ATOM     28  C   UNL     1       7.425   4.975  17.474  0.00  0.00    +0.000 A 
ATOM     29  C   UNL     1       7.505   4.503  16.166  0.00  0.00    +0.000 A 
ATOM     30  C   UNL     1       6.360   4.473  15.371  0.00  0.00    +0.000 A 
ATOM     31 CL   UNL     1       6.458   3.886  13.757  0.00  0.00    +0.000 Cl
ATOM     32  C   UNL     1       5.133   4.916  15.872  0.00  0.00    +0.000 A 
ENDBRANCH  18  26
ENDBRANCH   2  17
TORSDOF 9
ENDMDL
MODEL 8
REMARK VINA RESULT:      -8.4      3.212      3.694
REMARK  Name = 
REMARK  9 active torsions:
REMARK  status: ('A' for Active; 'I' for Inactive)
REMARK    1  A    between atoms: C_2  and  C_3
REMARK    2  A    between atoms: C_4  and  C_5
REMARK    3  A    between atoms: C_6  and  C_7
REMARK    4  A    between atoms: C_6  and  C_14
REMARK    5  A    between atoms: N_21  and  C_22
REMARK    6  A    between atoms: C_22  and  C_23
REMARK    7  A    between atoms: C_23  and  C_24
REMARK    8  A    between atoms: C_24  and  C_25
REMARK    9  A    between atoms: C_25  and  C_26
REMARK                            x       y       z     vdW  Elec       q    Type
REMARK                         _______ _______ _______ _____ _____    ______ ____
ROOT
ATOM      1  C   UNL     1       2.206   8.077  19.655  0.00  0.00    +0.000 C 
ATOM      2  C   UNL     1       2.252   7.631  18.392  0.00  0.00    +0.000 C 
ENDROOT
BRANCH   1   4
ATOM      3  O   UNL     1       0.386   9.591  19.479  0.00  0.00    +0.000 OA
ATOM      4  C   UNL     1       0.960   8.728  20.130  0.00  0.00    +0.000 C 
ATOM      5  N   UNL     1       0.554   8.275  21.362  0.00  0.00    +0.000 N 
ATOM      6  H   UNL     1       1.090   7.559  21.832  0.00  0.00    +0.000 HD
BRANCH   5   7
ATOM      7  C   UNL     1      -0.641   8.777  22.013  0.00  0.00    +0.000 C 
BRANCH   7   8
ATOM      8  C   UNL     1      -0.312   9.826  23.078  0.00  0.00    +0.000 C 
BRANCH   8   9
ATOM      9  C   UNL     1      -0.227  11.224  22.454  0.00  0.00    +0.000 C 
BRANCH   9  10
ATOM     10  C   UNL     1      -1.593  11.746  22.002  0.00  0.00    +0.000 C 
BRANCH  10  11
ATOM     11  C   UNL     1      -2.194  12.674  23.024  0.00  0.00    +0.000 A 
ATOM     12  C   UNL     1      -3.444  12.421  23.597  0.00  0.00    +0.000 A 
ATOM     13  C   UNL     1      -3.950  13.287  24.561  0.00  0.00    +0.000 A 
ATOM     14  C   UNL     1      -3.190  14.384  24.927  0.00  0.00    +0.000 A 
ATOM     15  N   UNL     1      -1.979  14.662  24.399  0.00  0.00    +0.000 NA
ATOM     16  C   UNL     1      -1.511  13.804  23.466  0.00  0.00    +0.000 A 
ENDBRANCH  10  11
ENDBRANCH   9  10
ENDBRANCH   8   9
ENDBRANCH   7   8
ENDBRANCH   5   7
ENDBRANCH   1   4
BRANCH   2  17
ATOM     17  C   UNL     1       3.414   6.998  17.803  0.00  0.00    +0.000 C 
ATOM     18  C   UNL     1       3.703   5.680  17.872  0.00  0.00    +0.000 C 
BRANCH  18  19
ATOM     19  C   UNL     1       2.761   4.720  18.491  0.00  0.00    +0.000 A 
ATOM     20  C   UNL     1       1.712   4.164  17.748  0.00  0.00    +0.000 A 
ATOM     21  C   UNL     1       0.798   3.298  18.355  0.00  0.00    +0.000 A 
ATOM     22  C   UNL     1       0.930   2.978  19.706  0.00  0.00    +0.000 A 
ATOM     23  C   UNL     1       1.987   3.514  20.441  0.00  0.00    +0.000 A 
ATOM     24 CL   UNL     1       2.158   3.108  22.105  0.00  0.00    +0.000 Cl
ATOM     25  C   UNL     1       2.899   4.382  19.844  0.00  0.00    +0.000 A 
ENDBRANCH  18  19
BRANCH  18  26
ATOM     26  C   UNL     1       4.978   5.234  17.260  0.00  0.00    +0.000 A 
ATOM     27  C   UNL     1       6.160   5.233  18.014  0.00  0.00    +0.000 A 
ATOM     28  C   UNL     1       7.363   4.803  17.447  0.00  0.00    +0.000 A 
ATOM     29  C   UNL     1       7.392   4.368  16.123  0.00  0.00    +0.000 A 
ATOM     30  C   UNL     1       6.218   4.364  15.372  0.00  0.00    +0.000 A 
ATOM     31 CL   UNL     1       6.253   3.822  13.739  0.00  0.00    +0.000 Cl
ATOM     32  C   UNL     1       5.012   4.795  15.931  0.00  0.00    +0.000 A 
ENDBRANCH  18  26
ENDBRANCH   2  17
TORSDOF 9
ENDMDL
MODEL 9
REMARK VINA RESULT:      -8.4      1.507      1.873
REMARK  Name = 
REMARK  9 active torsions:
REMARK  status: ('A' for Active; 'I' for Inactive)
REMARK    1  A    between atoms: C_2  and  C_3
REMARK    2  A    between atoms: C_4  and  C_5
REMARK    3  A    between atoms: C_6  and  C_7
REMARK    4  A    between atoms: C_6  and  C_14
REMARK    5  A    between atoms: N_21  and  C_22
REMARK    6  A    between atoms: C_22  and  C_23
REMARK    7  A    between atoms: C_23  and  C_24
REMARK    8  A    between atoms: C_24  and  C_25
REMARK    9  A    between atoms: C_25  and  C_26
REMARK                            x       y       z     vdW  Elec       q    Type
REMARK                         _______ _______ _______ _____ _____    ______ ____
ROOT
ATOM      1  C   UNL     1       1.753   9.409  18.603  0.00  0.00    +0.000 C 
ATOM      2  C   UNL     1       1.858   8.460  17.664  0.00  0.00    +0.000 C 
ENDROOT
BRANCH   1   4
ATOM      3  O   UNL     1       0.159  10.642  19.859  0.00  0.00    +0.000 OA
ATOM      4  C   UNL     1       0.427  10.036  18.830  0.00  0.00    +0.000 C 
ATOM      5  N   UNL     1      -0.445   9.839  17.786  0.00  0.00    +0.000 N 
ATOM      6  H   UNL     1      -0.141   9.323  16.972  0.00  0.00    +0.000 HD
BRANCH   5   7
ATOM      7  C   UNL     1      -1.796  10.368  17.799  0.00  0.00    +0.000 C 
BRANCH   7   8
ATOM      8  C   UNL     1      -2.337  10.582  16.383  0.00  0.00    +0.000 C 
BRANCH   8   9
ATOM      9  C   UNL     1      -3.865  10.699  16.398  0.00  0.00    +0.000 C 
BRANCH   9  10
ATOM     10  C   UNL     1      -4.435  10.732  17.819  0.00  0.00    +0.000 C 
BRANCH  10  11
ATOM     11  C   UNL     1      -5.239  11.982  18.061  0.00  0.00    +0.000 A 
ATOM     12  C   UNL     1      -6.000  12.571  17.047  0.00  0.00    +0.000 A 
ATOM     13  C   UNL     1      -6.754  13.708  17.321  0.00  0.00    +0.000 A 
ATOM     14  C   UNL     1      -6.727  14.225  18.605  0.00  0.00    +0.000 A 
ATOM     15  N   UNL     1      -6.007  13.684  19.611  0.00  0.00    +0.000 NA
ATOM     16  C   UNL     1      -5.286  12.580  19.318  0.00  0.00    +0.000 A 
ENDBRANCH  10  11
ENDBRANCH   9  10
ENDBRANCH   8   9
ENDBRANCH   7   8
ENDBRANCH   5   7
ENDBRANCH   1   4
BRANCH   2  17
ATOM     17  C   UNL     1       3.099   7.787  17.333  0.00  0.00    +0.000 C 
ATOM     18  C   UNL     1       3.498   6.598  17.834  0.00  0.00    +0.000 C 
BRANCH  18  19
ATOM     19  C   UNL     1       2.614   5.803  18.717  0.00  0.00    +0.000 A 
ATOM     20  C   UNL     1       2.330   6.231  20.019  0.00  0.00    +0.000 A 
ATOM     21  C   UNL     1       1.536   5.449  20.863  0.00  0.00    +0.000 A 
ATOM     22  C   UNL     1       1.017   4.237  20.407  0.00  0.00    +0.000 A 
ATOM     23  C   UNL     1       1.280   3.821  19.102  0.00  0.00    +0.000 A 
ATOM     24 CL   UNL     1       0.628   2.332  18.535  0.00  0.00    +0.000 Cl
ATOM     25  C   UNL     1       2.075   4.593  18.258  0.00  0.00    +0.000 A 
ENDBRANCH  18  19
BRANCH  18  26
ATOM     26  C   UNL     1       4.834   6.106  17.423  0.00  0.00    +0.000 A 
ATOM     27  C   UNL     1       5.084   5.773  16.084  0.00  0.00    +0.000 A 
ATOM     28  C   UNL     1       6.346   5.320  15.688  0.00  0.00    +0.000 A 
ATOM     29  C   UNL     1       7.367   5.199  16.628  0.00  0.00    +0.000 A 
ATOM     30  C   UNL     1       7.125   5.533  17.959  0.00  0.00    +0.000 A 
ATOM     31 CL   UNL     1       8.389   5.388  19.118  0.00  0.00    +0.000 Cl
ATOM     32  C   UNL     1       5.865   5.984  18.363  0.00  0.00    +0.000 A 
ENDBRANCH  18  26
ENDBRANCH   2  17
TORSDOF 9
ENDMDL
