MODEL 1
REMARK VINA RESULT:      -8.0      0.000      0.000
REMARK  Name = 
REMARK  9 active torsions:
REMARK  status: ('A' for Active; 'I' for Inactive)
REMARK    1  A    between atoms: C_1  and  O_2
REMARK    2  A    between atoms: O_2  and  C_3
REMARK    3  A    between atoms: C_5  and  C_6
REMARK    4  A    between atoms: C_7  and  C_8
REMARK    5  A    between atoms: C_8  and  C_10
REMARK    6  A    between atoms: C_11  and  C_12
REMARK    7  A    between atoms: C_15  and  O_16
REMARK    8  A    between atoms: C_17  and  O_18
REMARK    9  A    between atoms: O_18  and  C_19
REMARK                            x       y       z     vdW  Elec       q    Type
REMARK                         _______ _______ _______ _____ _____    ______ ____
ROOT
ATOM      1  C   UNL     1       7.426   6.874  17.464  0.00  0.00    +0.000 C 
ATOM      2  O   UNL     1       7.628   6.641  16.280  0.00  0.00    +0.000 OA
ENDROOT
BRANCH   1   4
ATOM      3  C   UNL     1       8.303   9.122  17.929  0.00  0.00    +0.000 C 
ATOM      4  C   UNL     1       8.246   7.823  18.265  0.00  0.00    +0.000 C 
BRANCH   3   7
ATOM      5  C   UNL     1      10.721  11.997  18.455  0.00  0.00    +0.000 A 
ATOM      6  C   UNL     1       9.910  11.003  17.861  0.00  0.00    +0.000 A 
ATOM      7  C   UNL     1       9.086  10.166  18.622  0.00  0.00    +0.000 A 
ATOM      8  C   UNL     1       9.071  10.368  19.997  0.00  0.00    +0.000 A 
ATOM      9  C   UNL     1       9.853  11.376  20.582  0.00  0.00    +0.000 A 
ATOM     10  C   UNL     1      10.706  12.234  19.859  0.00  0.00    +0.000 A 
ATOM     11  O   UNL     1      11.390  13.118  20.479  0.00  0.00    +0.000 OA
BRANCH   5  13
ATOM     12  C   UNL     1      10.901  13.923  17.077  0.00  0.00    +0.000 C 
ATOM     13  O   UNL     1      11.554  12.814  17.697  0.00  0.00    +0.000 OA
ENDBRANCH   5  13
ENDBRANCH   3   7
ENDBRANCH   1   4
BRANCH   1  14
ATOM     14  C   UNL     1       6.322   6.226  18.232  0.00  0.00    +0.000 C 
ATOM     15  C   UNL     1       5.120   6.013  17.673  0.00  0.00    +0.000 C 
BRANCH  15  16
ATOM     16  C   UNL     1       3.983   5.415  18.395  0.00  0.00    +0.000 A 
ATOM     17  C   UNL     1       3.243   6.216  19.269  0.00  0.00    +0.000 A 
ATOM     18  C   UNL     1       2.159   5.687  19.976  0.00  0.00    +0.000 A 
ATOM     19  C   UNL     1       1.792   4.348  19.811  0.00  0.00    +0.000 A 
ATOM     20  C   UNL     1       2.500   3.530  18.924  0.00  0.00    +0.000 A 
ATOM     21  C   UNL     1       3.585   4.080  18.221  0.00  0.00    +0.000 A 
BRANCH  19  22
ATOM     22  O   UNL     1       0.732   3.876  20.534  0.00  0.00    +0.000 OA
ATOM     23  H   UNL     1       0.060   4.571  20.608  0.00  0.00    +0.000 HD
ENDBRANCH  19  22
BRANCH  20  24
ATOM     24  O   UNL     1       2.287   2.210  18.630  0.00  0.00    +0.000 OA
ATOM     25  C   UNL     1       3.416   1.371  18.440  0.00  0.00    +0.000 C 
ENDBRANCH  20  24
ENDBRANCH  15  16
ENDBRANCH   1  14
TORSDOF 7
ENDMDL
MODEL 2
REMARK VINA RESULT:      -7.9      0.894      2.013
REMARK  Name = 
REMARK  9 active torsions:
REMARK  status: ('A' for Active; 'I' for Inactive)
REMARK    1  A    between atoms: C_1  and  O_2
REMARK    2  A    between atoms: O_2  and  C_3
REMARK    3  A    between atoms: C_5  and  C_6
REMARK    4  A    between atoms: C_7  and  C_8
REMARK    5  A    between atoms: C_8  and  C_10
REMARK    6  A    between atoms: C_11  and  C_12
REMARK    7  A    between atoms: C_15  and  O_16
REMARK    8  A    between atoms: C_17  and  O_18
REMARK    9  A    between atoms: O_18  and  C_19
REMARK                            x       y       z     vdW  Elec       q    Type
REMARK                         _______ _______ _______ _____ _____    ______ ____
ROOT
ATOM      1  C   UNL     1       7.277   7.020  17.334  0.00  0.00    +0.000 C 
ATOM      2  O   UNL     1       7.608   6.593  16.237  0.00  0.00    +0.000 OA
ENDROOT
BRANCH   1   4
ATOM      3  C   UNL     1       8.131   9.277  17.798  0.00  0.00    +0.000 C 
ATOM      4  C   UNL     1       8.099   7.975  18.126  0.00  0.00    +0.000 C 
BRANCH   3   7
ATOM      5  C   UNL     1      10.046  12.506  18.337  0.00  0.00    +0.000 A 
ATOM      6  C   UNL     1       9.263  11.477  17.765  0.00  0.00    +0.000 A 
ATOM      7  C   UNL     1       8.912  10.328  18.483  0.00  0.00    +0.000 A 
ATOM      8  C   UNL     1       9.341  10.245  19.802  0.00  0.00    +0.000 A 
ATOM      9  C   UNL     1      10.090  11.284  20.377  0.00  0.00    +0.000 A 
ATOM     10  C   UNL     1      10.478  12.452  19.692  0.00  0.00    +0.000 A 
ATOM     11  O   UNL     1      11.171  13.341  20.296  0.00  0.00    +0.000 OA
BRANCH   5  13
ATOM     12  C   UNL     1      11.428  13.422  16.636  0.00  0.00    +0.000 C 
ATOM     13  O   UNL     1      10.410  13.638  17.615  0.00  0.00    +0.000 OA
ENDBRANCH   5  13
ENDBRANCH   3   7
ENDBRANCH   1   4
BRANCH   1  14
ATOM     14  C   UNL     1       5.999   6.625  17.997  0.00  0.00    +0.000 C 
ATOM     15  C   UNL     1       5.411   5.449  17.725  0.00  0.00    +0.000 C 
BRANCH  15  16
ATOM     16  C   UNL     1       4.130   5.024  18.319  0.00  0.00    +0.000 A 
ATOM     17  C   UNL     1       3.590   3.790  17.943  0.00  0.00    +0.000 A 
ATOM     18  C   UNL     1       2.376   3.351  18.479  0.00  0.00    +0.000 A 
ATOM     19  C   UNL     1       1.688   4.136  19.409  0.00  0.00    +0.000 A 
ATOM     20  C   UNL     1       2.218   5.363  19.821  0.00  0.00    +0.000 A 
ATOM     21  C   UNL     1       3.441   5.787  19.273  0.00  0.00    +0.000 A 
BRANCH  19  22
ATOM     22  O   UNL     1       0.499   3.667  19.895  0.00  0.00    +0.000 OA
ATOM     23  H   UNL     1       0.668   3.110  20.671  0.00  0.00    +0.000 HD
ENDBRANCH  19  22
BRANCH  20  24
ATOM     24  O   UNL     1       1.696   6.258  20.717  0.00  0.00    +0.000 OA
ATOM     25  C   UNL     1       1.758   7.641  20.403  0.00  0.00    +0.000 C 
ENDBRANCH  20  24
ENDBRANCH  15  16
ENDBRANCH   1  14
TORSDOF 7
ENDMDL
MODEL 3
REMARK VINA RESULT:      -7.8      0.490      9.971
REMARK  Name = 
REMARK  9 active torsions:
REMARK  status: ('A' for Active; 'I' for Inactive)
REMARK    1  A    between atoms: C_1  and  O_2
REMARK    2  A    between atoms: O_2  and  C_3
REMARK    3  A    between atoms: C_5  and  C_6
REMARK    4  A    between atoms: C_7  and  C_8
REMARK    5  A    between atoms: C_8  and  C_10
REMARK    6  A    between atoms: C_11  and  C_12
REMARK    7  A    between atoms: C_15  and  O_16
REMARK    8  A    between atoms: C_17  and  O_18
REMARK    9  A    between atoms: O_18  and  C_19
REMARK                            x       y       z     vdW  Elec       q    Type
REMARK                         _______ _______ _______ _____ _____    ______ ____
ROOT
ATOM      1  C   UNL     1       7.517   7.059  17.499  0.00  0.00    +0.000 C 
ATOM      2  O   UNL     1       7.840   6.801  16.347  0.00  0.00    +0.000 OA
ENDROOT
BRANCH   1   4
ATOM      3  C   UNL     1       5.177   6.369  17.801  0.00  0.00    +0.000 C 
ATOM      4  C   UNL     1       6.448   6.328  18.234  0.00  0.00    +0.000 C 
BRANCH   3   7
ATOM      5  C   UNL     1       2.647   3.679  18.668  0.00  0.00    +0.000 A 
ATOM      6  C   UNL     1       3.760   4.367  18.133  0.00  0.00    +0.000 A 
ATOM      7  C   UNL     1       4.020   5.708  18.439  0.00  0.00    +0.000 A 
ATOM      8  C   UNL     1       3.152   6.338  19.323  0.00  0.00    +0.000 A 
ATOM      9  C   UNL     1       2.066   5.643  19.879  0.00  0.00    +0.000 A 
ATOM     10  C   UNL     1       1.757   4.299  19.591  0.00  0.00    +0.000 A 
ATOM     11  O   UNL     1       0.740   3.751  20.137  0.00  0.00    +0.000 OA
BRANCH   5  13
ATOM     12  C   UNL     1       3.479   1.458  18.532  0.00  0.00    +0.000 C 
ATOM     13  O   UNL     1       2.380   2.352  18.346  0.00  0.00    +0.000 OA
ENDBRANCH   5  13
ENDBRANCH   3   7
ENDBRANCH   1   4
BRANCH   1  14
ATOM     14  C   UNL     1       8.171   8.140  18.293  0.00  0.00    +0.000 C 
ATOM     15  C   UNL     1       8.351   9.366  17.779  0.00  0.00    +0.000 C 
BRANCH  15  16
ATOM     16  C   UNL     1       9.025  10.460  18.502  0.00  0.00    +0.000 A 
ATOM     17  C   UNL     1       9.221  10.336  19.881  0.00  0.00    +0.000 A 
ATOM     18  C   UNL     1       9.853  11.351  20.605  0.00  0.00    +0.000 A 
ATOM     19  C   UNL     1      10.308  12.504  19.958  0.00  0.00    +0.000 A 
ATOM     20  C   UNL     1      10.146  12.644  18.575  0.00  0.00    +0.000 A 
ATOM     21  C   UNL     1       9.511  11.611  17.864  0.00  0.00    +0.000 A 
BRANCH  19  22
ATOM     22  O   UNL     1      10.908  13.473  20.712  0.00  0.00    +0.000 OA
ATOM     23  H   UNL     1      10.436  14.312  20.591  0.00  0.00    +0.000 HD
ENDBRANCH  19  22
BRANCH  20  24
ATOM     24  O   UNL     1      10.527  13.687  17.775  0.00  0.00    +0.000 OA
ATOM     25  C   UNL     1      11.373  13.415  16.668  0.00  0.00    +0.000 C 
ENDBRANCH  20  24
ENDBRANCH  15  16
ENDBRANCH   1  14
TORSDOF 7
ENDMDL
MODEL 4
REMARK VINA RESULT:      -7.8      1.454      1.849
REMARK  Name = 
REMARK  9 active torsions:
REMARK  status: ('A' for Active; 'I' for Inactive)
REMARK    1  A    between atoms: C_1  and  O_2
REMARK    2  A    between atoms: O_2  and  C_3
REMARK    3  A    between atoms: C_5  and  C_6
REMARK    4  A    between atoms: C_7  and  C_8
REMARK    5  A    between atoms: C_8  and  C_10
REMARK    6  A    between atoms: C_11  and  C_12
REMARK    7  A    between atoms: C_15  and  O_16
REMARK    8  A    between atoms: C_17  and  O_18
REMARK    9  A    between atoms: O_18  and  C_19
REMARK                            x       y       z     vdW  Elec       q    Type
REMARK                         _______ _______ _______ _____ _____    ______ ____
ROOT
ATOM      1  C   UNL     1       7.250   6.764  17.171  0.00  0.00    +0.000 C 
ATOM      2  O   UNL     1       7.822   6.487  16.125  0.00  0.00    +0.000 OA
ENDROOT
BRANCH   1   4
ATOM      3  C   UNL     1       8.258   8.959  17.629  0.00  0.00    +0.000 C 
ATOM      4  C   UNL     1       7.716   7.826  18.104  0.00  0.00    +0.000 C 
BRANCH   3   7
ATOM      5  C   UNL     1       9.395  12.461  18.539  0.00  0.00    +0.000 A 
ATOM      6  C   UNL     1       8.870  11.347  17.845  0.00  0.00    +0.000 A 
ATOM      7  C   UNL     1       8.775  10.082  18.437  0.00  0.00    +0.000 A 
ATOM      8  C   UNL     1       9.192   9.965  19.757  0.00  0.00    +0.000 A 
ATOM      9  C   UNL     1       9.683  11.080  20.455  0.00  0.00    +0.000 A 
ATOM     10  C   UNL     1       9.809  12.368  19.898  0.00  0.00    +0.000 A 
ATOM     11  O   UNL     1      10.277  13.323  20.607  0.00  0.00    +0.000 OA
BRANCH   5  13
ATOM     12  C   UNL     1      10.776  13.977  17.340  0.00  0.00    +0.000 C 
ATOM     13  O   UNL     1       9.507  13.712  17.941  0.00  0.00    +0.000 OA
ENDBRANCH   5  13
ENDBRANCH   3   7
ENDBRANCH   1   4
BRANCH   1  14
ATOM     14  C   UNL     1       6.012   6.062  17.620  0.00  0.00    +0.000 C 
ATOM     15  C   UNL     1       5.905   4.726  17.541  0.00  0.00    +0.000 C 
BRANCH  15  16
ATOM     16  C   UNL     1       4.693   3.983  17.932  0.00  0.00    +0.000 A 
ATOM     17  C   UNL     1       3.765   3.641  16.944  0.00  0.00    +0.000 A 
ATOM     18  C   UNL     1       2.601   2.939  17.272  0.00  0.00    +0.000 A 
ATOM     19  C   UNL     1       2.353   2.560  18.595  0.00  0.00    +0.000 A 
ATOM     20  C   UNL     1       3.276   2.869  19.599  0.00  0.00    +0.000 A 
ATOM     21  C   UNL     1       4.442   3.572  19.250  0.00  0.00    +0.000 A 
BRANCH  19  22
ATOM     22  O   UNL     1       1.195   1.887  18.866  0.00  0.00    +0.000 OA
ATOM     23  H   UNL     1       0.611   1.929  18.092  0.00  0.00    +0.000 HD
ENDBRANCH  19  22
BRANCH  20  24
ATOM     24  O   UNL     1       3.208   2.580  20.936  0.00  0.00    +0.000 OA
ATOM     25  C   UNL     1       2.254   3.270  21.728  0.00  0.00    +0.000 C 
ENDBRANCH  20  24
ENDBRANCH  15  16
ENDBRANCH   1  14
TORSDOF 7
ENDMDL
MODEL 5
REMARK VINA RESULT:      -7.6      1.322     10.051
REMARK  Name = 
REMARK  9 active torsions:
REMARK  status: ('A' for Active; 'I' for Inactive)
REMARK    1  A    between atoms: C_1  and  O_2
REMARK    2  A    between atoms: O_2  and  C_3
REMARK    3  A    between atoms: C_5  and  C_6
REMARK    4  A    between atoms: C_7  and  C_8
REMARK    5  A    between atoms: C_8  and  C_10
REMARK    6  A    between atoms: C_11  and  C_12
REMARK    7  A    between atoms: C_15  and  O_16
REMARK    8  A    between atoms: C_17  and  O_18
REMARK    9  A    between atoms: O_18  and  C_19
REMARK                            x       y       z     vdW  Elec       q    Type
REMARK                         _______ _______ _______ _____ _____    ______ ____
ROOT
ATOM      1  C   UNL     1       7.279   6.819  17.183  0.00  0.00    +0.000 C 
ATOM      2  O   UNL     1       7.820   6.496  16.134  0.00  0.00    +0.000 OA
ENDROOT
BRANCH   1   4
ATOM      3  C   UNL     1       5.729   4.921  17.363  0.00  0.00    +0.000 C 
ATOM      4  C   UNL     1       6.032   6.186  17.693  0.00  0.00    +0.000 C 
BRANCH   3   7
ATOM      5  C   UNL     1       3.271   3.098  19.605  0.00  0.00    +0.000 A 
ATOM      6  C   UNL     1       4.375   3.846  19.134  0.00  0.00    +0.000 A 
ATOM      7  C   UNL     1       4.523   4.177  17.782  0.00  0.00    +0.000 A 
ATOM      8  C   UNL     1       3.519   3.767  16.913  0.00  0.00    +0.000 A 
ATOM      9  C   UNL     1       2.408   3.053  17.388  0.00  0.00    +0.000 A 
ATOM     10  C   UNL     1       2.222   2.685  18.736  0.00  0.00    +0.000 A 
ATOM     11  O   UNL     1       1.181   2.025  19.075  0.00  0.00    +0.000 OA
BRANCH   5  13
ATOM     12  C   UNL     1       2.298   3.623  21.707  0.00  0.00    +0.000 C 
ATOM     13  O   UNL     1       3.137   2.753  20.946  0.00  0.00    +0.000 OA
ENDBRANCH   5  13
ENDBRANCH   3   7
ENDBRANCH   1   4
BRANCH   1  14
ATOM     14  C   UNL     1       7.823   7.890  18.069  0.00  0.00    +0.000 C 
ATOM     15  C   UNL     1       8.230   9.067  17.567  0.00  0.00    +0.000 C 
BRANCH  15  16
ATOM     16  C   UNL     1       8.811  10.144  18.388  0.00  0.00    +0.000 A 
ATOM     17  C   UNL     1       9.051   9.902  19.744  0.00  0.00    +0.000 A 
ATOM     18  C   UNL     1       9.598  10.898  20.559  0.00  0.00    +0.000 A 
ATOM     19  C   UNL     1       9.924  12.149  20.027  0.00  0.00    +0.000 A 
ATOM     20  C   UNL     1       9.716  12.410  18.668  0.00  0.00    +0.000 A 
ATOM     21  C   UNL     1       9.168  11.396  17.863  0.00  0.00    +0.000 A 
BRANCH  19  22
ATOM     22  O   UNL     1      10.444  13.093  20.867  0.00  0.00    +0.000 OA
ATOM     23  H   UNL     1      11.151  12.693  21.399  0.00  0.00    +0.000 HD
ENDBRANCH  19  22
BRANCH  20  24
ATOM     24  O   UNL     1       9.975  13.560  17.973  0.00  0.00    +0.000 OA
ATOM     25  C   UNL     1      11.003  13.542  16.995  0.00  0.00    +0.000 C 
ENDBRANCH  20  24
ENDBRANCH  15  16
ENDBRANCH   1  14
TORSDOF 7
ENDMDL
MODEL 6
REMARK VINA RESULT:      -7.6      1.150      1.153
REMARK  Name = 
REMARK  9 active torsions:
REMARK  status: ('A' for Active; 'I' for Inactive)
REMARK    1  A    between atoms: C_1  and  O_2
REMARK    2  A    between atoms: O_2  and  C_3
REMARK    3  A    between atoms: C_5  and  C_6
REMARK    4  A    between atoms: C_7  and  C_8
REMARK    5  A    between atoms: C_8  and  C_10
REMARK    6  A    between atoms: C_11  and  C_12
REMARK    7  A    between atoms: C_15  and  O_16
REMARK    8  A    between atoms: C_17  and  O_18
REMARK    9  A    between atoms: O_18  and  C_19
REMARK                            x       y       z     vdW  Elec       q    Type
REMARK                         _______ _______ _______ _____ _____    ______ ____
ROOT
ATOM      1  C   UNL     1       7.160   7.071  17.212  0.00  0.00    +0.000 C 
ATOM      2  O   UNL     1       7.704   6.554  16.245  0.00  0.00    +0.000 OA
ENDROOT
BRANCH   1   4
ATOM      3  C   UNL     1       8.583   8.765  18.282  0.00  0.00    +0.000 C 
ATOM      4  C   UNL     1       7.432   8.464  17.659  0.00  0.00    +0.000 C 
BRANCH   3   7
ATOM      5  C   UNL     1       9.076  12.524  18.409  0.00  0.00    +0.000 A 
ATOM      6  C   UNL     1       8.693  11.222  18.010  0.00  0.00    +0.000 A 
ATOM      7  C   UNL     1       8.975  10.096  18.791  0.00  0.00    +0.000 A 
ATOM      8  C   UNL     1       9.625  10.306  20.001  0.00  0.00    +0.000 A 
ATOM      9  C   UNL     1       9.975  11.603  20.410  0.00  0.00    +0.000 A 
ATOM     10  C   UNL     1       9.724  12.765  19.653  0.00  0.00    +0.000 A 
ATOM     11  O   UNL     1      10.089  13.905  20.102  0.00  0.00    +0.000 OA
BRANCH   5  13
ATOM     12  C   UNL     1       7.481  14.147  17.729  0.00  0.00    +0.000 C 
ATOM     13  O   UNL     1       8.812  13.640  17.621  0.00  0.00    +0.000 OA
ENDBRANCH   5  13
ENDBRANCH   3   7
ENDBRANCH   1   4
BRANCH   1  14
ATOM     14  C   UNL     1       6.154   6.351  18.046  0.00  0.00    +0.000 C 
ATOM     15  C   UNL     1       4.900   6.156  17.608  0.00  0.00    +0.000 C 
BRANCH  15  16
ATOM     16  C   UNL     1       3.855   5.488  18.404  0.00  0.00    +0.000 A 
ATOM     17  C   UNL     1       3.013   6.268  19.202  0.00  0.00    +0.000 A 
ATOM     18  C   UNL     1       2.011   5.674  19.975  0.00  0.00    +0.000 A 
ATOM     19  C   UNL     1       1.829   4.288  19.954  0.00  0.00    +0.000 A 
ATOM     20  C   UNL     1       2.642   3.485  19.146  0.00  0.00    +0.000 A 
ATOM     21  C   UNL     1       3.642   4.101  18.373  0.00  0.00    +0.000 A 
BRANCH  19  22
ATOM     22  O   UNL     1       0.844   3.754  20.736  0.00  0.00    +0.000 OA
ATOM     23  H   UNL     1       1.247   3.210  21.431  0.00  0.00    +0.000 HD
ENDBRANCH  19  22
BRANCH  20  24
ATOM     24  O   UNL     1       2.611   2.125  18.992  0.00  0.00    +0.000 OA
ATOM     25  C   UNL     1       3.574   1.519  18.144  0.00  0.00    +0.000 C 
ENDBRANCH  20  24
ENDBRANCH  15  16
ENDBRANCH   1  14
TORSDOF 7
ENDMDL
MODEL 7
REMARK VINA RESULT:      -7.6      1.379      2.125
REMARK  Name = 
REMARK  9 active torsions:
REMARK  status: ('A' for Active; 'I' for Inactive)
REMARK    1  A    between atoms: C_1  and  O_2
REMARK    2  A    between atoms: O_2  and  C_3
REMARK    3  A    between atoms: C_5  and  C_6
REMARK    4  A    between atoms: C_7  and  C_8
REMARK    5  A    between atoms: C_8  and  C_10
REMARK    6  A    between atoms: C_11  and  C_12
REMARK    7  A    between atoms: C_15  and  O_16
REMARK    8  A    between atoms: C_17  and  O_18
REMARK    9  A    between atoms: O_18  and  C_19
REMARK                            x       y       z     vdW  Elec       q    Type
REMARK                         _______ _______ _______ _____ _____    ______ ____
ROOT
ATOM      1  C   UNL     1       7.261   6.631  17.202  0.00  0.00    +0.000 C 
ATOM      2  O   UNL     1       7.736   6.259  16.137  0.00  0.00    +0.000 OA
ENDROOT
BRANCH   1   4
ATOM      3  C   UNL     1       8.024   8.936  17.583  0.00  0.00    +0.000 C 
ATOM      4  C   UNL     1       7.877   7.686  18.052  0.00  0.00    +0.000 C 
BRANCH   3   7
ATOM      5  C   UNL     1       9.038  12.495  18.412  0.00  0.00    +0.000 A 
ATOM      6  C   UNL     1       8.453  11.363  17.800  0.00  0.00    +0.000 A 
ATOM      7  C   UNL     1       8.630  10.072  18.308  0.00  0.00    +0.000 A 
ATOM      8  C   UNL     1       9.386   9.942  19.467  0.00  0.00    +0.000 A 
ATOM      9  C   UNL     1       9.939  11.072  20.091  0.00  0.00    +0.000 A 
ATOM     10  C   UNL     1       9.799  12.389  19.610  0.00  0.00    +0.000 A 
ATOM     11  O   UNL     1      10.347  13.356  20.241  0.00  0.00    +0.000 OA
BRANCH   5  13
ATOM     12  C   UNL     1       7.539  14.276  17.938  0.00  0.00    +0.000 C 
ATOM     13  O   UNL     1       8.876  13.776  17.893  0.00  0.00    +0.000 OA
ENDBRANCH   5  13
ENDBRANCH   3   7
ENDBRANCH   1   4
BRANCH   1  14
ATOM     14  C   UNL     1       6.000   6.060  17.761  0.00  0.00    +0.000 C 
ATOM     15  C   UNL     1       5.522   4.881  17.332  0.00  0.00    +0.000 C 
BRANCH  15  16
ATOM     16  C   UNL     1       4.263   4.289  17.819  0.00  0.00    +0.000 A 
ATOM     17  C   UNL     1       3.602   3.357  17.014  0.00  0.00    +0.000 A 
ATOM     18  C   UNL     1       2.403   2.774  17.436  0.00  0.00    +0.000 A 
ATOM     19  C   UNL     1       1.852   3.108  18.677  0.00  0.00    +0.000 A 
ATOM     20  C   UNL     1       2.505   4.020  19.513  0.00  0.00    +0.000 A 
ATOM     21  C   UNL     1       3.711   4.594  19.073  0.00  0.00    +0.000 A 
BRANCH  19  22
ATOM     22  O   UNL     1       0.673   2.520  19.039  0.00  0.00    +0.000 OA
ATOM     23  H   UNL     1      -0.015   2.759  18.397  0.00  0.00    +0.000 HD
ENDBRANCH  19  22
BRANCH  20  24
ATOM     24  O   UNL     1       2.125   4.462  20.751  0.00  0.00    +0.000 OA
ATOM     25  C   UNL     1       1.605   5.778  20.868  0.00  0.00    +0.000 C 
ENDBRANCH  20  24
ENDBRANCH  15  16
ENDBRANCH   1  14
TORSDOF 7
ENDMDL
MODEL 8
REMARK VINA RESULT:      -7.6      1.038      9.863
REMARK  Name = 
REMARK  9 active torsions:
REMARK  status: ('A' for Active; 'I' for Inactive)
REMARK    1  A    between atoms: C_1  and  O_2
REMARK    2  A    between atoms: O_2  and  C_3
REMARK    3  A    between atoms: C_5  and  C_6
REMARK    4  A    between atoms: C_7  and  C_8
REMARK    5  A    between atoms: C_8  and  C_10
REMARK    6  A    between atoms: C_11  and  C_12
REMARK    7  A    between atoms: C_15  and  O_16
REMARK    8  A    between atoms: C_17  and  O_18
REMARK    9  A    between atoms: O_18  and  C_19
REMARK                            x       y       z     vdW  Elec       q    Type
REMARK                         _______ _______ _______ _____ _____    ______ ____
ROOT
ATOM      1  C   UNL     1       7.508   6.923  17.692  0.00  0.00    +0.000 C 
ATOM      2  O   UNL     1       7.565   6.672  16.496  0.00  0.00    +0.000 OA
ENDROOT
BRANCH   1   4
ATOM      3  C   UNL     1       5.590   5.459  18.159  0.00  0.00    +0.000 C 
ATOM      4  C   UNL     1       6.573   6.244  18.630  0.00  0.00    +0.000 C 
BRANCH   3   7
ATOM      5  C   UNL     1       2.566   4.864  20.370  0.00  0.00    +0.000 A 
ATOM      6  C   UNL     1       3.540   5.472  19.545  0.00  0.00    +0.000 A 
ATOM      7  C   UNL     1       4.586   4.741  18.971  0.00  0.00    +0.000 A 
ATOM      8  C   UNL     1       4.617   3.374  19.218  0.00  0.00    +0.000 A 
ATOM      9  C   UNL     1       3.630   2.766  20.010  0.00  0.00    +0.000 A 
ATOM     10  C   UNL     1       2.567   3.462  20.620  0.00  0.00    +0.000 A 
ATOM     11  O   UNL     1       1.719   2.826  21.334  0.00  0.00    +0.000 OA
BRANCH   5  13
ATOM     12  C   UNL     1       1.574   6.999  20.684  0.00  0.00    +0.000 C 
ATOM     13  O   UNL     1       1.539   5.597  20.956  0.00  0.00    +0.000 OA
ENDBRANCH   5  13
ENDBRANCH   3   7
ENDBRANCH   1   4
BRANCH   1  14
ATOM     14  C   UNL     1       8.383   7.944  18.340  0.00  0.00    +0.000 C 
ATOM     15  C   UNL     1       8.323   9.237  17.982  0.00  0.00    +0.000 C 
BRANCH  15  16
ATOM     16  C   UNL     1       9.189  10.281  18.559  0.00  0.00    +0.000 A 
ATOM     17  C   UNL     1       9.125  10.526  19.934  0.00  0.00    +0.000 A 
ATOM     18  C   UNL     1       9.926  11.509  20.521  0.00  0.00    +0.000 A 
ATOM     19  C   UNL     1      10.814  12.257  19.741  0.00  0.00    +0.000 A 
ATOM     20  C   UNL     1      10.916  12.016  18.367  0.00  0.00    +0.000 A 
ATOM     21  C   UNL     1      10.104  11.021  17.795  0.00  0.00    +0.000 A 
BRANCH  19  22
ATOM     22  O   UNL     1      11.567  13.215  20.360  0.00  0.00    +0.000 OA
ATOM     23  H   UNL     1      12.505  13.066  20.158  0.00  0.00    +0.000 HD
ENDBRANCH  19  22
BRANCH  20  24
ATOM     24  O   UNL     1      11.723  12.637  17.452  0.00  0.00    +0.000 OA
ATOM     25  C   UNL     1      11.214  13.766  16.759  0.00  0.00    +0.000 C 
ENDBRANCH  20  24
ENDBRANCH  15  16
ENDBRANCH   1  14
TORSDOF 7
ENDMDL
MODEL 9
REMARK VINA RESULT:      -7.5      3.733      7.362
REMARK  Name = 
REMARK  9 active torsions:
REMARK  status: ('A' for Active; 'I' for Inactive)
REMARK    1  A    between atoms: C_1  and  O_2
REMARK    2  A    between atoms: O_2  and  C_3
REMARK    3  A    between atoms: C_5  and  C_6
REMARK    4  A    between atoms: C_7  and  C_8
REMARK    5  A    between atoms: C_8  and  C_10
REMARK    6  A    between atoms: C_11  and  C_12
REMARK    7  A    between atoms: C_15  and  O_16
REMARK    8  A    between atoms: C_17  and  O_18
REMARK    9  A    between atoms: O_18  and  C_19
REMARK                            x       y       z     vdW  Elec       q    Type
REMARK                         _______ _______ _______ _____ _____    ______ ____
ROOT
ATOM      1  C   UNL     1       2.307   4.375  20.013  0.00  0.00    +0.000 C 
ATOM      2  O   UNL     1       1.797   3.334  20.404  0.00  0.00    +0.000 OA
ENDROOT
BRANCH   1   4
ATOM      3  C   UNL     1       3.487   4.727  17.885  0.00  0.00    +0.000 C 
ATOM      4  C   UNL     1       3.548   4.422  19.191  0.00  0.00    +0.000 C 
BRANCH   3   7
ATOM      5  C   UNL     1       6.706   5.933  16.282  0.00  0.00    +0.000 A 
ATOM      6  C   UNL     1       5.605   5.778  17.156  0.00  0.00    +0.000 A 
ATOM      7  C   UNL     1       4.631   4.794  16.953  0.00  0.00    +0.000 A 
ATOM      8  C   UNL     1       4.800   3.946  15.865  0.00  0.00    +0.000 A 
ATOM      9  C   UNL     1       5.911   4.081  15.018  0.00  0.00    +0.000 A 
ATOM     10  C   UNL     1       6.910   5.063  15.174  0.00  0.00    +0.000 A 
ATOM     11  O   UNL     1       7.882   5.117  14.345  0.00  0.00    +0.000 OA
BRANCH   5  13
ATOM     12  C   UNL     1       7.585   7.594  17.735  0.00  0.00    +0.000 C 
ATOM     13  O   UNL     1       7.662   6.925  16.475  0.00  0.00    +0.000 OA
ENDBRANCH   5  13
ENDBRANCH   3   7
ENDBRANCH   1   4
BRANCH   1  14
ATOM     14  C   UNL     1       1.730   5.717  20.318  0.00  0.00    +0.000 C 
ATOM     15  C   UNL     1       2.170   6.821  19.694  0.00  0.00    +0.000 C 
BRANCH  15  16
ATOM     16  C   UNL     1       1.665   8.175  19.984  0.00  0.00    +0.000 A 
ATOM     17  C   UNL     1       1.496   9.071  18.925  0.00  0.00    +0.000 A 
ATOM     18  C   UNL     1       1.023  10.366  19.156  0.00  0.00    +0.000 A 
ATOM     19  C   UNL     1       0.701  10.781  20.452  0.00  0.00    +0.000 A 
ATOM     20  C   UNL     1       0.837   9.897  21.527  0.00  0.00    +0.000 A 
ATOM     21  C   UNL     1       1.312   8.598  21.275  0.00  0.00    +0.000 A 
BRANCH  19  22
ATOM     22  O   UNL     1       0.254  12.061  20.628  0.00  0.00    +0.000 OA
ATOM     23  H   UNL     1      -0.716  12.070  20.585  0.00  0.00    +0.000 HD
ENDBRANCH  19  22
BRANCH  20  24
ATOM     24  O   UNL     1       0.571  10.119  22.851  0.00  0.00    +0.000 OA
ATOM     25  C   UNL     1      -0.785  10.164  23.268  0.00  0.00    +0.000 C 
ENDBRANCH  20  24
ENDBRANCH  15  16
ENDBRANCH   1  14
TORSDOF 7
ENDMDL
