MODEL 1
REMARK VINA RESULT:      -8.6      0.000      0.000
REMARK  Name = 
REMARK  7 active torsions:
REMARK  status: ('A' for Active; 'I' for Inactive)
REMARK    1  A    between atoms: C_1  and  O_2
REMARK    2  A    between atoms: O_2  and  C_3
REMARK    3  A    between atoms: C_7  and  C_8
REMARK    4  A    between atoms: C_8  and  N_9
REMARK    5  A    between atoms: C_8  and  C_13
REMARK    6  A    between atoms: C_10  and  C_11
REMARK    7  A    between atoms: C_15  and  C_16
REMARK                            x       y       z     vdW  Elec       q    Type
REMARK                         _______ _______ _______ _____ _____    ______ ____
ROOT
ATOM      1  C   UNL     1       3.076   5.235  19.102  0.00  0.00    +0.000 C 
ENDROOT
BRANCH   1   6
ATOM      2  C   UNL     1       5.936   4.320  16.691  0.00  0.00    +0.000 A 
ATOM      3  C   UNL     1       7.045   4.680  17.454  0.00  0.00    +0.000 A 
ATOM      4  C   UNL     1       6.880   5.280  18.701  0.00  0.00    +0.000 A 
ATOM      5  C   UNL     1       5.599   5.483  19.217  0.00  0.00    +0.000 A 
ATOM      6  C   UNL     1       4.464   5.117  18.476  0.00  0.00    +0.000 A 
ATOM      7  C   UNL     1       4.657   4.584  17.184  0.00  0.00    +0.000 A 
BRANCH   2   9
ATOM      8  C   UNL     1       6.452   4.550  14.379  0.00  0.00    +0.000 C 
ATOM      9  O   UNL     1       6.227   3.706  15.503  0.00  0.00    +0.000 OA
ENDBRANCH   2   9
ENDBRANCH   1   6
BRANCH   1  10
ATOM     10  N   UNL     1       3.014   4.627  20.426  0.00  0.00    +0.000 N 
ATOM     11  C   UNL     1       2.114   3.756  20.940  0.00  0.00    +0.000 C 
ATOM     12  C   UNL     1       0.931   3.287  20.128  0.00  0.00    +0.000 C 
ATOM     13  O   UNL     1       2.292   3.340  22.084  0.00  0.00    +0.000 OA
ATOM     14  H   UNL     1       3.771   4.833  21.065  0.00  0.00    +0.000 HD
ENDBRANCH   1  10
BRANCH   1  15
ATOM     15  C   UNL     1       2.563   6.676  19.159  0.00  0.00    +0.000 A 
ATOM     16  N   UNL     1       1.912   7.193  20.188  0.00  0.00    +0.000 NA
ATOM     17  C   UNL     1       1.476   8.475  19.890  0.00  0.00    +0.000 A 
ATOM     18  C   UNL     1       1.842   8.941  18.644  0.00  0.00    +0.000 A 
ATOM     19  S   UNL     1       2.817   7.785  17.853  0.00  0.00    +0.000 S 
BRANCH  17  20
ATOM     20  C   UNL     1       0.708   9.260  20.844  0.00  0.00    +0.000 A 
ATOM     21  C   UNL     1       0.650   8.904  22.201  0.00  0.00    +0.000 A 
ATOM     22  C   UNL     1      -0.108   9.658  23.099  0.00  0.00    +0.000 A 
ATOM     23  C   UNL     1      -0.809  10.770  22.644  0.00  0.00    +0.000 A 
ATOM     24  F   UNL     1      -1.534  11.476  23.523  0.00  0.00    +0.000 F 
ATOM     25  C   UNL     1      -0.756  11.139  21.301  0.00  0.00    +0.000 A 
ATOM     26 CL   UNL     1      -1.631  12.511  20.737  0.00  0.00    +0.000 Cl
ATOM     27  C   UNL     1       0.005  10.390  20.401  0.00  0.00    +0.000 A 
ENDBRANCH  17  20
ENDBRANCH   1  15
TORSDOF 5
ENDMDL
MODEL 2
REMARK VINA RESULT:      -8.5      5.004      8.324
REMARK  Name = 
REMARK  7 active torsions:
REMARK  status: ('A' for Active; 'I' for Inactive)
REMARK    1  A    between atoms: C_1  and  O_2
REMARK    2  A    between atoms: O_2  and  C_3
REMARK    3  A    between atoms: C_7  and  C_8
REMARK    4  A    between atoms: C_8  and  N_9
REMARK    5  A    between atoms: C_8  and  C_13
REMARK    6  A    between atoms: C_10  and  C_11
REMARK    7  A    between atoms: C_15  and  C_16
REMARK                            x       y       z     vdW  Elec       q    Type
REMARK                         _______ _______ _______ _____ _____    ______ ____
ROOT
ATOM      1  C   UNL     1       3.122   4.842  19.050  0.00  0.00    +0.000 C 
ENDROOT
BRANCH   1   6
ATOM      2  C   UNL     1       2.031   8.478  18.406  0.00  0.00    +0.000 A 
ATOM      3  C   UNL     1       1.522   8.823  19.656  0.00  0.00    +0.000 A 
ATOM      4  C   UNL     1       1.460   7.879  20.679  0.00  0.00    +0.000 A 
ATOM      5  C   UNL     1       1.950   6.588  20.472  0.00  0.00    +0.000 A 
ATOM      6  C   UNL     1       2.481   6.218  19.226  0.00  0.00    +0.000 A 
ATOM      7  C   UNL     1       2.460   7.169  18.184  0.00  0.00    +0.000 A 
BRANCH   2   9
ATOM      8  C   UNL     1       2.062  10.827  18.016  0.00  0.00    +0.000 C 
ATOM      9  O   UNL     1       2.074   9.501  17.497  0.00  0.00    +0.000 OA
ENDBRANCH   2   9
ENDBRANCH   1   6
BRANCH   1  10
ATOM     10  N   UNL     1       2.214   3.886  18.428  0.00  0.00    +0.000 N 
ATOM     11  C   UNL     1       1.304   3.058  18.994  0.00  0.00    +0.000 C 
ATOM     12  C   UNL     1       1.126   3.002  20.492  0.00  0.00    +0.000 C 
ATOM     13  O   UNL     1       0.609   2.361  18.256  0.00  0.00    +0.000 OA
ATOM     14  H   UNL     1       2.206   3.845  17.417  0.00  0.00    +0.000 HD
ENDBRANCH   1  10
BRANCH   1  15
ATOM     15  C   UNL     1       4.445   4.889  18.281  0.00  0.00    +0.000 A 
ATOM     16  N   UNL     1       4.542   4.801  16.965  0.00  0.00    +0.000 NA
ATOM     17  C   UNL     1       5.874   4.754  16.581  0.00  0.00    +0.000 A 
ATOM     18  C   UNL     1       6.783   4.853  17.614  0.00  0.00    +0.000 A 
ATOM     19  S   UNL     1       5.962   5.087  19.091  0.00  0.00    +0.000 S 
BRANCH  17  20
ATOM     20  C   UNL     1       6.260   4.628  15.184  0.00  0.00    +0.000 A 
ATOM     21  C   UNL     1       7.458   5.185  14.706  0.00  0.00    +0.000 A 
ATOM     22  C   UNL     1       7.804   5.070  13.359  0.00  0.00    +0.000 A 
ATOM     23  C   UNL     1       6.955   4.399  12.485  0.00  0.00    +0.000 A 
ATOM     24  F   UNL     1       7.305   4.306  11.194  0.00  0.00    +0.000 F 
ATOM     25  C   UNL     1       5.767   3.835  12.946  0.00  0.00    +0.000 A 
ATOM     26 CL   UNL     1       4.713   3.010  11.862  0.00  0.00    +0.000 Cl
ATOM     27  C   UNL     1       5.420   3.944  14.293  0.00  0.00    +0.000 A 
ENDBRANCH  17  20
ENDBRANCH   1  15
TORSDOF 5
ENDMDL
MODEL 3
REMARK VINA RESULT:      -8.5      0.956      1.600
REMARK  Name = 
REMARK  7 active torsions:
REMARK  status: ('A' for Active; 'I' for Inactive)
REMARK    1  A    between atoms: C_1  and  O_2
REMARK    2  A    between atoms: O_2  and  C_3
REMARK    3  A    between atoms: C_7  and  C_8
REMARK    4  A    between atoms: C_8  and  N_9
REMARK    5  A    between atoms: C_8  and  C_13
REMARK    6  A    between atoms: C_10  and  C_11
REMARK    7  A    between atoms: C_15  and  C_16
REMARK                            x       y       z     vdW  Elec       q    Type
REMARK                         _______ _______ _______ _____ _____    ______ ____
ROOT
ATOM      1  C   UNL     1       2.880   5.000  19.192  0.00  0.00    +0.000 C 
ENDROOT
BRANCH   1   6
ATOM      2  C   UNL     1       6.586   5.106  18.153  0.00  0.00    +0.000 A 
ATOM      3  C   UNL     1       6.518   4.538  16.883  0.00  0.00    +0.000 A 
ATOM      4  C   UNL     1       5.306   4.058  16.388  0.00  0.00    +0.000 A 
ATOM      5  C   UNL     1       4.141   4.182  17.146  0.00  0.00    +0.000 A 
ATOM      6  C   UNL     1       4.179   4.762  18.424  0.00  0.00    +0.000 A 
ATOM      7  C   UNL     1       5.431   5.169  18.933  0.00  0.00    +0.000 A 
BRANCH   2   9
ATOM      8  C   UNL     1       8.008   6.985  18.494  0.00  0.00    +0.000 C 
ATOM      9  O   UNL     1       7.822   5.573  18.510  0.00  0.00    +0.000 OA
ENDBRANCH   2   9
ENDBRANCH   1   6
BRANCH   1  10
ATOM     10  N   UNL     1       2.927   4.450  20.541  0.00  0.00    +0.000 N 
ATOM     11  C   UNL     1       2.120   3.540  21.136  0.00  0.00    +0.000 C 
ATOM     12  C   UNL     1       0.937   2.951  20.406  0.00  0.00    +0.000 C 
ATOM     13  O   UNL     1       2.383   3.189  22.285  0.00  0.00    +0.000 OA
ATOM     14  H   UNL     1       3.697   4.737  21.131  0.00  0.00    +0.000 HD
ENDBRANCH   1  10
BRANCH   1  15
ATOM     15  C   UNL     1       2.471   6.475  19.238  0.00  0.00    +0.000 A 
ATOM     16  N   UNL     1       1.823   7.035  20.246  0.00  0.00    +0.000 NA
ATOM     17  C   UNL     1       1.492   8.346  19.939  0.00  0.00    +0.000 A 
ATOM     18  C   UNL     1       1.935   8.788  18.710  0.00  0.00    +0.000 A 
ATOM     19  S   UNL     1       2.852   7.566  17.949  0.00  0.00    +0.000 S 
BRANCH  17  20
ATOM     20  C   UNL     1       0.748   9.182  20.869  0.00  0.00    +0.000 A 
ATOM     21  C   UNL     1       0.701   8.882  22.241  0.00  0.00    +0.000 A 
ATOM     22  C   UNL     1      -0.033   9.685  23.116  0.00  0.00    +0.000 A 
ATOM     23  C   UNL     1      -0.722  10.789  22.624  0.00  0.00    +0.000 A 
ATOM     24  F   UNL     1      -1.424  11.542  23.482  0.00  0.00    +0.000 F 
ATOM     25  C   UNL     1      -0.679  11.103  21.266  0.00  0.00    +0.000 A 
ATOM     26 CL   UNL     1      -1.537  12.465  20.657  0.00  0.00    +0.000 Cl
ATOM     27  C   UNL     1       0.058  10.305  20.390  0.00  0.00    +0.000 A 
ENDBRANCH  17  20
ENDBRANCH   1  15
TORSDOF 5
ENDMDL
MODEL 4
REMARK VINA RESULT:      -8.4      4.865      8.596
REMARK  Name = 
REMARK  7 active torsions:
REMARK  status: ('A' for Active; 'I' for Inactive)
REMARK    1  A    between atoms: C_1  and  O_2
REMARK    2  A    between atoms: O_2  and  C_3
REMARK    3  A    between atoms: C_7  and  C_8
REMARK    4  A    between atoms: C_8  and  N_9
REMARK    5  A    between atoms: C_8  and  C_13
REMARK    6  A    between atoms: C_10  and  C_11
REMARK    7  A    between atoms: C_15  and  C_16
REMARK                            x       y       z     vdW  Elec       q    Type
REMARK                         _______ _______ _______ _____ _____    ______ ____
ROOT
ATOM      1  C   UNL     1       3.191   5.234  18.946  0.00  0.00    +0.000 C 
ENDROOT
BRANCH   1   6
ATOM      2  C   UNL     1       1.403   8.402  20.207  0.00  0.00    +0.000 A 
ATOM      3  C   UNL     1       1.404   9.180  19.051  0.00  0.00    +0.000 A 
ATOM      4  C   UNL     1       2.036   8.726  17.895  0.00  0.00    +0.000 A 
ATOM      5  C   UNL     1       2.636   7.466  17.873  0.00  0.00    +0.000 A 
ATOM      6  C   UNL     1       2.637   6.656  19.019  0.00  0.00    +0.000 A 
ATOM      7  C   UNL     1       2.060   7.171  20.199  0.00  0.00    +0.000 A 
BRANCH   2   9
ATOM      8  C   UNL     1       0.078  10.192  21.050  0.00  0.00    +0.000 C 
ATOM      9  O   UNL     1       0.718   8.939  21.264  0.00  0.00    +0.000 OA
ENDBRANCH   2   9
ENDBRANCH   1   6
BRANCH   1  10
ATOM     10  N   UNL     1       2.230   4.297  18.375  0.00  0.00    +0.000 N 
ATOM     11  C   UNL     1       1.304   3.522  18.988  0.00  0.00    +0.000 C 
ATOM     12  C   UNL     1       1.163   3.516  20.491  0.00  0.00    +0.000 C 
ATOM     13  O   UNL     1       0.564   2.833  18.288  0.00  0.00    +0.000 OA
ATOM     14  H   UNL     1       2.195   4.227  17.366  0.00  0.00    +0.000 HD
ENDBRANCH   1  10
BRANCH   1  15
ATOM     15  C   UNL     1       4.522   5.145  18.195  0.00  0.00    +0.000 A 
ATOM     16  N   UNL     1       4.629   5.051  16.881  0.00  0.00    +0.000 NA
ATOM     17  C   UNL     1       5.954   4.867  16.515  0.00  0.00    +0.000 A 
ATOM     18  C   UNL     1       6.854   4.868  17.561  0.00  0.00    +0.000 A 
ATOM     19  S   UNL     1       6.040   5.182  19.028  0.00  0.00    +0.000 S 
BRANCH  17  20
ATOM     20  C   UNL     1       6.346   4.705  15.123  0.00  0.00    +0.000 A 
ATOM     21  C   UNL     1       7.512   5.305  14.620  0.00  0.00    +0.000 A 
ATOM     22  C   UNL     1       7.863   5.154  13.277  0.00  0.00    +0.000 A 
ATOM     23  C   UNL     1       7.050   4.404  12.433  0.00  0.00    +0.000 A 
ATOM     24  F   UNL     1       7.404   4.277  11.147  0.00  0.00    +0.000 F 
ATOM     25  C   UNL     1       5.893   3.798  12.920  0.00  0.00    +0.000 A 
ATOM     26 CL   UNL     1       4.884   2.875  11.874  0.00  0.00    +0.000 Cl
ATOM     27  C   UNL     1       5.542   3.942  14.264  0.00  0.00    +0.000 A 
ENDBRANCH  17  20
ENDBRANCH   1  15
TORSDOF 5
ENDMDL
MODEL 5
REMARK VINA RESULT:      -8.3      5.035      8.340
REMARK  Name = 
REMARK  7 active torsions:
REMARK  status: ('A' for Active; 'I' for Inactive)
REMARK    1  A    between atoms: C_1  and  O_2
REMARK    2  A    between atoms: O_2  and  C_3
REMARK    3  A    between atoms: C_7  and  C_8
REMARK    4  A    between atoms: C_8  and  N_9
REMARK    5  A    between atoms: C_8  and  C_13
REMARK    6  A    between atoms: C_10  and  C_11
REMARK    7  A    between atoms: C_15  and  C_16
REMARK                            x       y       z     vdW  Elec       q    Type
REMARK                         _______ _______ _______ _____ _____    ______ ____
ROOT
ATOM      1  C   UNL     1       3.077   4.829  19.145  0.00  0.00    +0.000 C 
ENDROOT
BRANCH   1   6
ATOM      2  C   UNL     1       2.043   8.481  18.496  0.00  0.00    +0.000 A 
ATOM      3  C   UNL     1       1.520   8.829  19.740  0.00  0.00    +0.000 A 
ATOM      4  C   UNL     1       1.431   7.882  20.760  0.00  0.00    +0.000 A 
ATOM      5  C   UNL     1       1.907   6.586  20.555  0.00  0.00    +0.000 A 
ATOM      6  C   UNL     1       2.452   6.212  19.316  0.00  0.00    +0.000 A 
ATOM      7  C   UNL     1       2.459   7.167  18.277  0.00  0.00    +0.000 A 
BRANCH   2   9
ATOM      8  C   UNL     1       1.865  10.819  18.083  0.00  0.00    +0.000 C 
ATOM      9  O   UNL     1       2.113   9.506  17.592  0.00  0.00    +0.000 OA
ENDBRANCH   2   9
ENDBRANCH   1   6
BRANCH   1  10
ATOM     10  N   UNL     1       2.151   3.875  18.547  0.00  0.00    +0.000 N 
ATOM     11  C   UNL     1       1.267   3.036  19.137  0.00  0.00    +0.000 C 
ATOM     12  C   UNL     1       1.145   2.962  20.640  0.00  0.00    +0.000 C 
ATOM     13  O   UNL     1       0.549   2.344  18.417  0.00  0.00    +0.000 OA
ATOM     14  H   UNL     1       2.107   3.845  17.536  0.00  0.00    +0.000 HD
ENDBRANCH   1  10
BRANCH   1  15
ATOM     15  C   UNL     1       4.389   4.856  18.357  0.00  0.00    +0.000 A 
ATOM     16  N   UNL     1       4.467   4.743  17.041  0.00  0.00    +0.000 NA
ATOM     17  C   UNL     1       5.793   4.683  16.639  0.00  0.00    +0.000 A 
ATOM     18  C   UNL     1       6.717   4.796  17.657  0.00  0.00    +0.000 A 
ATOM     19  S   UNL     1       5.919   5.061  19.142  0.00  0.00    +0.000 S 
BRANCH  17  20
ATOM     20  C   UNL     1       6.159   4.530  15.239  0.00  0.00    +0.000 A 
ATOM     21  C   UNL     1       5.450   3.662  14.392  0.00  0.00    +0.000 A 
ATOM     22  C   UNL     1       5.827   3.514  13.055  0.00  0.00    +0.000 A 
ATOM     23  C   UNL     1       6.912   4.233  12.562  0.00  0.00    +0.000 A 
ATOM     24  F   UNL     1       7.258   4.071  11.278  0.00  0.00    +0.000 F 
ATOM     25  C   UNL     1       7.620   5.102  13.390  0.00  0.00    +0.000 A 
ATOM     26 CL   UNL     1       8.967   5.985  12.781  0.00  0.00    +0.000 Cl
ATOM     27  C   UNL     1       7.243   5.256  14.725  0.00  0.00    +0.000 A 
ENDBRANCH  17  20
ENDBRANCH   1  15
TORSDOF 5
ENDMDL
MODEL 6
REMARK VINA RESULT:      -8.2      4.878      8.582
REMARK  Name = 
REMARK  7 active torsions:
REMARK  status: ('A' for Active; 'I' for Inactive)
REMARK    1  A    between atoms: C_1  and  O_2
REMARK    2  A    between atoms: O_2  and  C_3
REMARK    3  A    between atoms: C_7  and  C_8
REMARK    4  A    between atoms: C_8  and  N_9
REMARK    5  A    between atoms: C_8  and  C_13
REMARK    6  A    between atoms: C_10  and  C_11
REMARK    7  A    between atoms: C_15  and  C_16
REMARK                            x       y       z     vdW  Elec       q    Type
REMARK                         _______ _______ _______ _____ _____    ______ ____
ROOT
ATOM      1  C   UNL     1       3.102   5.074  19.109  0.00  0.00    +0.000 C 
ENDROOT
BRANCH   1   6
ATOM      2  C   UNL     1       1.334   8.196  20.506  0.00  0.00    +0.000 A 
ATOM      3  C   UNL     1       1.325   9.017  19.380  0.00  0.00    +0.000 A 
ATOM      4  C   UNL     1       1.944   8.606  18.200  0.00  0.00    +0.000 A 
ATOM      5  C   UNL     1       2.541   7.346  18.125  0.00  0.00    +0.000 A 
ATOM      6  C   UNL     1       2.552   6.493  19.241  0.00  0.00    +0.000 A 
ATOM      7  C   UNL     1       1.988   6.965  20.445  0.00  0.00    +0.000 A 
BRANCH   2   9
ATOM      8  C   UNL     1       0.018   9.954  21.427  0.00  0.00    +0.000 C 
ATOM      9  O   UNL     1       0.662   8.695  21.589  0.00  0.00    +0.000 OA
ENDBRANCH   2   9
ENDBRANCH   1   6
BRANCH   1  10
ATOM     10  N   UNL     1       2.129   4.158  18.525  0.00  0.00    +0.000 N 
ATOM     11  C   UNL     1       1.230   3.346  19.129  0.00  0.00    +0.000 C 
ATOM     12  C   UNL     1       1.141   3.264  20.633  0.00  0.00    +0.000 C 
ATOM     13  O   UNL     1       0.472   2.685  18.420  0.00  0.00    +0.000 OA
ATOM     14  H   UNL     1       2.060   4.139  17.515  0.00  0.00    +0.000 HD
ENDBRANCH   1  10
BRANCH   1  15
ATOM     15  C   UNL     1       4.419   5.010  18.331  0.00  0.00    +0.000 A 
ATOM     16  N   UNL     1       4.501   4.898  17.016  0.00  0.00    +0.000 NA
ATOM     17  C   UNL     1       5.822   4.744  16.624  0.00  0.00    +0.000 A 
ATOM     18  C   UNL     1       6.743   4.785  17.651  0.00  0.00    +0.000 A 
ATOM     19  S   UNL     1       5.953   5.100  19.130  0.00  0.00    +0.000 S 
BRANCH  17  20
ATOM     20  C   UNL     1       6.188   4.572  15.227  0.00  0.00    +0.000 A 
ATOM     21  C   UNL     1       5.480   3.692  14.392  0.00  0.00    +0.000 A 
ATOM     22  C   UNL     1       5.857   3.525  13.057  0.00  0.00    +0.000 A 
ATOM     23  C   UNL     1       6.942   4.237  12.555  0.00  0.00    +0.000 A 
ATOM     24  F   UNL     1       7.288   4.058  11.272  0.00  0.00    +0.000 F 
ATOM     25  C   UNL     1       7.650   5.119  13.370  0.00  0.00    +0.000 A 
ATOM     26 CL   UNL     1       8.996   5.993  12.749  0.00  0.00    +0.000 Cl
ATOM     27  C   UNL     1       7.272   5.291  14.703  0.00  0.00    +0.000 A 
ENDBRANCH  17  20
ENDBRANCH   1  15
TORSDOF 5
ENDMDL
MODEL 7
REMARK VINA RESULT:      -8.0      5.149      8.554
REMARK  Name = 
REMARK  7 active torsions:
REMARK  status: ('A' for Active; 'I' for Inactive)
REMARK    1  A    between atoms: C_1  and  O_2
REMARK    2  A    between atoms: O_2  and  C_3
REMARK    3  A    between atoms: C_7  and  C_8
REMARK    4  A    between atoms: C_8  and  N_9
REMARK    5  A    between atoms: C_8  and  C_13
REMARK    6  A    between atoms: C_10  and  C_11
REMARK    7  A    between atoms: C_15  and  C_16
REMARK                            x       y       z     vdW  Elec       q    Type
REMARK                         _______ _______ _______ _____ _____    ______ ____
ROOT
ATOM      1  C   UNL     1       0.539  10.903  19.126  0.00  0.00    +0.000 C 
ENDROOT
BRANCH   1   6
ATOM      2  C   UNL     1      -2.472  10.085  16.871  0.00  0.00    +0.000 A 
ATOM      3  C   UNL     1      -3.458  10.878  17.454  0.00  0.00    +0.000 A 
ATOM      4  C   UNL     1      -3.183  11.615  18.605  0.00  0.00    +0.000 A 
ATOM      5  C   UNL     1      -1.902  11.598  19.158  0.00  0.00    +0.000 A 
ATOM      6  C   UNL     1      -0.886  10.818  18.582  0.00  0.00    +0.000 A 
ATOM      7  C   UNL     1      -1.211  10.021  17.464  0.00  0.00    +0.000 A 
BRANCH   2   9
ATOM      8  C   UNL     1      -3.337  10.249  14.658  0.00  0.00    +0.000 C 
ATOM      9  O   UNL     1      -2.853   9.440  15.725  0.00  0.00    +0.000 OA
ENDBRANCH   2   9
ENDBRANCH   1   6
BRANCH   1  10
ATOM     10  N   UNL     1       0.631  11.758  20.304  0.00  0.00    +0.000 N 
ATOM     11  C   UNL     1       1.396  12.853  20.524  0.00  0.00    +0.000 C 
ATOM     12  C   UNL     1       2.366  13.349  19.480  0.00  0.00    +0.000 C 
ATOM     13  O   UNL     1       1.271  13.447  21.594  0.00  0.00    +0.000 OA
ATOM     14  H   UNL     1       0.004  11.555  21.072  0.00  0.00    +0.000 HD
ENDBRANCH   1  10
BRANCH   1  15
ATOM     15  C   UNL     1       1.152   9.531  19.422  0.00  0.00    +0.000 A 
ATOM     16  N   UNL     1       1.843   8.822  18.545  0.00  0.00    +0.000 NA
ATOM     17  C   UNL     1       2.159   7.578  19.071  0.00  0.00    +0.000 A 
ATOM     18  C   UNL     1       1.740   7.370  20.369  0.00  0.00    +0.000 A 
ATOM     19  S   UNL     1       1.003   8.784  20.977  0.00  0.00    +0.000 S 
BRANCH  17  20
ATOM     20  C   UNL     1       2.895   6.589  18.300  0.00  0.00    +0.000 A 
ATOM     21  C   UNL     1       4.045   6.939  17.573  0.00  0.00    +0.000 A 
ATOM     22  C   UNL     1       4.728   5.980  16.823  0.00  0.00    +0.000 A 
ATOM     23  C   UNL     1       4.265   4.669  16.797  0.00  0.00    +0.000 A 
ATOM     24  F   UNL     1       4.934   3.766  16.066  0.00  0.00    +0.000 F 
ATOM     25  C   UNL     1       3.129   4.305  17.518  0.00  0.00    +0.000 A 
ATOM     26 CL   UNL     1       2.552   2.683  17.479  0.00  0.00    +0.000 Cl
ATOM     27  C   UNL     1       2.446   5.260  18.273  0.00  0.00    +0.000 A 
ENDBRANCH  17  20
ENDBRANCH   1  15
TORSDOF 5
ENDMDL
MODEL 8
REMARK VINA RESULT:      -7.8      1.660      4.082
REMARK  Name = 
REMARK  7 active torsions:
REMARK  status: ('A' for Active; 'I' for Inactive)
REMARK    1  A    between atoms: C_1  and  O_2
REMARK    2  A    between atoms: O_2  and  C_3
REMARK    3  A    between atoms: C_7  and  C_8
REMARK    4  A    between atoms: C_8  and  N_9
REMARK    5  A    between atoms: C_8  and  C_13
REMARK    6  A    between atoms: C_10  and  C_11
REMARK    7  A    between atoms: C_15  and  C_16
REMARK                            x       y       z     vdW  Elec       q    Type
REMARK                         _______ _______ _______ _____ _____    ______ ____
ROOT
ATOM      1  C   UNL     1       3.209   6.702  18.806  0.00  0.00    +0.000 C 
ENDROOT
BRANCH   1   6
ATOM      2  C   UNL     1       1.307   3.555  19.950  0.00  0.00    +0.000 A 
ATOM      3  C   UNL     1       1.204   2.861  18.746  0.00  0.00    +0.000 A 
ATOM      4  C   UNL     1       1.674   3.426  17.562  0.00  0.00    +0.000 A 
ATOM      5  C   UNL     1       2.294   4.676  17.580  0.00  0.00    +0.000 A 
ATOM      6  C   UNL     1       2.424   5.392  18.781  0.00  0.00    +0.000 A 
ATOM      7  C   UNL     1       1.869   4.833  19.952  0.00  0.00    +0.000 A 
BRANCH   2   9
ATOM      8  C   UNL     1       1.806   2.496  22.023  0.00  0.00    +0.000 C 
ATOM      9  O   UNL     1       0.844   2.881  21.047  0.00  0.00    +0.000 OA
ENDBRANCH   2   9
ENDBRANCH   1   6
BRANCH   1  10
ATOM     10  N   UNL     1       4.095   6.836  17.656  0.00  0.00    +0.000 N 
ATOM     11  C   UNL     1       5.364   6.396  17.482  0.00  0.00    +0.000 C 
ATOM     12  C   UNL     1       6.094   5.666  18.583  0.00  0.00    +0.000 C 
ATOM     13  O   UNL     1       5.905   6.591  16.394  0.00  0.00    +0.000 OA
ATOM     14  H   UNL     1       3.716   7.280  16.830  0.00  0.00    +0.000 HD
ENDBRANCH   1  10
BRANCH   1  15
ATOM     15  C   UNL     1       2.313   7.937  18.928  0.00  0.00    +0.000 A 
ATOM     16  N   UNL     1       1.735   8.328  20.052  0.00  0.00    +0.000 NA
ATOM     17  C   UNL     1       0.894   9.404  19.814  0.00  0.00    +0.000 A 
ATOM     18  C   UNL     1       0.875   9.854  18.510  0.00  0.00    +0.000 A 
ATOM     19  S   UNL     1       1.989   8.964  17.572  0.00  0.00    +0.000 S 
BRANCH  17  20
ATOM     20  C   UNL     1       0.112  10.011  20.881  0.00  0.00    +0.000 A 
ATOM     21  C   UNL     1       0.019   9.411  22.148  0.00  0.00    +0.000 A 
ATOM     22  C   UNL     1      -0.750   9.999  23.154  0.00  0.00    +0.000 A 
ATOM     23  C   UNL     1      -1.428  11.186  22.898  0.00  0.00    +0.000 A 
ATOM     24  F   UNL     1      -2.164  11.729  23.878  0.00  0.00    +0.000 F 
ATOM     25  C   UNL     1      -1.339  11.796  21.648  0.00  0.00    +0.000 A 
ATOM     26 CL   UNL     1      -2.185  13.262  21.330  0.00  0.00    +0.000 Cl
ATOM     27  C   UNL     1      -0.567  11.215  20.641  0.00  0.00    +0.000 A 
ENDBRANCH  17  20
ENDBRANCH   1  15
TORSDOF 5
ENDMDL
MODEL 9
REMARK VINA RESULT:      -7.8      1.115      1.487
REMARK  Name = 
REMARK  7 active torsions:
REMARK  status: ('A' for Active; 'I' for Inactive)
REMARK    1  A    between atoms: C_1  and  O_2
REMARK    2  A    between atoms: O_2  and  C_3
REMARK    3  A    between atoms: C_7  and  C_8
REMARK    4  A    between atoms: C_8  and  N_9
REMARK    5  A    between atoms: C_8  and  C_13
REMARK    6  A    between atoms: C_10  and  C_11
REMARK    7  A    between atoms: C_15  and  C_16
REMARK                            x       y       z     vdW  Elec       q    Type
REMARK                         _______ _______ _______ _____ _____    ______ ____
ROOT
ATOM      1  C   UNL     1       3.384   5.251  18.657  0.00  0.00    +0.000 C 
ENDROOT
BRANCH   1   6
ATOM      2  C   UNL     1       6.330   4.281  16.374  0.00  0.00    +0.000 A 
ATOM      3  C   UNL     1       7.409   4.550  17.214  0.00  0.00    +0.000 A 
ATOM      4  C   UNL     1       7.203   5.106  18.475  0.00  0.00    +0.000 A 
ATOM      5  C   UNL     1       5.906   5.357  18.926  0.00  0.00    +0.000 A 
ATOM      6  C   UNL     1       4.799   5.084  18.106  0.00  0.00    +0.000 A 
ATOM      7  C   UNL     1       5.039   4.595  16.804  0.00  0.00    +0.000 A 
BRANCH   2   9
ATOM      8  C   UNL     1       5.917   4.114  14.036  0.00  0.00    +0.000 C 
ATOM      9  O   UNL     1       6.658   3.702  15.179  0.00  0.00    +0.000 OA
ENDBRANCH   2   9
ENDBRANCH   1   6
BRANCH   1  10
ATOM     10  N   UNL     1       3.253   4.726  20.010  0.00  0.00    +0.000 N 
ATOM     11  C   UNL     1       2.270   3.974  20.559  0.00  0.00    +0.000 C 
ATOM     12  C   UNL     1       1.054   3.575  19.758  0.00  0.00    +0.000 C 
ATOM     13  O   UNL     1       2.397   3.607  21.726  0.00  0.00    +0.000 OA
ATOM     14  H   UNL     1       4.021   4.894  20.648  0.00  0.00    +0.000 HD
ENDBRANCH   1  10
BRANCH   1  15
ATOM     15  C   UNL     1       2.885   6.698  18.601  0.00  0.00    +0.000 A 
ATOM     16  N   UNL     1       2.124   7.257  19.527  0.00  0.00    +0.000 NA
ATOM     17  C   UNL     1       1.741   8.531  19.134  0.00  0.00    +0.000 A 
ATOM     18  C   UNL     1       2.257   8.947  17.924  0.00  0.00    +0.000 A 
ATOM     19  S   UNL     1       3.304   7.756  17.296  0.00  0.00    +0.000 S 
BRANCH  17  20
ATOM     20  C   UNL     1       0.875   9.356  19.962  0.00  0.00    +0.000 A 
ATOM     21  C   UNL     1       0.141  10.420  19.413  0.00  0.00    +0.000 A 
ATOM     22  C   UNL     1      -0.672  11.213  20.226  0.00  0.00    +0.000 A 
ATOM     23  C   UNL     1      -0.753  10.945  21.589  0.00  0.00    +0.000 A 
ATOM     24  F   UNL     1      -1.535  11.722  22.350  0.00  0.00    +0.000 F 
ATOM     25  C   UNL     1      -0.035   9.888  22.146  0.00  0.00    +0.000 A 
ATOM     26 CL   UNL     1      -0.130   9.562  23.834  0.00  0.00    +0.000 Cl
ATOM     27  C   UNL     1       0.774   9.090  21.335  0.00  0.00    +0.000 A 
ENDBRANCH  17  20
ENDBRANCH   1  15
TORSDOF 5
ENDMDL
