MODEL 1
REMARK VINA RESULT:      -8.0      0.000      0.000
REMARK  Name = 
REMARK  6 active torsions:
REMARK  status: ('A' for Active; 'I' for Inactive)
REMARK    1  A    between atoms: C_2  and  O_3
REMARK    2  A    between atoms: C_2  and  C_4
REMARK    3  A    between atoms: C_9  and  C_10
REMARK    4  A    between atoms: N_11  and  O_12
REMARK    5  A    between atoms: O_12  and  C_13
REMARK    6  A    between atoms: C_17  and  C_18
REMARK                            x       y       z     vdW  Elec       q    Type
REMARK                         _______ _______ _______ _____ _____    ______ ____
ROOT
ATOM      1  C   UNL     1       4.625   3.480  19.006  0.00  0.00    +0.000 C 
ATOM      2  N   UNL     1       5.593   4.208  19.449  0.00  0.00    +0.000 NA
ENDROOT
BRANCH   1   8
ATOM      3  C   UNL     1       2.116   3.820  19.276  0.00  0.00    +0.000 A 
ATOM      4  C   UNL     1       0.961   3.550  20.034  0.00  0.00    +0.000 A 
ATOM      5  C   UNL     1       1.043   2.882  21.255  0.00  0.00    +0.000 A 
ATOM      6  C   UNL     1       2.283   2.474  21.739  0.00  0.00    +0.000 A 
ATOM      7  C   UNL     1       3.437   2.722  20.996  0.00  0.00    +0.000 A 
ATOM      8  C   UNL     1       3.359   3.377  19.757  0.00  0.00    +0.000 A 
BRANCH   3  10
ATOM      9  O   UNL     1       1.186   4.126  17.115  0.00  0.00    +0.000 OA
ATOM     10  C   UNL     1       1.870   4.582  18.015  0.00  0.00    +0.000 C 
BRANCH  10  11
ATOM     11  O   UNL     1       2.258   5.874  18.056  0.00  0.00    +0.000 OA
ATOM     12  H   UNL     1       3.220   5.996  18.134  0.00  0.00    +0.000 HD
ENDBRANCH  10  11
ENDBRANCH   3  10
ENDBRANCH   1   8
BRANCH   2  13
ATOM     13  O   UNL     1       6.652   4.210  18.532  0.00  0.00    +0.000 OA
BRANCH  13  14
ATOM     14  C   UNL     1       6.237   4.782  17.349  0.00  0.00    +0.000 A 
ATOM     15  C   UNL     1       5.638   6.040  17.434  0.00  0.00    +0.000 A 
ATOM     16  C   UNL     1       5.173   6.675  16.281  0.00  0.00    +0.000 A 
ATOM     17  C   UNL     1       5.291   6.046  15.039  0.00  0.00    +0.000 A 
ATOM     18  C   UNL     1       5.878   4.778  14.938  0.00  0.00    +0.000 A 
ATOM     19  C   UNL     1       6.349   4.153  16.105  0.00  0.00    +0.000 A 
BRANCH  18  20
ATOM     20  C   UNL     1       6.004   4.072  13.610  0.00  0.00    +0.000 C 
ATOM     21  F   UNL     1       6.390   2.769  13.727  0.00  0.00    +0.000 F 
ATOM     22  F   UNL     1       4.837   4.049  12.912  0.00  0.00    +0.000 F 
ATOM     23  F   UNL     1       6.924   4.656  12.795  0.00  0.00    +0.000 F 
ENDBRANCH  18  20
ENDBRANCH  13  14
ENDBRANCH   2  13
TORSDOF 6
ENDMDL
MODEL 2
REMARK VINA RESULT:      -7.9      0.139      1.055
REMARK  Name = 
REMARK  6 active torsions:
REMARK  status: ('A' for Active; 'I' for Inactive)
REMARK    1  A    between atoms: C_2  and  O_3
REMARK    2  A    between atoms: C_2  and  C_4
REMARK    3  A    between atoms: C_9  and  C_10
REMARK    4  A    between atoms: N_11  and  O_12
REMARK    5  A    between atoms: O_12  and  C_13
REMARK    6  A    between atoms: C_17  and  C_18
REMARK                            x       y       z     vdW  Elec       q    Type
REMARK                         _______ _______ _______ _____ _____    ______ ____
ROOT
ATOM      1  C   UNL     1       4.627   3.403  19.002  0.00  0.00    +0.000 C 
ATOM      2  N   UNL     1       5.573   4.205  19.356  0.00  0.00    +0.000 NA
ENDROOT
BRANCH   1   8
ATOM      3  C   UNL     1       2.136   3.826  19.318  0.00  0.00    +0.000 A 
ATOM      4  C   UNL     1       0.986   3.588  20.094  0.00  0.00    +0.000 A 
ATOM      5  C   UNL     1       1.066   2.907  21.307  0.00  0.00    +0.000 A 
ATOM      6  C   UNL     1       2.298   2.453  21.767  0.00  0.00    +0.000 A 
ATOM      7  C   UNL     1       3.448   2.667  21.006  0.00  0.00    +0.000 A 
ATOM      8  C   UNL     1       3.372   3.337  19.774  0.00  0.00    +0.000 A 
BRANCH   3  10
ATOM      9  O   UNL     1       2.195   5.786  17.983  0.00  0.00    +0.000 OA
ATOM     10  C   UNL     1       1.895   4.607  18.068  0.00  0.00    +0.000 C 
BRANCH  10  11
ATOM     11  O   UNL     1       1.552   3.862  16.997  0.00  0.00    +0.000 OA
ATOM     12  H   UNL     1       2.005   3.002  16.953  0.00  0.00    +0.000 HD
ENDBRANCH  10  11
ENDBRANCH   3  10
ENDBRANCH   1   8
BRANCH   2  13
ATOM     13  O   UNL     1       6.625   4.147  18.433  0.00  0.00    +0.000 OA
BRANCH  13  14
ATOM     14  C   UNL     1       6.228   4.727  17.246  0.00  0.00    +0.000 A 
ATOM     15  C   UNL     1       5.643   5.991  17.328  0.00  0.00    +0.000 A 
ATOM     16  C   UNL     1       5.196   6.633  16.171  0.00  0.00    +0.000 A 
ATOM     17  C   UNL     1       5.322   6.006  14.929  0.00  0.00    +0.000 A 
ATOM     18  C   UNL     1       5.896   4.732  14.832  0.00  0.00    +0.000 A 
ATOM     19  C   UNL     1       6.347   4.099  16.002  0.00  0.00    +0.000 A 
BRANCH  18  20
ATOM     20  C   UNL     1       6.029   4.028  13.503  0.00  0.00    +0.000 C 
ATOM     21  F   UNL     1       6.950   4.603  12.679  0.00  0.00    +0.000 F 
ATOM     22  F   UNL     1       6.408   2.728  13.630  0.00  0.00    +0.000 F 
ATOM     23  F   UNL     1       4.863   4.018  12.801  0.00  0.00    +0.000 F 
ENDBRANCH  18  20
ENDBRANCH  13  14
ENDBRANCH   2  13
TORSDOF 6
ENDMDL
MODEL 3
REMARK VINA RESULT:      -7.7      0.707      1.165
REMARK  Name = 
REMARK  6 active torsions:
REMARK  status: ('A' for Active; 'I' for Inactive)
REMARK    1  A    between atoms: C_2  and  O_3
REMARK    2  A    between atoms: C_2  and  C_4
REMARK    3  A    between atoms: C_9  and  C_10
REMARK    4  A    between atoms: N_11  and  O_12
REMARK    5  A    between atoms: O_12  and  C_13
REMARK    6  A    between atoms: C_17  and  C_18
REMARK                            x       y       z     vdW  Elec       q    Type
REMARK                         _______ _______ _______ _____ _____    ______ ____
ROOT
ATOM      1  C   UNL     1       4.792   3.648  19.162  0.00  0.00    +0.000 C 
ATOM      2  N   UNL     1       5.769   4.411  19.518  0.00  0.00    +0.000 NA
ENDROOT
BRANCH   1   8
ATOM      3  C   UNL     1       2.523   4.538  19.899  0.00  0.00    +0.000 A 
ATOM      4  C   UNL     1       1.339   4.301  20.623  0.00  0.00    +0.000 A 
ATOM      5  C   UNL     1       1.197   3.164  21.416  0.00  0.00    +0.000 A 
ATOM      6  C   UNL     1       2.237   2.244  21.501  0.00  0.00    +0.000 A 
ATOM      7  C   UNL     1       3.414   2.454  20.781  0.00  0.00    +0.000 A 
ATOM      8  C   UNL     1       3.557   3.589  19.966  0.00  0.00    +0.000 A 
BRANCH   3  10
ATOM      9  O   UNL     1       2.241   5.864  17.953  0.00  0.00    +0.000 OA
ATOM     10  C   UNL     1       2.541   5.820  19.134  0.00  0.00    +0.000 C 
BRANCH  10  11
ATOM     11  O   UNL     1       2.679   6.926  19.894  0.00  0.00    +0.000 OA
ATOM     12  H   UNL     1       2.658   7.758  19.390  0.00  0.00    +0.000 HD
ENDBRANCH  10  11
ENDBRANCH   3  10
ENDBRANCH   1   8
BRANCH   2  13
ATOM     13  O   UNL     1       6.794   4.358  18.564  0.00  0.00    +0.000 OA
BRANCH  13  14
ATOM     14  C   UNL     1       6.345   4.897  17.376  0.00  0.00    +0.000 A 
ATOM     15  C   UNL     1       5.750   6.158  17.442  0.00  0.00    +0.000 A 
ATOM     16  C   UNL     1       5.253   6.759  16.284  0.00  0.00    +0.000 A 
ATOM     17  C   UNL     1       5.336   6.095  15.058  0.00  0.00    +0.000 A 
ATOM     18  C   UNL     1       5.919   4.823  14.978  0.00  0.00    +0.000 A 
ATOM     19  C   UNL     1       6.422   4.232  16.148  0.00  0.00    +0.000 A 
BRANCH  18  20
ATOM     20  C   UNL     1       6.007   4.079  13.667  0.00  0.00    +0.000 C 
ATOM     21  F   UNL     1       6.905   4.625  12.798  0.00  0.00    +0.000 F 
ATOM     22  F   UNL     1       6.383   2.782  13.821  0.00  0.00    +0.000 F 
ATOM     23  F   UNL     1       4.819   4.055  13.002  0.00  0.00    +0.000 F 
ENDBRANCH  18  20
ENDBRANCH  13  14
ENDBRANCH   2  13
TORSDOF 6
ENDMDL
MODEL 4
REMARK VINA RESULT:      -7.7      5.707      7.209
REMARK  Name = 
REMARK  6 active torsions:
REMARK  status: ('A' for Active; 'I' for Inactive)
REMARK    1  A    between atoms: C_2  and  O_3
REMARK    2  A    between atoms: C_2  and  C_4
REMARK    3  A    between atoms: C_9  and  C_10
REMARK    4  A    between atoms: N_11  and  O_12
REMARK    5  A    between atoms: O_12  and  C_13
REMARK    6  A    between atoms: C_17  and  C_18
REMARK                            x       y       z     vdW  Elec       q    Type
REMARK                         _______ _______ _______ _____ _____    ______ ____
ROOT
ATOM      1  C   UNL     1       2.719   5.890  17.931  0.00  0.00    +0.000 C 
ATOM      2  N   UNL     1       2.745   6.743  18.899  0.00  0.00    +0.000 NA
ENDROOT
BRANCH   1   8
ATOM      3  C   UNL     1       3.751   3.621  18.450  0.00  0.00    +0.000 A 
ATOM      4  C   UNL     1       3.534   2.283  18.829  0.00  0.00    +0.000 A 
ATOM      5  C   UNL     1       2.244   1.767  18.937  0.00  0.00    +0.000 A 
ATOM      6  C   UNL     1       1.147   2.580  18.666  0.00  0.00    +0.000 A 
ATOM      7  C   UNL     1       1.341   3.913  18.301  0.00  0.00    +0.000 A 
ATOM      8  C   UNL     1       2.637   4.443  18.209  0.00  0.00    +0.000 A 
BRANCH   3  10
ATOM      9  O   UNL     1       5.847   4.319  19.312  0.00  0.00    +0.000 OA
ATOM     10  C   UNL     1       5.187   4.012  18.335  0.00  0.00    +0.000 C 
BRANCH  10  11
ATOM     11  O   UNL     1       5.739   3.771  17.127  0.00  0.00    +0.000 OA
ATOM     12  H   UNL     1       5.182   3.232  16.539  0.00  0.00    +0.000 HD
ENDBRANCH  10  11
ENDBRANCH   3  10
ENDBRANCH   1   8
BRANCH   2  13
ATOM     13  O   UNL     1       2.745   8.048  18.391  0.00  0.00    +0.000 OA
BRANCH  13  14
ATOM     14  C   UNL     1       1.679   8.747  18.917  0.00  0.00    +0.000 A 
ATOM     15  C   UNL     1       0.948   9.541  18.033  0.00  0.00    +0.000 A 
ATOM     16  C   UNL     1      -0.132  10.294  18.496  0.00  0.00    +0.000 A 
ATOM     17  C   UNL     1      -0.477  10.267  19.850  0.00  0.00    +0.000 A 
ATOM     18  C   UNL     1       0.256   9.485  20.753  0.00  0.00    +0.000 A 
ATOM     19  C   UNL     1       1.336   8.726  20.273  0.00  0.00    +0.000 A 
BRANCH  18  20
ATOM     20  C   UNL     1      -0.087   9.451  22.223  0.00  0.00    +0.000 C 
ATOM     21  F   UNL     1      -0.942   8.440  22.552  0.00  0.00    +0.000 F 
ATOM     22  F   UNL     1       1.005   9.285  23.016  0.00  0.00    +0.000 F 
ATOM     23  F   UNL     1      -0.693  10.595  22.642  0.00  0.00    +0.000 F 
ENDBRANCH  18  20
ENDBRANCH  13  14
ENDBRANCH   2  13
TORSDOF 6
ENDMDL
MODEL 5
REMARK VINA RESULT:      -7.6      1.688      2.307
REMARK  Name = 
REMARK  6 active torsions:
REMARK  status: ('A' for Active; 'I' for Inactive)
REMARK    1  A    between atoms: C_2  and  O_3
REMARK    2  A    between atoms: C_2  and  C_4
REMARK    3  A    between atoms: C_9  and  C_10
REMARK    4  A    between atoms: N_11  and  O_12
REMARK    5  A    between atoms: O_12  and  C_13
REMARK    6  A    between atoms: C_17  and  C_18
REMARK                            x       y       z     vdW  Elec       q    Type
REMARK                         _______ _______ _______ _____ _____    ______ ____
ROOT
ATOM      1  C   UNL     1       3.481   5.712  19.003  0.00  0.00    +0.000 C 
ATOM      2  N   UNL     1       2.929   6.428  18.084  0.00  0.00    +0.000 NA
ENDROOT
BRANCH   1   8
ATOM      3  C   UNL     1       2.635   3.310  18.972  0.00  0.00    +0.000 A 
ATOM      4  C   UNL     1       2.038   2.258  19.692  0.00  0.00    +0.000 A 
ATOM      5  C   UNL     1       1.555   2.455  20.984  0.00  0.00    +0.000 A 
ATOM      6  C   UNL     1       1.659   3.709  21.579  0.00  0.00    +0.000 A 
ATOM      7  C   UNL     1       2.259   4.762  20.887  0.00  0.00    +0.000 A 
ATOM      8  C   UNL     1       2.764   4.565  19.592  0.00  0.00    +0.000 A 
BRANCH   3  10
ATOM      9  O   UNL     1       2.334   3.144  16.625  0.00  0.00    +0.000 OA
ATOM     10  C   UNL     1       3.061   2.955  17.585  0.00  0.00    +0.000 C 
BRANCH  10  11
ATOM     11  O   UNL     1       4.368   2.642  17.462  0.00  0.00    +0.000 OA
ATOM     12  H   UNL     1       4.904   3.340  17.048  0.00  0.00    +0.000 HD
ENDBRANCH  10  11
ENDBRANCH   3  10
ENDBRANCH   1   8
BRANCH   2  13
ATOM     13  O   UNL     1       3.826   7.404  17.630  0.00  0.00    +0.000 OA
BRANCH  13  14
ATOM     14  C   UNL     1       4.951   6.793  17.118  0.00  0.00    +0.000 A 
ATOM     15  C   UNL     1       6.178   7.181  17.657  0.00  0.00    +0.000 A 
ATOM     16  C   UNL     1       7.363   6.622  17.176  0.00  0.00    +0.000 A 
ATOM     17  C   UNL     1       7.326   5.682  16.143  0.00  0.00    +0.000 A 
ATOM     18  C   UNL     1       6.102   5.292  15.582  0.00  0.00    +0.000 A 
ATOM     19  C   UNL     1       4.917   5.856  16.080  0.00  0.00    +0.000 A 
BRANCH  18  20
ATOM     20  C   UNL     1       6.038   4.290  14.455  0.00  0.00    +0.000 C 
ATOM     21  F   UNL     1       4.846   4.302  13.792  0.00  0.00    +0.000 F 
ATOM     22  F   UNL     1       6.989   4.500  13.506  0.00  0.00    +0.000 F 
ATOM     23  F   UNL     1       6.205   3.009  14.886  0.00  0.00    +0.000 F 
ENDBRANCH  18  20
ENDBRANCH  13  14
ENDBRANCH   2  13
TORSDOF 6
ENDMDL
MODEL 6
REMARK VINA RESULT:      -7.6      6.008      8.401
REMARK  Name = 
REMARK  6 active torsions:
REMARK  status: ('A' for Active; 'I' for Inactive)
REMARK    1  A    between atoms: C_2  and  O_3
REMARK    2  A    between atoms: C_2  and  C_4
REMARK    3  A    between atoms: C_9  and  C_10
REMARK    4  A    between atoms: N_11  and  O_12
REMARK    5  A    between atoms: O_12  and  C_13
REMARK    6  A    between atoms: C_17  and  C_18
REMARK                            x       y       z     vdW  Elec       q    Type
REMARK                         _______ _______ _______ _____ _____    ______ ____
ROOT
ATOM      1  C   UNL     1       9.030  10.367  18.027  0.00  0.00    +0.000 C 
ATOM      2  N   UNL     1       8.346   9.318  18.337  0.00  0.00    +0.000 NA
ENDROOT
BRANCH   1   8
ATOM      3  C   UNL     1      10.510  12.273  18.839  0.00  0.00    +0.000 A 
ATOM      4  C   UNL     1      10.884  13.105  19.912  0.00  0.00    +0.000 A 
ATOM      5  C   UNL     1      10.390  12.886  21.196  0.00  0.00    +0.000 A 
ATOM      6  C   UNL     1       9.515  11.830  21.432  0.00  0.00    +0.000 A 
ATOM      7  C   UNL     1       9.122  11.002  20.379  0.00  0.00    +0.000 A 
ATOM      8  C   UNL     1       9.602  11.228  19.079  0.00  0.00    +0.000 A 
BRANCH   3  10
ATOM      9  O   UNL     1      10.887  13.630  16.930  0.00  0.00    +0.000 OA
ATOM     10  C   UNL     1      11.158  12.607  17.535  0.00  0.00    +0.000 C 
BRANCH  10  11
ATOM     11  O   UNL     1      12.209  11.824  17.214  0.00  0.00    +0.000 OA
ATOM     12  H   UNL     1      13.041  12.084  17.645  0.00  0.00    +0.000 HD
ENDBRANCH  10  11
ENDBRANCH   3  10
ENDBRANCH   1   8
BRANCH   2  13
ATOM     13  O   UNL     1       7.976   8.624  17.179  0.00  0.00    +0.000 OA
BRANCH  13  14
ATOM     14  C   UNL     1       7.615   7.335  17.510  0.00  0.00    +0.000 A 
ATOM     15  C   UNL     1       8.069   6.850  18.737  0.00  0.00    +0.000 A 
ATOM     16  C   UNL     1       7.761   5.547  19.132  0.00  0.00    +0.000 A 
ATOM     17  C   UNL     1       7.010   4.719  18.295  0.00  0.00    +0.000 A 
ATOM     18  C   UNL     1       6.557   5.188  17.054  0.00  0.00    +0.000 A 
ATOM     19  C   UNL     1       6.867   6.502  16.671  0.00  0.00    +0.000 A 
BRANCH  18  20
ATOM     20  C   UNL     1       5.756   4.307  16.125  0.00  0.00    +0.000 C 
ATOM     21  F   UNL     1       6.533   3.570  15.280  0.00  0.00    +0.000 F 
ATOM     22  F   UNL     1       4.978   3.411  16.788  0.00  0.00    +0.000 F 
ATOM     23  F   UNL     1       4.919   5.022  15.324  0.00  0.00    +0.000 F 
ENDBRANCH  18  20
ENDBRANCH  13  14
ENDBRANCH   2  13
TORSDOF 6
ENDMDL
MODEL 7
REMARK VINA RESULT:      -7.6      2.376      3.074
REMARK  Name = 
REMARK  6 active torsions:
REMARK  status: ('A' for Active; 'I' for Inactive)
REMARK    1  A    between atoms: C_2  and  O_3
REMARK    2  A    between atoms: C_2  and  C_4
REMARK    3  A    between atoms: C_9  and  C_10
REMARK    4  A    between atoms: N_11  and  O_12
REMARK    5  A    between atoms: O_12  and  C_13
REMARK    6  A    between atoms: C_17  and  C_18
REMARK                            x       y       z     vdW  Elec       q    Type
REMARK                         _______ _______ _______ _____ _____    ______ ____
ROOT
ATOM      1  C   UNL     1       3.261   4.482  18.416  0.00  0.00    +0.000 C 
ATOM      2  N   UNL     1       3.774   4.768  17.267  0.00  0.00    +0.000 NA
ENDROOT
BRANCH   1   8
ATOM      3  C   UNL     1       1.860   5.259  20.395  0.00  0.00    +0.000 A 
ATOM      4  C   UNL     1       1.329   6.348  21.112  0.00  0.00    +0.000 A 
ATOM      5  C   UNL     1       1.453   7.651  20.635  0.00  0.00    +0.000 A 
ATOM      6  C   UNL     1       2.109   7.889  19.431  0.00  0.00    +0.000 A 
ATOM      7  C   UNL     1       2.654   6.825  18.712  0.00  0.00    +0.000 A 
ATOM      8  C   UNL     1       2.548   5.511  19.196  0.00  0.00    +0.000 A 
BRANCH   3  10
ATOM      9  O   UNL     1       2.194   3.560  22.016  0.00  0.00    +0.000 OA
ATOM     10  C   UNL     1       1.607   3.923  21.011  0.00  0.00    +0.000 C 
BRANCH  10  11
ATOM     11  O   UNL     1       0.535   3.270  20.516  0.00  0.00    +0.000 OA
ATOM     12  H   UNL     1       0.533   2.315  20.701  0.00  0.00    +0.000 HD
ENDBRANCH  10  11
ENDBRANCH   3  10
ENDBRANCH   1   8
BRANCH   2  13
ATOM     13  O   UNL     1       4.327   3.620  16.687  0.00  0.00    +0.000 OA
BRANCH  13  14
ATOM     14  C   UNL     1       5.335   3.982  15.819  0.00  0.00    +0.000 A 
ATOM     15  C   UNL     1       6.350   4.788  16.335  0.00  0.00    +0.000 A 
ATOM     16  C   UNL     1       7.395   5.214  15.512  0.00  0.00    +0.000 A 
ATOM     17  C   UNL     1       7.420   4.846  14.165  0.00  0.00    +0.000 A 
ATOM     18  C   UNL     1       6.400   4.048  13.628  0.00  0.00    +0.000 A 
ATOM     19  C   UNL     1       5.359   3.620  14.468  0.00  0.00    +0.000 A 
BRANCH  18  20
ATOM     20  C   UNL     1       6.397   3.650  12.172  0.00  0.00    +0.000 C 
ATOM     21  F   UNL     1       6.937   2.417  11.950  0.00  0.00    +0.000 F 
ATOM     22  F   UNL     1       5.146   3.607  11.640  0.00  0.00    +0.000 F 
ATOM     23  F   UNL     1       7.113   4.510  11.396  0.00  0.00    +0.000 F 
ENDBRANCH  18  20
ENDBRANCH  13  14
ENDBRANCH   2  13
TORSDOF 6
ENDMDL
MODEL 8
REMARK VINA RESULT:      -7.5      1.456      2.728
REMARK  Name = 
REMARK  6 active torsions:
REMARK  status: ('A' for Active; 'I' for Inactive)
REMARK    1  A    between atoms: C_2  and  O_3
REMARK    2  A    between atoms: C_2  and  C_4
REMARK    3  A    between atoms: C_9  and  C_10
REMARK    4  A    between atoms: N_11  and  O_12
REMARK    5  A    between atoms: O_12  and  C_13
REMARK    6  A    between atoms: C_17  and  C_18
REMARK                            x       y       z     vdW  Elec       q    Type
REMARK                         _______ _______ _______ _____ _____    ______ ____
ROOT
ATOM      1  C   UNL     1       3.149   5.226  18.148  0.00  0.00    +0.000 C 
ATOM      2  N   UNL     1       3.393   6.463  18.421  0.00  0.00    +0.000 NA
ENDROOT
BRANCH   1   8
ATOM      3  C   UNL     1       3.373   3.377  19.884  0.00  0.00    +0.000 A 
ATOM      4  C   UNL     1       2.767   2.664  20.935  0.00  0.00    +0.000 A 
ATOM      5  C   UNL     1       1.427   2.864  21.262  0.00  0.00    +0.000 A 
ATOM      6  C   UNL     1       0.668   3.781  20.540  0.00  0.00    +0.000 A 
ATOM      7  C   UNL     1       1.253   4.507  19.502  0.00  0.00    +0.000 A 
ATOM      8  C   UNL     1       2.607   4.323  19.181  0.00  0.00    +0.000 A 
BRANCH   3  10
ATOM      9  O   UNL     1       5.640   3.869  19.393  0.00  0.00    +0.000 OA
ATOM     10  C   UNL     1       4.799   3.018  19.627  0.00  0.00    +0.000 C 
BRANCH  10  11
ATOM     11  O   UNL     1       5.115   1.736  19.905  0.00  0.00    +0.000 OA
ATOM     12  H   UNL     1       5.457   1.239  19.142  0.00  0.00    +0.000 HD
ENDBRANCH  10  11
ENDBRANCH   3  10
ENDBRANCH   1   8
BRANCH   2  13
ATOM     13  O   UNL     1       3.824   7.135  17.270  0.00  0.00    +0.000 OA
BRANCH  13  14
ATOM     14  C   UNL     1       4.961   6.527  16.780  0.00  0.00    +0.000 A 
ATOM     15  C   UNL     1       6.154   6.790  17.454  0.00  0.00    +0.000 A 
ATOM     16  C   UNL     1       7.351   6.228  17.005  0.00  0.00    +0.000 A 
ATOM     17  C   UNL     1       7.360   5.411  15.872  0.00  0.00    +0.000 A 
ATOM     18  C   UNL     1       6.171   5.148  15.177  0.00  0.00    +0.000 A 
ATOM     19  C   UNL     1       4.973   5.714  15.642  0.00  0.00    +0.000 A 
BRANCH  18  20
ATOM     20  C   UNL     1       6.158   4.282  13.940  0.00  0.00    +0.000 C 
ATOM     21  F   UNL     1       4.941   4.238  13.327  0.00  0.00    +0.000 F 
ATOM     22  F   UNL     1       7.035   4.704  12.991  0.00  0.00    +0.000 F 
ATOM     23  F   UNL     1       6.480   2.987  14.209  0.00  0.00    +0.000 F 
ENDBRANCH  18  20
ENDBRANCH  13  14
ENDBRANCH   2  13
TORSDOF 6
ENDMDL
MODEL 9
REMARK VINA RESULT:      -7.5      2.182      2.848
REMARK  Name = 
REMARK  6 active torsions:
REMARK  status: ('A' for Active; 'I' for Inactive)
REMARK    1  A    between atoms: C_2  and  O_3
REMARK    2  A    between atoms: C_2  and  C_4
REMARK    3  A    between atoms: C_9  and  C_10
REMARK    4  A    between atoms: N_11  and  O_12
REMARK    5  A    between atoms: O_12  and  C_13
REMARK    6  A    between atoms: C_17  and  C_18
REMARK                            x       y       z     vdW  Elec       q    Type
REMARK                         _______ _______ _______ _____ _____    ______ ____
ROOT
ATOM      1  C   UNL     1       4.754   4.197  17.621  0.00  0.00    +0.000 C 
ATOM      2  N   UNL     1       4.845   4.456  16.361  0.00  0.00    +0.000 NA
ENDROOT
BRANCH   1   8
ATOM      3  C   UNL     1       2.518   4.600  18.771  0.00  0.00    +0.000 A 
ATOM      4  C   UNL     1       1.283   4.060  19.176  0.00  0.00    +0.000 A 
ATOM      5  C   UNL     1       1.017   2.698  19.047  0.00  0.00    +0.000 A 
ATOM      6  C   UNL     1       1.984   1.851  18.511  0.00  0.00    +0.000 A 
ATOM      7  C   UNL     1       3.209   2.370  18.092  0.00  0.00    +0.000 A 
ATOM      8  C   UNL     1       3.476   3.744  18.203  0.00  0.00    +0.000 A 
BRANCH   3  10
ATOM      9  O   UNL     1       2.536   6.881  18.119  0.00  0.00    +0.000 OA
ATOM     10  C   UNL     1       2.668   6.066  19.016  0.00  0.00    +0.000 C 
BRANCH  10  11
ATOM     11  O   UNL     1       2.723   6.414  20.318  0.00  0.00    +0.000 OA
ATOM     12  H   UNL     1       3.356   7.128  20.510  0.00  0.00    +0.000 HD
ENDBRANCH  10  11
ENDBRANCH   3  10
ENDBRANCH   1   8
BRANCH   2  13
ATOM     13  O   UNL     1       6.165   4.791  16.032  0.00  0.00    +0.000 OA
BRANCH  13  14
ATOM     14  C   UNL     1       6.368   4.591  14.683  0.00  0.00    +0.000 A 
ATOM     15  C   UNL     1       7.552   5.095  14.144  0.00  0.00    +0.000 A 
ATOM     16  C   UNL     1       7.820   4.951  12.782  0.00  0.00    +0.000 A 
ATOM     17  C   UNL     1       6.896   4.313  11.950  0.00  0.00    +0.000 A 
ATOM     18  C   UNL     1       5.696   3.813  12.474  0.00  0.00    +0.000 A 
ATOM     19  C   UNL     1       5.442   3.958  13.847  0.00  0.00    +0.000 A 
BRANCH  18  20
ATOM     20  C   UNL     1       4.675   3.134  11.593  0.00  0.00    +0.000 C 
ATOM     21  F   UNL     1       3.485   2.912  12.221  0.00  0.00    +0.000 F 
ATOM     22  F   UNL     1       4.376   3.855  10.480  0.00  0.00    +0.000 F 
ATOM     23  F   UNL     1       5.094   1.914  11.157  0.00  0.00    +0.000 F 
ENDBRANCH  18  20
ENDBRANCH  13  14
ENDBRANCH   2  13
TORSDOF 6
ENDMDL
