MODEL 1
REMARK VINA RESULT:      -7.4      0.000      0.000
REMARK  Name = 
REMARK  11 active torsions:
REMARK  status: ('A' for Active; 'I' for Inactive)
REMARK    1  A    between atoms: C_1  and  O_2
REMARK    2  A    between atoms: O_2  and  C_3
REMARK    3  A    between atoms: C_6  and  C_7
REMARK    4  A    between atoms: C_7  and  C_9
REMARK    5  A    between atoms: C_10  and  C_11
REMARK    6  A    between atoms: N_13  and  C_14
REMARK    7  A    between atoms: N_13  and  C_24
REMARK    8  A    between atoms: C_14  and  C_15
REMARK    9  A    between atoms: N_17  and  C_18
REMARK   10  A    between atoms: C_24  and  C_25
REMARK   11  A    between atoms: C_30  and  O_31
REMARK                            x       y       z     vdW  Elec       q    Type
REMARK                         _______ _______ _______ _____ _____    ______ ____
ROOT
ATOM      1  C   UNL     1       1.551  10.536  18.262  0.00  0.00    +0.000 C 
ATOM      2  O   UNL     1       2.279  11.128  17.470  0.00  0.00    +0.000 OA
ATOM      3  N   UNL     1       0.375  11.081  18.765  0.00  0.00    +0.000 N 
ENDROOT
BRANCH   1   5
ATOM      4  C   UNL     1       2.132   8.162  17.976  0.00  0.00    +0.000 C 
ATOM      5  C   UNL     1       1.978   9.210  18.800  0.00  0.00    +0.000 C 
BRANCH   4   6
ATOM      6  C   UNL     1       2.688   6.894  18.527  0.00  0.00    +0.000 C 
ATOM      7  O   UNL     1       2.499   6.556  19.695  0.00  0.00    +0.000 OA
BRANCH   6  11
ATOM      8  C   UNL     1       5.202   4.388  16.072  0.00  0.00    +0.000 A 
ATOM      9  C   UNL     1       5.410   5.769  16.111  0.00  0.00    +0.000 A 
ATOM     10  C   UNL     1       4.608   6.599  16.907  0.00  0.00    +0.000 A 
ATOM     11  C   UNL     1       3.576   6.051  17.677  0.00  0.00    +0.000 A 
ATOM     12  C   UNL     1       3.369   4.661  17.622  0.00  0.00    +0.000 A 
ATOM     13  C   UNL     1       4.189   3.835  16.851  0.00  0.00    +0.000 A 
BRANCH   8  15
ATOM     14  C   UNL     1       6.858   4.478  14.378  0.00  0.00    +0.000 C 
ATOM     15  O   UNL     1       6.028   3.698  15.230  0.00  0.00    +0.000 OA
ENDBRANCH   8  15
BRANCH  12  16
ATOM     16  O   UNL     1       2.357   4.022  18.291  0.00  0.00    +0.000 OA
ATOM     17  H   UNL     1       1.559   4.592  18.235  0.00  0.00    +0.000 HD
ENDBRANCH  12  16
ENDBRANCH   6  11
ENDBRANCH   4   6
ENDBRANCH   1   5
BRANCH   3  18
ATOM     18  C   UNL     1      -0.088  12.375  18.222  0.00  0.00    +0.000 C 
BRANCH  18  19
ATOM     19  C   UNL     1       0.129  13.619  19.117  0.00  0.00    +0.000 C 
ATOM     20  O   UNL     1       1.062  13.661  19.907  0.00  0.00    +0.000 OA
ATOM     21  N   UNL     1      -0.754  14.675  18.947  0.00  0.00    +0.000 N 
ATOM     22  H   UNL     1      -1.607  14.498  18.426  0.00  0.00    +0.000 HD
BRANCH  21  23
ATOM     23  C   UNL     1      -0.454  16.014  19.464  0.00  0.00    +0.000 C 
ATOM     24  C   UNL     1       0.358  16.832  18.445  0.00  0.00    +0.000 C 
ATOM     25  C   UNL     1      -0.488  17.672  17.496  0.00  0.00    +0.000 C 
ATOM     26  C   UNL     1      -1.420  18.581  18.279  0.00  0.00    +0.000 C 
ATOM     27  C   UNL     1      -2.378  17.753  19.123  0.00  0.00    +0.000 C 
ATOM     28  C   UNL     1      -1.667  16.758  20.046  0.00  0.00    +0.000 C 
ENDBRANCH  21  23
ENDBRANCH  18  19
ENDBRANCH   3  18
BRANCH   3  29
ATOM     29  C   UNL     1      -0.562  10.365  19.650  0.00  0.00    +0.000 C 
BRANCH  29  30
ATOM     30  C   UNL     1      -0.244  10.497  21.147  0.00  0.00    +0.000 C 
ATOM     31  C   UNL     1      -0.213   9.153  21.853  0.00  0.00    +0.000 C 
ATOM     32  C   UNL     1      -0.263   9.589  23.295  0.00  0.00    +0.000 C 
ATOM     33  C   UNL     1      -1.211  10.776  23.243  0.00  0.00    +0.000 C 
ATOM     34  O   UNL     1      -1.236  11.241  21.878  0.00  0.00    +0.000 OA
ENDBRANCH  29  30
ENDBRANCH   3  29
TORSDOF 10
ENDMDL
MODEL 2
REMARK VINA RESULT:      -7.4      3.780     10.246
REMARK  Name = 
REMARK  11 active torsions:
REMARK  status: ('A' for Active; 'I' for Inactive)
REMARK    1  A    between atoms: C_1  and  O_2
REMARK    2  A    between atoms: O_2  and  C_3
REMARK    3  A    between atoms: C_6  and  C_7
REMARK    4  A    between atoms: C_7  and  C_9
REMARK    5  A    between atoms: C_10  and  C_11
REMARK    6  A    between atoms: N_13  and  C_14
REMARK    7  A    between atoms: N_13  and  C_24
REMARK    8  A    between atoms: C_14  and  C_15
REMARK    9  A    between atoms: N_17  and  C_18
REMARK   10  A    between atoms: C_24  and  C_25
REMARK   11  A    between atoms: C_30  and  O_31
REMARK                            x       y       z     vdW  Elec       q    Type
REMARK                         _______ _______ _______ _____ _____    ______ ____
ROOT
ATOM      1  C   UNL     1       3.317   6.182  17.523  0.00  0.00    +0.000 C 
ATOM      2  O   UNL     1       2.500   5.380  17.965  0.00  0.00    +0.000 OA
ATOM      3  N   UNL     1       4.491   5.797  16.885  0.00  0.00    +0.000 N 
ENDROOT
BRANCH   1   5
ATOM      4  C   UNL     1       1.871   8.137  17.901  0.00  0.00    +0.000 C 
ATOM      5  C   UNL     1       3.110   7.643  17.755  0.00  0.00    +0.000 C 
BRANCH   4   6
ATOM      6  C   UNL     1       1.710   9.572  18.266  0.00  0.00    +0.000 C 
ATOM      7  O   UNL     1       2.237  10.471  17.610  0.00  0.00    +0.000 OA
BRANCH   6  11
ATOM      8  C   UNL     1      -0.471  10.685  21.819  0.00  0.00    +0.000 A 
ATOM      9  C   UNL     1       0.318   9.532  21.811  0.00  0.00    +0.000 A 
ATOM     10  C   UNL     1       1.040   9.157  20.669  0.00  0.00    +0.000 A 
ATOM     11  C   UNL     1       0.975   9.937  19.510  0.00  0.00    +0.000 A 
ATOM     12  C   UNL     1       0.168  11.090  19.525  0.00  0.00    +0.000 A 
ATOM     13  C   UNL     1      -0.525  11.475  20.675  0.00  0.00    +0.000 A 
BRANCH   8  15
ATOM     14  C   UNL     1      -2.134  11.946  22.946  0.00  0.00    +0.000 C 
ATOM     15  O   UNL     1      -1.151  10.917  22.982  0.00  0.00    +0.000 OA
ENDBRANCH   8  15
BRANCH  12  16
ATOM     16  O   UNL     1      -0.013  11.899  18.433  0.00  0.00    +0.000 OA
ATOM     17  H   UNL     1       0.865  12.036  18.017  0.00  0.00    +0.000 HD
ENDBRANCH  12  16
ENDBRANCH   6  11
ENDBRANCH   4   6
ENDBRANCH   1   5
BRANCH   3  18
ATOM     18  C   UNL     1       4.703   4.360  16.611  0.00  0.00    +0.000 C 
BRANCH  18  19
ATOM     19  C   UNL     1       4.495   3.390  17.799  0.00  0.00    +0.000 C 
ATOM     20  O   UNL     1       5.336   3.299  18.682  0.00  0.00    +0.000 OA
ATOM     21  N   UNL     1       3.307   2.674  17.823  0.00  0.00    +0.000 N 
ATOM     22  H   UNL     1       2.752   2.650  16.972  0.00  0.00    +0.000 HD
BRANCH  21  23
ATOM     23  C   UNL     1       2.841   2.006  19.041  0.00  0.00    +0.000 C 
ATOM     24  C   UNL     1       3.496   2.616  20.293  0.00  0.00    +0.000 C 
ATOM     25  C   UNL     1       2.704   3.754  20.926  0.00  0.00    +0.000 C 
ATOM     26  C   UNL     1       1.286   3.303  21.239  0.00  0.00    +0.000 C 
ATOM     27  C   UNL     1       0.564   2.910  19.959  0.00  0.00    +0.000 C 
ATOM     28  C   UNL     1       1.314   1.854  19.140  0.00  0.00    +0.000 C 
ENDBRANCH  21  23
ENDBRANCH  18  19
ENDBRANCH   3  18
BRANCH   3  29
ATOM     29  C   UNL     1       5.450   6.733  16.269  0.00  0.00    +0.000 C 
BRANCH  29  30
ATOM     30  C   UNL     1       6.833   6.752  16.938  0.00  0.00    +0.000 C 
ATOM     31  C   UNL     1       6.794   6.230  18.363  0.00  0.00    +0.000 C 
ATOM     32  C   UNL     1       8.132   6.702  18.874  0.00  0.00    +0.000 C 
ATOM     33  C   UNL     1       8.273   8.062  18.210  0.00  0.00    +0.000 C 
ATOM     34  O   UNL     1       7.382   8.075  17.075  0.00  0.00    +0.000 OA
ENDBRANCH  29  30
ENDBRANCH   3  29
TORSDOF 10
ENDMDL
MODEL 3
REMARK VINA RESULT:      -7.3      1.588      2.182
REMARK  Name = 
REMARK  11 active torsions:
REMARK  status: ('A' for Active; 'I' for Inactive)
REMARK    1  A    between atoms: C_1  and  O_2
REMARK    2  A    between atoms: O_2  and  C_3
REMARK    3  A    between atoms: C_6  and  C_7
REMARK    4  A    between atoms: C_7  and  C_9
REMARK    5  A    between atoms: C_10  and  C_11
REMARK    6  A    between atoms: N_13  and  C_14
REMARK    7  A    between atoms: N_13  and  C_24
REMARK    8  A    between atoms: C_14  and  C_15
REMARK    9  A    between atoms: N_17  and  C_18
REMARK   10  A    between atoms: C_24  and  C_25
REMARK   11  A    between atoms: C_30  and  O_31
REMARK                            x       y       z     vdW  Elec       q    Type
REMARK                         _______ _______ _______ _____ _____    ______ ____
ROOT
ATOM      1  C   UNL     1       1.471  10.158  18.165  0.00  0.00    +0.000 C 
ATOM      2  O   UNL     1       2.100  10.770  17.307  0.00  0.00    +0.000 OA
ATOM      3  N   UNL     1       0.282  10.627  18.714  0.00  0.00    +0.000 N 
ENDROOT
BRANCH   1   5
ATOM      4  C   UNL     1       2.167   7.807  17.963  0.00  0.00    +0.000 C 
ATOM      5  C   UNL     1       2.039   8.899  18.733  0.00  0.00    +0.000 C 
BRANCH   4   6
ATOM      6  C   UNL     1       2.861   6.613  18.524  0.00  0.00    +0.000 C 
ATOM      7  O   UNL     1       2.779   6.315  19.715  0.00  0.00    +0.000 OA
BRANCH   6  11
ATOM      8  C   UNL     1       5.403   4.202  16.004  0.00  0.00    +0.000 A 
ATOM      9  C   UNL     1       5.479   5.596  15.952  0.00  0.00    +0.000 A 
ATOM     10  C   UNL     1       4.667   6.397  16.766  0.00  0.00    +0.000 A 
ATOM     11  C   UNL     1       3.757   5.805  17.649  0.00  0.00    +0.000 A 
ATOM     12  C   UNL     1       3.680   4.401  17.686  0.00  0.00    +0.000 A 
ATOM     13  C   UNL     1       4.513   3.607  16.894  0.00  0.00    +0.000 A 
BRANCH   8  15
ATOM     14  C   UNL     1       6.216   3.998  13.786  0.00  0.00    +0.000 C 
ATOM     15  O   UNL     1       6.223   3.540  15.134  0.00  0.00    +0.000 OA
ENDBRANCH   8  15
BRANCH  12  16
ATOM     16  O   UNL     1       2.790   3.714  18.471  0.00  0.00    +0.000 OA
ATOM     17  H   UNL     1       2.347   3.047  17.903  0.00  0.00    +0.000 HD
ENDBRANCH  12  16
ENDBRANCH   6  11
ENDBRANCH   4   6
ENDBRANCH   1   5
BRANCH   3  18
ATOM     18  C   UNL     1      -0.319  11.851  18.146  0.00  0.00    +0.000 C 
BRANCH  18  19
ATOM     19  C   UNL     1       0.119  13.195  18.777  0.00  0.00    +0.000 C 
ATOM     20  O   UNL     1      -0.593  13.760  19.595  0.00  0.00    +0.000 OA
ATOM     21  N   UNL     1       1.357  13.691  18.396  0.00  0.00    +0.000 N 
ATOM     22  H   UNL     1       1.800  13.281  17.579  0.00  0.00    +0.000 HD
BRANCH  21  23
ATOM     23  C   UNL     1       2.029  14.743  19.165  0.00  0.00    +0.000 C 
ATOM     24  C   UNL     1       3.508  14.395  19.405  0.00  0.00    +0.000 C 
ATOM     25  C   UNL     1       4.461  14.926  18.341  0.00  0.00    +0.000 C 
ATOM     26  C   UNL     1       4.292  16.428  18.179  0.00  0.00    +0.000 C 
ATOM     27  C   UNL     1       2.878  16.753  17.721  0.00  0.00    +0.000 C 
ATOM     28  C   UNL     1       1.796  16.168  18.633  0.00  0.00    +0.000 C 
ENDBRANCH  21  23
ENDBRANCH  18  19
ENDBRANCH   3  18
BRANCH   3  29
ATOM     29  C   UNL     1      -0.540   9.878  19.683  0.00  0.00    +0.000 C 
BRANCH  29  30
ATOM     30  C   UNL     1      -0.206  10.171  21.154  0.00  0.00    +0.000 C 
ATOM     31  C   UNL     1      -0.286   8.928  22.023  0.00  0.00    +0.000 C 
ATOM     32  C   UNL     1      -0.294   9.546  23.399  0.00  0.00    +0.000 C 
ATOM     33  C   UNL     1      -1.139  10.792  23.191  0.00  0.00    +0.000 C 
ATOM     34  O   UNL     1      -1.129  11.081  21.778  0.00  0.00    +0.000 OA
ENDBRANCH  29  30
ENDBRANCH   3  29
TORSDOF 10
ENDMDL
MODEL 4
REMARK VINA RESULT:      -7.2      3.955     10.954
REMARK  Name = 
REMARK  11 active torsions:
REMARK  status: ('A' for Active; 'I' for Inactive)
REMARK    1  A    between atoms: C_1  and  O_2
REMARK    2  A    between atoms: O_2  and  C_3
REMARK    3  A    between atoms: C_6  and  C_7
REMARK    4  A    between atoms: C_7  and  C_9
REMARK    5  A    between atoms: C_10  and  C_11
REMARK    6  A    between atoms: N_13  and  C_14
REMARK    7  A    between atoms: N_13  and  C_24
REMARK    8  A    between atoms: C_14  and  C_15
REMARK    9  A    between atoms: N_17  and  C_18
REMARK   10  A    between atoms: C_24  and  C_25
REMARK   11  A    between atoms: C_30  and  O_31
REMARK                            x       y       z     vdW  Elec       q    Type
REMARK                         _______ _______ _______ _____ _____    ______ ____
ROOT
ATOM      1  C   UNL     1       4.894   4.436  17.306  0.00  0.00    +0.000 C 
ATOM      2  O   UNL     1       4.364   3.777  16.416  0.00  0.00    +0.000 OA
ATOM      3  N   UNL     1       6.268   4.637  17.385  0.00  0.00    +0.000 N 
ENDROOT
BRANCH   1   5
ATOM      4  C   UNL     1       3.468   6.175  18.305  0.00  0.00    +0.000 C 
ATOM      5  C   UNL     1       4.057   4.974  18.419  0.00  0.00    +0.000 C 
BRANCH   4   6
ATOM      6  C   UNL     1       2.533   6.618  19.377  0.00  0.00    +0.000 C 
ATOM      7  O   UNL     1       2.218   5.880  20.310  0.00  0.00    +0.000 OA
BRANCH   6  11
ATOM      8  C   UNL     1       0.662  10.501  19.176  0.00  0.00    +0.000 A 
ATOM      9  C   UNL     1       1.080   9.861  18.007  0.00  0.00    +0.000 A 
ATOM     10  C   UNL     1       1.684   8.597  18.050  0.00  0.00    +0.000 A 
ATOM     11  C   UNL     1       1.882   7.955  19.278  0.00  0.00    +0.000 A 
ATOM     12  C   UNL     1       1.467   8.613  20.450  0.00  0.00    +0.000 A 
ATOM     13  C   UNL     1       0.839   9.859  20.399  0.00  0.00    +0.000 A 
BRANCH   8  15
ATOM     14  C   UNL     1      -1.001  12.068  19.811  0.00  0.00    +0.000 C 
ATOM     15  O   UNL     1       0.121  11.744  18.999  0.00  0.00    +0.000 OA
ENDBRANCH   8  15
BRANCH  12  16
ATOM     16  O   UNL     1       1.658   8.105  21.709  0.00  0.00    +0.000 OA
ATOM     17  H   UNL     1       1.838   7.144  21.616  0.00  0.00    +0.000 HD
ENDBRANCH  12  16
ENDBRANCH   6  11
ENDBRANCH   4   6
ENDBRANCH   1   5
BRANCH   3  18
ATOM     18  C   UNL     1       7.115   4.146  16.278  0.00  0.00    +0.000 C 
BRANCH  18  19
ATOM     19  C   UNL     1       6.684   4.546  14.846  0.00  0.00    +0.000 C 
ATOM     20  O   UNL     1       6.756   5.710  14.478  0.00  0.00    +0.000 OA
ATOM     21  N   UNL     1       6.256   3.524  14.012  0.00  0.00    +0.000 N 
ATOM     22  H   UNL     1       6.037   2.628  14.437  0.00  0.00    +0.000 HD
BRANCH  21  23
ATOM     23  C   UNL     1       6.161   3.710  12.561  0.00  0.00    +0.000 C 
ATOM     24  C   UNL     1       7.515   3.449  11.879  0.00  0.00    +0.000 C 
ATOM     25  C   UNL     1       7.720   2.011  11.419  0.00  0.00    +0.000 C 
ATOM     26  C   UNL     1       6.580   1.576  10.512  0.00  0.00    +0.000 C 
ATOM     27  C   UNL     1       5.260   1.623  11.267  0.00  0.00    +0.000 C 
ATOM     28  C   UNL     1       4.974   2.987  11.903  0.00  0.00    +0.000 C 
ENDBRANCH  21  23
ENDBRANCH  18  19
ENDBRANCH   3  18
BRANCH   3  29
ATOM     29  C   UNL     1       6.928   5.491  18.390  0.00  0.00    +0.000 C 
BRANCH  29  30
ATOM     30  C   UNL     1       7.604   6.742  17.811  0.00  0.00    +0.000 C 
ATOM     31  C   UNL     1       8.369   7.526  18.862  0.00  0.00    +0.000 C 
ATOM     32  C   UNL     1       8.590   8.830  18.138  0.00  0.00    +0.000 C 
ATOM     33  C   UNL     1       7.285   9.004  17.377  0.00  0.00    +0.000 C 
ATOM     34  O   UNL     1       6.671   7.702  17.283  0.00  0.00    +0.000 OA
ENDBRANCH  29  30
ENDBRANCH   3  29
TORSDOF 10
ENDMDL
MODEL 5
REMARK VINA RESULT:      -7.2      7.109     11.231
REMARK  Name = 
REMARK  11 active torsions:
REMARK  status: ('A' for Active; 'I' for Inactive)
REMARK    1  A    between atoms: C_1  and  O_2
REMARK    2  A    between atoms: O_2  and  C_3
REMARK    3  A    between atoms: C_6  and  C_7
REMARK    4  A    between atoms: C_7  and  C_9
REMARK    5  A    between atoms: C_10  and  C_11
REMARK    6  A    between atoms: N_13  and  C_14
REMARK    7  A    between atoms: N_13  and  C_24
REMARK    8  A    between atoms: C_14  and  C_15
REMARK    9  A    between atoms: N_17  and  C_18
REMARK   10  A    between atoms: C_24  and  C_25
REMARK   11  A    between atoms: C_30  and  O_31
REMARK                            x       y       z     vdW  Elec       q    Type
REMARK                         _______ _______ _______ _____ _____    ______ ____
ROOT
ATOM      1  C   UNL     1       7.965   7.526  18.304  0.00  0.00    +0.000 C 
ATOM      2  O   UNL     1       8.826   7.196  19.114  0.00  0.00    +0.000 OA
ATOM      3  N   UNL     1       7.102   6.617  17.700  0.00  0.00    +0.000 N 
ENDROOT
BRANCH   1   5
ATOM      4  C   UNL     1       8.549   9.906  18.522  0.00  0.00    +0.000 C 
ATOM      5  C   UNL     1       7.885   8.948  17.856  0.00  0.00    +0.000 C 
BRANCH   4   6
ATOM      6  C   UNL     1       8.556  11.289  17.969  0.00  0.00    +0.000 C 
ATOM      7  O   UNL     1       7.840  11.612  17.021  0.00  0.00    +0.000 OA
BRANCH   6  11
ATOM      8  C   UNL     1      11.400  14.170  19.464  0.00  0.00    +0.000 A 
ATOM      9  C   UNL     1      10.062  14.231  19.862  0.00  0.00    +0.000 A 
ATOM     10  C   UNL     1       9.124  13.301  19.392  0.00  0.00    +0.000 A 
ATOM     11  C   UNL     1       9.518  12.292  18.507  0.00  0.00    +0.000 A 
ATOM     12  C   UNL     1      10.865  12.246  18.105  0.00  0.00    +0.000 A 
ATOM     13  C   UNL     1      11.802  13.156  18.598  0.00  0.00    +0.000 A 
BRANCH   8  15
ATOM     14  C   UNL     1      11.572  16.125  20.796  0.00  0.00    +0.000 C 
ATOM     15  O   UNL     1      12.203  15.156  19.965  0.00  0.00    +0.000 OA
ENDBRANCH   8  15
BRANCH  12  16
ATOM     16  O   UNL     1      11.352  11.336  17.202  0.00  0.00    +0.000 OA
ATOM     17  H   UNL     1      11.387  11.778  16.326  0.00  0.00    +0.000 HD
ENDBRANCH  12  16
ENDBRANCH   6  11
ENDBRANCH   4   6
ENDBRANCH   1   5
BRANCH   3  18
ATOM     18  C   UNL     1       7.136   5.210  18.151  0.00  0.00    +0.000 C 
BRANCH  18  19
ATOM     19  C   UNL     1       5.992   4.756  19.090  0.00  0.00    +0.000 C 
ATOM     20  O   UNL     1       5.586   5.494  19.977  0.00  0.00    +0.000 OA
ATOM     21  N   UNL     1       5.442   3.506  18.849  0.00  0.00    +0.000 N 
ATOM     22  H   UNL     1       5.951   2.877  18.235  0.00  0.00    +0.000 HD
BRANCH  21  23
ATOM     23  C   UNL     1       4.152   3.114  19.423  0.00  0.00    +0.000 C 
ATOM     24  C   UNL     1       3.223   4.331  19.578  0.00  0.00    +0.000 C 
ATOM     25  C   UNL     1       2.317   4.587  18.380  0.00  0.00    +0.000 C 
ATOM     26  C   UNL     1       1.507   3.344  18.051  0.00  0.00    +0.000 C 
ATOM     27  C   UNL     1       2.434   2.196  17.677  0.00  0.00    +0.000 C 
ATOM     28  C   UNL     1       3.494   1.902  18.743  0.00  0.00    +0.000 C 
ENDBRANCH  21  23
ENDBRANCH  18  19
ENDBRANCH   3  18
BRANCH   3  29
ATOM     29  C   UNL     1       6.004   6.990  16.790  0.00  0.00    +0.000 C 
BRANCH  29  30
ATOM     30  C   UNL     1       5.990   6.213  15.464  0.00  0.00    +0.000 C 
ATOM     31  C   UNL     1       5.092   4.991  15.520  0.00  0.00    +0.000 C 
ATOM     32  C   UNL     1       5.549   4.248  14.289  0.00  0.00    +0.000 C 
ATOM     33  C   UNL     1       7.047   4.507  14.290  0.00  0.00    +0.000 C 
ATOM     34  O   UNL     1       7.275   5.675  15.105  0.00  0.00    +0.000 OA
ENDBRANCH  29  30
ENDBRANCH   3  29
TORSDOF 10
ENDMDL
MODEL 6
REMARK VINA RESULT:      -7.0      2.322      3.613
REMARK  Name = 
REMARK  11 active torsions:
REMARK  status: ('A' for Active; 'I' for Inactive)
REMARK    1  A    between atoms: C_1  and  O_2
REMARK    2  A    between atoms: O_2  and  C_3
REMARK    3  A    between atoms: C_6  and  C_7
REMARK    4  A    between atoms: C_7  and  C_9
REMARK    5  A    between atoms: C_10  and  C_11
REMARK    6  A    between atoms: N_13  and  C_14
REMARK    7  A    between atoms: N_13  and  C_24
REMARK    8  A    between atoms: C_14  and  C_15
REMARK    9  A    between atoms: N_17  and  C_18
REMARK   10  A    between atoms: C_24  and  C_25
REMARK   11  A    between atoms: C_30  and  O_31
REMARK                            x       y       z     vdW  Elec       q    Type
REMARK                         _______ _______ _______ _____ _____    ______ ____
ROOT
ATOM      1  C   UNL     1       1.178  10.629  18.598  0.00  0.00    +0.000 C 
ATOM      2  O   UNL     1       2.085  11.345  18.182  0.00  0.00    +0.000 OA
ATOM      3  N   UNL     1      -0.107  11.099  18.845  0.00  0.00    +0.000 N 
ENDROOT
BRANCH   1   5
ATOM      4  C   UNL     1       2.227   8.449  18.148  0.00  0.00    +0.000 C 
ATOM      5  C   UNL     1       1.470   9.209  18.955  0.00  0.00    +0.000 C 
BRANCH   4   6
ATOM      6  C   UNL     1       2.608   7.082  18.602  0.00  0.00    +0.000 C 
ATOM      7  O   UNL     1       2.257   6.640  19.695  0.00  0.00    +0.000 OA
BRANCH   6  11
ATOM      8  C   UNL     1       5.183   4.622  16.164  0.00  0.00    +0.000 A 
ATOM      9  C   UNL     1       5.404   5.998  16.252  0.00  0.00    +0.000 A 
ATOM     10  C   UNL     1       4.583   6.814  17.044  0.00  0.00    +0.000 A 
ATOM     11  C   UNL     1       3.518   6.255  17.760  0.00  0.00    +0.000 A 
ATOM     12  C   UNL     1       3.298   4.870  17.655  0.00  0.00    +0.000 A 
ATOM     13  C   UNL     1       4.137   4.057  16.889  0.00  0.00    +0.000 A 
BRANCH   8  15
ATOM     14  C   UNL     1       6.715   4.728  14.357  0.00  0.00    +0.000 C 
ATOM     15  O   UNL     1       6.031   3.947  15.332  0.00  0.00    +0.000 OA
ENDBRANCH   8  15
BRANCH  12  16
ATOM     16  O   UNL     1       2.256   4.223  18.268  0.00  0.00    +0.000 OA
ATOM     17  H   UNL     1       2.130   3.363  17.810  0.00  0.00    +0.000 HD
ENDBRANCH  12  16
ENDBRANCH   6  11
ENDBRANCH   4   6
ENDBRANCH   1   5
BRANCH   3  18
ATOM     18  C   UNL     1      -0.431  12.490  18.467  0.00  0.00    +0.000 C 
BRANCH  18  19
ATOM     19  C   UNL     1      -0.943  13.414  19.599  0.00  0.00    +0.000 C 
ATOM     20  O   UNL     1      -0.354  14.451  19.869  0.00  0.00    +0.000 OA
ATOM     21  N   UNL     1      -2.105  13.024  20.249  0.00  0.00    +0.000 N 
ATOM     22  H   UNL     1      -2.426  12.070  20.112  0.00  0.00    +0.000 HD
BRANCH  21  23
ATOM     23  C   UNL     1      -2.871  13.962  21.074  0.00  0.00    +0.000 C 
ATOM     24  C   UNL     1      -4.379  13.843  20.793  0.00  0.00    +0.000 C 
ATOM     25  C   UNL     1      -5.111  12.856  21.695  0.00  0.00    +0.000 C 
ATOM     26  C   UNL     1      -4.873  13.196  23.157  0.00  0.00    +0.000 C 
ATOM     27  C   UNL     1      -3.391  13.093  23.486  0.00  0.00    +0.000 C 
ATOM     28  C   UNL     1      -2.506  13.941  22.568  0.00  0.00    +0.000 C 
ENDBRANCH  21  23
ENDBRANCH  18  19
ENDBRANCH   3  18
BRANCH   3  29
ATOM     29  C   UNL     1      -1.238  10.250  19.264  0.00  0.00    +0.000 C 
BRANCH  29  30
ATOM     30  C   UNL     1      -2.311  10.049  18.183  0.00  0.00    +0.000 C 
ATOM     31  C   UNL     1      -1.712   9.844  16.803  0.00  0.00    +0.000 C 
ATOM     32  C   UNL     1      -2.927  10.051  15.934  0.00  0.00    +0.000 C 
ATOM     33  C   UNL     1      -3.654  11.174  16.655  0.00  0.00    +0.000 C 
ATOM     34  O   UNL     1      -3.171  11.190  18.014  0.00  0.00    +0.000 OA
ENDBRANCH  29  30
ENDBRANCH   3  29
TORSDOF 10
ENDMDL
MODEL 7
REMARK VINA RESULT:      -7.0      2.674      3.684
REMARK  Name = 
REMARK  11 active torsions:
REMARK  status: ('A' for Active; 'I' for Inactive)
REMARK    1  A    between atoms: C_1  and  O_2
REMARK    2  A    between atoms: O_2  and  C_3
REMARK    3  A    between atoms: C_6  and  C_7
REMARK    4  A    between atoms: C_7  and  C_9
REMARK    5  A    between atoms: C_10  and  C_11
REMARK    6  A    between atoms: N_13  and  C_14
REMARK    7  A    between atoms: N_13  and  C_24
REMARK    8  A    between atoms: C_14  and  C_15
REMARK    9  A    between atoms: N_17  and  C_18
REMARK   10  A    between atoms: C_24  and  C_25
REMARK   11  A    between atoms: C_30  and  O_31
REMARK                            x       y       z     vdW  Elec       q    Type
REMARK                         _______ _______ _______ _____ _____    ______ ____
ROOT
ATOM      1  C   UNL     1       0.866   9.739  21.243  0.00  0.00    +0.000 C 
ATOM      2  O   UNL     1       1.178   9.818  22.428  0.00  0.00    +0.000 OA
ATOM      3  N   UNL     1       0.309  10.797  20.534  0.00  0.00    +0.000 N 
ENDROOT
BRANCH   1   5
ATOM      4  C   UNL     1       1.937   7.551  20.901  0.00  0.00    +0.000 C 
ATOM      5  C   UNL     1       0.990   8.429  20.538  0.00  0.00    +0.000 C 
BRANCH   4   6
ATOM      6  C   UNL     1       1.945   6.202  20.267  0.00  0.00    +0.000 C 
ATOM      7  O   UNL     1       1.220   5.293  20.669  0.00  0.00    +0.000 OA
BRANCH   6  11
ATOM      8  C   UNL     1       4.758   5.261  17.133  0.00  0.00    +0.000 A 
ATOM      9  C   UNL     1       4.147   6.516  17.175  0.00  0.00    +0.000 A 
ATOM     10  C   UNL     1       3.235   6.844  18.188  0.00  0.00    +0.000 A 
ATOM     11  C   UNL     1       2.919   5.907  19.178  0.00  0.00    +0.000 A 
ATOM     12  C   UNL     1       3.532   4.643  19.121  0.00  0.00    +0.000 A 
ATOM     13  C   UNL     1       4.463   4.332  18.127  0.00  0.00    +0.000 A 
BRANCH   8  15
ATOM     14  C   UNL     1       6.941   5.501  16.237  0.00  0.00    +0.000 C 
ATOM     15  O   UNL     1       5.598   5.057  16.075  0.00  0.00    +0.000 OA
ENDBRANCH   8  15
BRANCH  12  16
ATOM     16  O   UNL     1       3.259   3.631  20.005  0.00  0.00    +0.000 OA
ATOM     17  H   UNL     1       2.493   3.912  20.550  0.00  0.00    +0.000 HD
ENDBRANCH  12  16
ENDBRANCH   6  11
ENDBRANCH   4   6
ENDBRANCH   1   5
BRANCH   3  18
ATOM     18  C   UNL     1       0.208  12.113  21.198  0.00  0.00    +0.000 C 
BRANCH  18  19
ATOM     19  C   UNL     1      -1.053  12.359  22.061  0.00  0.00    +0.000 C 
ATOM     20  O   UNL     1      -0.987  12.323  23.282  0.00  0.00    +0.000 OA
ATOM     21  N   UNL     1      -2.227  12.654  21.385  0.00  0.00    +0.000 N 
ATOM     22  H   UNL     1      -2.255  12.475  20.385  0.00  0.00    +0.000 HD
BRANCH  21  23
ATOM     23  C   UNL     1      -3.380  13.242  22.074  0.00  0.00    +0.000 C 
ATOM     24  C   UNL     1      -3.262  14.774  22.142  0.00  0.00    +0.000 C 
ATOM     25  C   UNL     1      -3.915  15.508  20.977  0.00  0.00    +0.000 C 
ATOM     26  C   UNL     1      -5.372  15.096  20.840  0.00  0.00    +0.000 C 
ATOM     27  C   UNL     1      -5.473  13.607  20.548  0.00  0.00    +0.000 C 
ATOM     28  C   UNL     1      -4.745  12.736  21.577  0.00  0.00    +0.000 C 
ENDBRANCH  21  23
ENDBRANCH  18  19
ENDBRANCH   3  18
BRANCH   3  29
ATOM     29  C   UNL     1       0.001  10.762  19.092  0.00  0.00    +0.000 C 
BRANCH  29  30
ATOM     30  C   UNL     1      -1.458  10.409  18.765  0.00  0.00    +0.000 C 
ATOM     31  C   UNL     1      -1.623   9.882  17.351  0.00  0.00    +0.000 C 
ATOM     32  C   UNL     1      -3.118   9.981  17.184  0.00  0.00    +0.000 C 
ATOM     33  C   UNL     1      -3.441  11.275  17.915  0.00  0.00    +0.000 C 
ATOM     34  O   UNL     1      -2.343  11.543  18.810  0.00  0.00    +0.000 OA
ENDBRANCH  29  30
ENDBRANCH   3  29
TORSDOF 10
ENDMDL
MODEL 8
REMARK VINA RESULT:      -6.9      3.975     10.809
REMARK  Name = 
REMARK  11 active torsions:
REMARK  status: ('A' for Active; 'I' for Inactive)
REMARK    1  A    between atoms: C_1  and  O_2
REMARK    2  A    between atoms: O_2  and  C_3
REMARK    3  A    between atoms: C_6  and  C_7
REMARK    4  A    between atoms: C_7  and  C_9
REMARK    5  A    between atoms: C_10  and  C_11
REMARK    6  A    between atoms: N_13  and  C_14
REMARK    7  A    between atoms: N_13  and  C_24
REMARK    8  A    between atoms: C_14  and  C_15
REMARK    9  A    between atoms: N_17  and  C_18
REMARK   10  A    between atoms: C_24  and  C_25
REMARK   11  A    between atoms: C_30  and  O_31
REMARK                            x       y       z     vdW  Elec       q    Type
REMARK                         _______ _______ _______ _____ _____    ______ ____
ROOT
ATOM      1  C   UNL     1       5.666   4.959  18.437  0.00  0.00    +0.000 C 
ATOM      2  O   UNL     1       6.816   4.973  18.868  0.00  0.00    +0.000 OA
ATOM      3  N   UNL     1       5.351   4.626  17.124  0.00  0.00    +0.000 N 
ENDROOT
BRANCH   1   5
ATOM      4  C   UNL     1       3.741   6.411  18.925  0.00  0.00    +0.000 C 
ATOM      5  C   UNL     1       4.548   5.413  19.317  0.00  0.00    +0.000 C 
BRANCH   4   6
ATOM      6  C   UNL     1       2.557   6.746  19.766  0.00  0.00    +0.000 C 
ATOM      7  O   UNL     1       2.097   5.950  20.584  0.00  0.00    +0.000 OA
BRANCH   6  11
ATOM      8  C   UNL     1       0.507  10.505  19.232  0.00  0.00    +0.000 A 
ATOM      9  C   UNL     1       0.980   9.799  18.123  0.00  0.00    +0.000 A 
ATOM     10  C   UNL     1       1.643   8.573  18.275  0.00  0.00    +0.000 A 
ATOM     11  C   UNL     1       1.845   8.037  19.552  0.00  0.00    +0.000 A 
ATOM     12  C   UNL     1       1.374   8.762  20.661  0.00  0.00    +0.000 A 
ATOM     13  C   UNL     1       0.688   9.968  20.503  0.00  0.00    +0.000 A 
BRANCH   8  15
ATOM     14  C   UNL     1      -1.318  11.646  18.234  0.00  0.00    +0.000 C 
ATOM     15  O   UNL     1      -0.088  11.703  18.949  0.00  0.00    +0.000 OA
ENDBRANCH   8  15
BRANCH  12  16
ATOM     16  O   UNL     1       1.562   8.361  21.959  0.00  0.00    +0.000 OA
ATOM     17  H   UNL     1       0.735   8.556  22.452  0.00  0.00    +0.000 HD
ENDBRANCH  12  16
ENDBRANCH   6  11
ENDBRANCH   4   6
ENDBRANCH   1   5
BRANCH   3  18
ATOM     18  C   UNL     1       6.434   4.139  16.244  0.00  0.00    +0.000 C 
BRANCH  18  19
ATOM     19  C   UNL     1       6.361   4.565  14.757  0.00  0.00    +0.000 C 
ATOM     20  O   UNL     1       6.952   5.561  14.366  0.00  0.00    +0.000 OA
ATOM     21  N   UNL     1       5.634   3.746  13.906  0.00  0.00    +0.000 N 
ATOM     22  H   UNL     1       5.016   3.058  14.326  0.00  0.00    +0.000 HD
BRANCH  21  23
ATOM     23  C   UNL     1       5.776   3.837  12.450  0.00  0.00    +0.000 C 
ATOM     24  C   UNL     1       7.253   3.736  12.031  0.00  0.00    +0.000 C 
ATOM     25  C   UNL     1       7.725   2.319  11.727  0.00  0.00    +0.000 C 
ATOM     26  C   UNL     1       6.834   1.676  10.677  0.00  0.00    +0.000 C 
ATOM     27  C   UNL     1       5.405   1.575  11.191  0.00  0.00    +0.000 C 
ATOM     28  C   UNL     1       4.832   2.916  11.659  0.00  0.00    +0.000 C 
ENDBRANCH  21  23
ENDBRANCH  18  19
ENDBRANCH   3  18
BRANCH   3  29
ATOM     29  C   UNL     1       3.978   4.519  16.599  0.00  0.00    +0.000 C 
BRANCH  29  30
ATOM     30  C   UNL     1       3.224   3.259  17.051  0.00  0.00    +0.000 C 
ATOM     31  C   UNL     1       1.935   3.586  17.783  0.00  0.00    +0.000 C 
ATOM     32  C   UNL     1       1.623   2.252  18.414  0.00  0.00    +0.000 C 
ATOM     33  C   UNL     1       3.002   1.744  18.800  0.00  0.00    +0.000 C 
ATOM     34  O   UNL     1       3.960   2.462  17.996  0.00  0.00    +0.000 OA
ENDBRANCH  29  30
ENDBRANCH   3  29
TORSDOF 10
ENDMDL
MODEL 9
REMARK VINA RESULT:      -6.9      6.898     11.098
REMARK  Name = 
REMARK  11 active torsions:
REMARK  status: ('A' for Active; 'I' for Inactive)
REMARK    1  A    between atoms: C_1  and  O_2
REMARK    2  A    between atoms: O_2  and  C_3
REMARK    3  A    between atoms: C_6  and  C_7
REMARK    4  A    between atoms: C_7  and  C_9
REMARK    5  A    between atoms: C_10  and  C_11
REMARK    6  A    between atoms: N_13  and  C_14
REMARK    7  A    between atoms: N_13  and  C_24
REMARK    8  A    between atoms: C_14  and  C_15
REMARK    9  A    between atoms: N_17  and  C_18
REMARK   10  A    between atoms: C_24  and  C_25
REMARK   11  A    between atoms: C_30  and  O_31
REMARK                            x       y       z     vdW  Elec       q    Type
REMARK                         _______ _______ _______ _____ _____    ______ ____
ROOT
ATOM      1  C   UNL     1       7.923   6.894  18.401  0.00  0.00    +0.000 C 
ATOM      2  O   UNL     1       8.609   6.357  19.266  0.00  0.00    +0.000 OA
ATOM      3  N   UNL     1       7.008   6.200  17.617  0.00  0.00    +0.000 N 
ENDROOT
BRANCH   1   5
ATOM      4  C   UNL     1       8.869   9.108  18.908  0.00  0.00    +0.000 C 
ATOM      5  C   UNL     1       8.134   8.339  18.090  0.00  0.00    +0.000 C 
BRANCH   4   6
ATOM      6  C   UNL     1       9.171  10.508  18.497  0.00  0.00    +0.000 C 
ATOM      7  O   UNL     1       9.463  10.794  17.336  0.00  0.00    +0.000 OA
BRANCH   6  11
ATOM      8  C   UNL     1       9.257  13.675  21.427  0.00  0.00    +0.000 A 
ATOM      9  C   UNL     1       9.528  12.358  21.807  0.00  0.00    +0.000 A 
ATOM     10  C   UNL     1       9.511  11.317  20.870  0.00  0.00    +0.000 A 
ATOM     11  C   UNL     1       9.216  11.583  19.528  0.00  0.00    +0.000 A 
ATOM     12  C   UNL     1       8.935  12.911  19.158  0.00  0.00    +0.000 A 
ATOM     13  C   UNL     1       8.982  13.950  20.090  0.00  0.00    +0.000 A 
BRANCH   8  15
ATOM     14  C   UNL     1       8.075  15.338  22.637  0.00  0.00    +0.000 C 
ATOM     15  O   UNL     1       9.271  14.590  22.442  0.00  0.00    +0.000 OA
ENDBRANCH   8  15
BRANCH  12  16
ATOM     16  O   UNL     1       8.582  13.281  17.886  0.00  0.00    +0.000 OA
ATOM     17  H   UNL     1       8.933  14.185  17.732  0.00  0.00    +0.000 HD
ENDBRANCH  12  16
ENDBRANCH   6  11
ENDBRANCH   4   6
ENDBRANCH   1   5
BRANCH   3  18
ATOM     18  C   UNL     1       6.753   4.777  17.928  0.00  0.00    +0.000 C 
BRANCH  18  19
ATOM     19  C   UNL     1       5.668   4.484  18.992  0.00  0.00    +0.000 C 
ATOM     20  O   UNL     1       5.901   4.653  20.180  0.00  0.00    +0.000 OA
ATOM     21  N   UNL     1       4.432   4.063  18.526  0.00  0.00    +0.000 N 
ATOM     22  H   UNL     1       4.369   3.759  17.559  0.00  0.00    +0.000 HD
BRANCH  21  23
ATOM     23  C   UNL     1       3.241   4.092  19.381  0.00  0.00    +0.000 C 
ATOM     24  C   UNL     1       2.060   4.768  18.663  0.00  0.00    +0.000 C 
ATOM     25  C   UNL     1       1.162   3.810  17.891  0.00  0.00    +0.000 C 
ATOM     26  C   UNL     1       0.661   2.701  18.801  0.00  0.00    +0.000 C 
ATOM     27  C   UNL     1       1.831   1.889  19.335  0.00  0.00    +0.000 C 
ATOM     28  C   UNL     1       2.893   2.744  20.034  0.00  0.00    +0.000 C 
ENDBRANCH  21  23
ENDBRANCH  18  19
ENDBRANCH   3  18
BRANCH   3  29
ATOM     29  C   UNL     1       6.110   6.828  16.630  0.00  0.00    +0.000 C 
BRANCH  29  30
ATOM     30  C   UNL     1       6.085   6.128  15.263  0.00  0.00    +0.000 C 
ATOM     31  C   UNL     1       5.176   4.912  15.253  0.00  0.00    +0.000 C 
ATOM     32  C   UNL     1       5.621   4.237  13.980  0.00  0.00    +0.000 C 
ATOM     33  C   UNL     1       7.121   4.482  13.990  0.00  0.00    +0.000 C 
ATOM     34  O   UNL     1       7.363   5.600  14.868  0.00  0.00    +0.000 OA
ENDBRANCH  29  30
ENDBRANCH   3  29
TORSDOF 10
ENDMDL
