MODEL 1
REMARK VINA RESULT:      -8.3      0.000      0.000
REMARK  Name = 
REMARK  9 active torsions:
REMARK  status: ('A' for Active; 'I' for Inactive)
REMARK    1  A    between atoms: C_2  and  O_3
REMARK    2  A    between atoms: C_2  and  C_4
REMARK    3  A    between atoms: C_4  and  C_24
REMARK    4  A    between atoms: C_5  and  C_6
REMARK    5  A    between atoms: C_9  and  O_10
REMARK    6  A    between atoms: O_10  and  C_11
REMARK    7  A    between atoms: C_11  and  C_12
REMARK    8  A    between atoms: C_15  and  C_16
REMARK    9  A    between atoms: C_24  and  C_25
REMARK                            x       y       z     vdW  Elec       q    Type
REMARK                         _______ _______ _______ _____ _____    ______ ____
ROOT
ATOM      1  C   UNL     1      -0.922  11.621  19.352  0.00  0.00    +0.000 C 
ATOM      2  C   UNL     1       0.015  11.036  20.128  0.00  0.00    +0.000 C 
ENDROOT
BRANCH   2   3
ATOM      3  C   UNL     1       0.668   9.747  19.932  0.00  0.00    +0.000 A 
ATOM      4  C   UNL     1       0.696   8.856  21.010  0.00  0.00    +0.000 A 
ATOM      5  C   UNL     1       1.375   7.647  20.900  0.00  0.00    +0.000 A 
ATOM      6  C   UNL     1       1.970   7.282  19.690  0.00  0.00    +0.000 A 
ATOM      7  C   UNL     1       1.975   8.185  18.626  0.00  0.00    +0.000 A 
ATOM      8  C   UNL     1       1.325   9.417  18.743  0.00  0.00    +0.000 A 
BRANCH   6   9
ATOM      9  O   UNL     1       2.554   6.064  19.461  0.00  0.00    +0.000 OA
BRANCH   9  10
ATOM     10  C   UNL     1       3.982   6.113  19.394  0.00  0.00    +0.000 C 
BRANCH  10  11
ATOM     11  C   UNL     1       4.461   5.665  18.038  0.00  0.00    +0.000 A 
ATOM     12  C   UNL     1       4.953   6.591  17.113  0.00  0.00    +0.000 A 
ATOM     13  C   UNL     1       5.425   6.160  15.873  0.00  0.00    +0.000 A 
ATOM     14  C   UNL     1       5.410   4.798  15.537  0.00  0.00    +0.000 A 
ATOM     15  C   UNL     1       4.917   3.873  16.469  0.00  0.00    +0.000 A 
ATOM     16  C   UNL     1       4.444   4.303  17.707  0.00  0.00    +0.000 A 
BRANCH  14  17
ATOM     17  C   UNL     1       5.909   4.315  14.199  0.00  0.00    +0.000 C 
ATOM     18  F   UNL     1       6.542   3.110  14.254  0.00  0.00    +0.000 F 
ATOM     19  F   UNL     1       4.903   4.167  13.292  0.00  0.00    +0.000 F 
ATOM     20  F   UNL     1       6.797   5.178  13.632  0.00  0.00    +0.000 F 
ENDBRANCH  14  17
ENDBRANCH  10  11
ENDBRANCH   9  10
ENDBRANCH   6   9
ENDBRANCH   2   3
BRANCH   1  22
ATOM     21  O   UNL     1      -2.149   9.961  18.192  0.00  0.00    +0.000 OA
ATOM     22  C   UNL     1      -1.608  11.055  18.147  0.00  0.00    +0.000 C 
BRANCH  22  23
ATOM     23  O   UNL     1      -1.618  11.793  17.027  0.00  0.00    +0.000 OA
ATOM     24  H   UNL     1      -0.757  11.952  16.608  0.00  0.00    +0.000 HD
ENDBRANCH  22  23
ENDBRANCH   1  22
BRANCH   1  25
ATOM     25  C   UNL     1      -1.420  13.017  19.703  0.00  0.00    +0.000 C 
BRANCH  25  26
ATOM     26  C   UNL     1      -2.349  12.963  20.919  0.00  0.00    +0.000 C 
ATOM     27  O   UNL     1      -1.901  12.997  22.069  0.00  0.00    +0.000 OA
ATOM     28  N   UNL     1      -3.702  12.825  20.681  0.00  0.00    +0.000 N 
ATOM     29  C   UNL     1      -4.661  12.857  21.776  0.00  0.00    +0.000 C 
ATOM     30  C   UNL     1      -5.916  12.202  21.199  0.00  0.00    +0.000 C 
ATOM     31  C   UNL     1      -7.215  12.560  21.910  0.00  0.00    +0.000 C 
ATOM     32  C   UNL     1      -7.653  14.000  21.674  0.00  0.00    +0.000 C 
ATOM     33  C   UNL     1      -7.730  14.321  20.188  0.00  0.00    +0.000 C 
ATOM     34  C   UNL     1      -6.419  14.029  19.460  0.00  0.00    +0.000 C 
ATOM     35  C   UNL     1      -5.868  12.618  19.721  0.00  0.00    +0.000 C 
ATOM     36  C   UNL     1      -4.364  12.537  19.411  0.00  0.00    +0.000 C 
ENDBRANCH  25  26
ENDBRANCH   1  25
TORSDOF 9
ENDMDL
MODEL 2
REMARK VINA RESULT:      -8.3      5.338     11.351
REMARK  Name = 
REMARK  9 active torsions:
REMARK  status: ('A' for Active; 'I' for Inactive)
REMARK    1  A    between atoms: C_2  and  O_3
REMARK    2  A    between atoms: C_2  and  C_4
REMARK    3  A    between atoms: C_4  and  C_24
REMARK    4  A    between atoms: C_5  and  C_6
REMARK    5  A    between atoms: C_9  and  O_10
REMARK    6  A    between atoms: O_10  and  C_11
REMARK    7  A    between atoms: C_11  and  C_12
REMARK    8  A    between atoms: C_15  and  C_16
REMARK    9  A    between atoms: C_24  and  C_25
REMARK                            x       y       z     vdW  Elec       q    Type
REMARK                         _______ _______ _______ _____ _____    ______ ____
ROOT
ATOM      1  C   UNL     1       2.461   4.609  20.073  0.00  0.00    +0.000 C 
ATOM      2  C   UNL     1       2.814   5.878  20.366  0.00  0.00    +0.000 C 
ENDROOT
BRANCH   2   3
ATOM      3  C   UNL     1       2.024   7.093  20.198  0.00  0.00    +0.000 A 
ATOM      4  C   UNL     1       2.175   7.811  19.007  0.00  0.00    +0.000 A 
ATOM      5  C   UNL     1       1.505   9.018  18.829  0.00  0.00    +0.000 A 
ATOM      6  C   UNL     1       0.621   9.481  19.806  0.00  0.00    +0.000 A 
ATOM      7  C   UNL     1       0.497   8.784  21.009  0.00  0.00    +0.000 A 
ATOM      8  C   UNL     1       1.197   7.591  21.208  0.00  0.00    +0.000 A 
BRANCH   6   9
ATOM      9  O   UNL     1      -0.166  10.594  19.661  0.00  0.00    +0.000 OA
BRANCH   9  10
ATOM     10  C   UNL     1      -0.633  10.800  18.325  0.00  0.00    +0.000 C 
BRANCH  10  11
ATOM     11  C   UNL     1      -2.130  10.959  18.309  0.00  0.00    +0.000 A 
ATOM     12  C   UNL     1      -2.925  10.151  17.490  0.00  0.00    +0.000 A 
ATOM     13  C   UNL     1      -4.314  10.285  17.509  0.00  0.00    +0.000 A 
ATOM     14  C   UNL     1      -4.928  11.228  18.345  0.00  0.00    +0.000 A 
ATOM     15  C   UNL     1      -4.127  12.035  19.166  0.00  0.00    +0.000 A 
ATOM     16  C   UNL     1      -2.740  11.904  19.146  0.00  0.00    +0.000 A 
BRANCH  14  17
ATOM     17  C   UNL     1      -6.427  11.392  18.373  0.00  0.00    +0.000 C 
ATOM     18  F   UNL     1      -6.879  12.107  19.442  0.00  0.00    +0.000 F 
ATOM     19  F   UNL     1      -6.901  12.034  17.269  0.00  0.00    +0.000 F 
ATOM     20  F   UNL     1      -7.080  10.198  18.419  0.00  0.00    +0.000 F 
ENDBRANCH  14  17
ENDBRANCH  10  11
ENDBRANCH   9  10
ENDBRANCH   6   9
ENDBRANCH   2   3
BRANCH   1  22
ATOM     21  O   UNL     1       1.088   4.189  18.191  0.00  0.00    +0.000 OA
ATOM     22  C   UNL     1       1.210   4.129  19.404  0.00  0.00    +0.000 C 
BRANCH  22  23
ATOM     23  O   UNL     1       0.239   3.623  20.179  0.00  0.00    +0.000 OA
ATOM     24  H   UNL     1      -0.663   3.926  19.992  0.00  0.00    +0.000 HD
ENDBRANCH  22  23
ENDBRANCH   1  22
BRANCH   1  25
ATOM     25  C   UNL     1       3.418   3.471  20.401  0.00  0.00    +0.000 C 
BRANCH  25  26
ATOM     26  C   UNL     1       4.017   2.889  19.118  0.00  0.00    +0.000 C 
ATOM     27  O   UNL     1       3.862   1.700  18.822  0.00  0.00    +0.000 OA
ATOM     28  N   UNL     1       4.778   3.730  18.332  0.00  0.00    +0.000 N 
ATOM     29  C   UNL     1       5.307   3.282  17.051  0.00  0.00    +0.000 C 
ATOM     30  C   UNL     1       6.443   4.260  16.749  0.00  0.00    +0.000 C 
ATOM     31  C   UNL     1       6.824   4.370  15.277  0.00  0.00    +0.000 C 
ATOM     32  C   UNL     1       5.766   5.070  14.432  0.00  0.00    +0.000 C 
ATOM     33  C   UNL     1       5.404   6.431  15.012  0.00  0.00    +0.000 C 
ATOM     34  C   UNL     1       4.959   6.343  16.470  0.00  0.00    +0.000 C 
ATOM     35  C   UNL     1       5.938   5.571  17.371  0.00  0.00    +0.000 C 
ATOM     36  C   UNL     1       5.248   5.075  18.653  0.00  0.00    +0.000 C 
ENDBRANCH  25  26
ENDBRANCH   1  25
TORSDOF 9
ENDMDL
MODEL 3
REMARK VINA RESULT:      -8.2      1.584      2.250
REMARK  Name = 
REMARK  9 active torsions:
REMARK  status: ('A' for Active; 'I' for Inactive)
REMARK    1  A    between atoms: C_2  and  O_3
REMARK    2  A    between atoms: C_2  and  C_4
REMARK    3  A    between atoms: C_4  and  C_24
REMARK    4  A    between atoms: C_5  and  C_6
REMARK    5  A    between atoms: C_9  and  O_10
REMARK    6  A    between atoms: O_10  and  C_11
REMARK    7  A    between atoms: C_11  and  C_12
REMARK    8  A    between atoms: C_15  and  C_16
REMARK    9  A    between atoms: C_24  and  C_25
REMARK                            x       y       z     vdW  Elec       q    Type
REMARK                         _______ _______ _______ _____ _____    ______ ____
ROOT
ATOM      1  C   UNL     1       0.110  11.635  19.527  0.00  0.00    +0.000 C 
ATOM      2  C   UNL     1       0.248  10.551  18.733  0.00  0.00    +0.000 C 
ENDROOT
BRANCH   2   3
ATOM      3  C   UNL     1       1.005   9.333  18.998  0.00  0.00    +0.000 A 
ATOM      4  C   UNL     1       1.694   8.747  17.931  0.00  0.00    +0.000 A 
ATOM      5  C   UNL     1       2.367   7.543  18.111  0.00  0.00    +0.000 A 
ATOM      6  C   UNL     1       2.419   6.949  19.374  0.00  0.00    +0.000 A 
ATOM      7  C   UNL     1       1.701   7.513  20.430  0.00  0.00    +0.000 A 
ATOM      8  C   UNL     1       0.993   8.704  20.245  0.00  0.00    +0.000 A 
BRANCH   6   9
ATOM      9  O   UNL     1       3.154   5.829  19.664  0.00  0.00    +0.000 OA
BRANCH   9  10
ATOM     10  C   UNL     1       4.558   5.985  19.433  0.00  0.00    +0.000 C 
BRANCH  10  11
ATOM     11  C   UNL     1       4.909   5.566  18.031  0.00  0.00    +0.000 A 
ATOM     12  C   UNL     1       5.715   6.377  17.224  0.00  0.00    +0.000 A 
ATOM     13  C   UNL     1       6.063   5.962  15.939  0.00  0.00    +0.000 A 
ATOM     14  C   UNL     1       5.609   4.734  15.438  0.00  0.00    +0.000 A 
ATOM     15  C   UNL     1       4.802   3.924  16.250  0.00  0.00    +0.000 A 
ATOM     16  C   UNL     1       4.453   4.338  17.534  0.00  0.00    +0.000 A 
BRANCH  14  17
ATOM     17  C   UNL     1       5.968   4.273  14.048  0.00  0.00    +0.000 C 
ATOM     18  F   UNL     1       6.893   5.062  13.432  0.00  0.00    +0.000 F 
ATOM     19  F   UNL     1       6.485   3.013  14.035  0.00  0.00    +0.000 F 
ATOM     20  F   UNL     1       4.890   4.242  13.215  0.00  0.00    +0.000 F 
ENDBRANCH  14  17
ENDBRANCH  10  11
ENDBRANCH   9  10
ENDBRANCH   6   9
ENDBRANCH   2   3
BRANCH   1  22
ATOM     21  O   UNL     1       1.818  12.555  20.884  0.00  0.00    +0.000 OA
ATOM     22  C   UNL     1       0.783  11.911  20.836  0.00  0.00    +0.000 C 
BRANCH  22  23
ATOM     23  O   UNL     1       0.203  11.439  21.950  0.00  0.00    +0.000 OA
ATOM     24  H   UNL     1       0.794  11.040  22.608  0.00  0.00    +0.000 HD
ENDBRANCH  22  23
ENDBRANCH   1  22
BRANCH   1  25
ATOM     25  C   UNL     1      -0.796  12.776  19.085  0.00  0.00    +0.000 C 
BRANCH  25  26
ATOM     26  C   UNL     1      -2.067  12.810  19.938  0.00  0.00    +0.000 C 
ATOM     27  O   UNL     1      -2.052  13.242  21.094  0.00  0.00    +0.000 OA
ATOM     28  N   UNL     1      -3.220  12.292  19.381  0.00  0.00    +0.000 N 
ATOM     29  C   UNL     1      -4.491  12.367  20.089  0.00  0.00    +0.000 C 
ATOM     30  C   UNL     1      -5.360  11.302  19.419  0.00  0.00    +0.000 C 
ATOM     31  C   UNL     1      -6.862  11.502  19.578  0.00  0.00    +0.000 C 
ATOM     32  C   UNL     1      -7.399  12.685  18.781  0.00  0.00    +0.000 C 
ATOM     33  C   UNL     1      -7.007  12.589  17.312  0.00  0.00    +0.000 C 
ATOM     34  C   UNL     1      -5.498  12.449  17.121  0.00  0.00    +0.000 C 
ATOM     35  C   UNL     1      -4.868  11.327  17.964  0.00  0.00    +0.000 C 
ATOM     36  C   UNL     1      -3.355  11.539  18.137  0.00  0.00    +0.000 C 
ENDBRANCH  25  26
ENDBRANCH   1  25
TORSDOF 9
ENDMDL
MODEL 4
REMARK VINA RESULT:      -8.2      1.625      2.016
REMARK  Name = 
REMARK  9 active torsions:
REMARK  status: ('A' for Active; 'I' for Inactive)
REMARK    1  A    between atoms: C_2  and  O_3
REMARK    2  A    between atoms: C_2  and  C_4
REMARK    3  A    between atoms: C_4  and  C_24
REMARK    4  A    between atoms: C_5  and  C_6
REMARK    5  A    between atoms: C_9  and  O_10
REMARK    6  A    between atoms: O_10  and  C_11
REMARK    7  A    between atoms: C_11  and  C_12
REMARK    8  A    between atoms: C_15  and  C_16
REMARK    9  A    between atoms: C_24  and  C_25
REMARK                            x       y       z     vdW  Elec       q    Type
REMARK                         _______ _______ _______ _____ _____    ______ ____
ROOT
ATOM      1  C   UNL     1       0.468  12.374  19.534  0.00  0.00    +0.000 C 
ATOM      2  C   UNL     1      -0.063  11.134  19.510  0.00  0.00    +0.000 C 
ENDROOT
BRANCH   2   3
ATOM      3  C   UNL     1       0.638   9.857  19.428  0.00  0.00    +0.000 A 
ATOM      4  C   UNL     1       0.810   9.129  20.610  0.00  0.00    +0.000 A 
ATOM      5  C   UNL     1       1.540   7.944  20.600  0.00  0.00    +0.000 A 
ATOM      6  C   UNL     1       2.041   7.437  19.399  0.00  0.00    +0.000 A 
ATOM      7  C   UNL     1       1.902   8.181  18.226  0.00  0.00    +0.000 A 
ATOM      8  C   UNL     1       1.201   9.391  18.237  0.00  0.00    +0.000 A 
BRANCH   6   9
ATOM      9  O   UNL     1       2.666   6.223  19.282  0.00  0.00    +0.000 OA
BRANCH   9  10
ATOM     10  C   UNL     1       4.088   6.316  19.156  0.00  0.00    +0.000 C 
BRANCH  10  11
ATOM     11  C   UNL     1       4.534   5.787  17.819  0.00  0.00    +0.000 A 
ATOM     12  C   UNL     1       4.892   6.662  16.788  0.00  0.00    +0.000 A 
ATOM     13  C   UNL     1       5.335   6.160  15.564  0.00  0.00    +0.000 A 
ATOM     14  C   UNL     1       5.426   4.777  15.351  0.00  0.00    +0.000 A 
ATOM     15  C   UNL     1       5.068   3.903  16.388  0.00  0.00    +0.000 A 
ATOM     16  C   UNL     1       4.623   4.404  17.610  0.00  0.00    +0.000 A 
BRANCH  14  17
ATOM     17  C   UNL     1       5.896   4.217  14.033  0.00  0.00    +0.000 C 
ATOM     18  F   UNL     1       6.422   2.963  14.128  0.00  0.00    +0.000 F 
ATOM     19  F   UNL     1       4.890   4.130  13.117  0.00  0.00    +0.000 F 
ATOM     20  F   UNL     1       6.861   4.984  13.455  0.00  0.00    +0.000 F 
ENDBRANCH  14  17
ENDBRANCH  10  11
ENDBRANCH   9  10
ENDBRANCH   6   9
ENDBRANCH   2   3
BRANCH   1  22
ATOM     21  O   UNL     1       2.461  12.691  18.295  0.00  0.00    +0.000 OA
ATOM     22  C   UNL     1       1.905  12.767  19.379  0.00  0.00    +0.000 C 
BRANCH  22  23
ATOM     23  O   UNL     1       2.553  13.215  20.465  0.00  0.00    +0.000 OA
ATOM     24  H   UNL     1       3.365  13.721  20.305  0.00  0.00    +0.000 HD
ENDBRANCH  22  23
ENDBRANCH   1  22
BRANCH   1  25
ATOM     25  C   UNL     1      -0.449  13.578  19.700  0.00  0.00    +0.000 C 
BRANCH  25  26
ATOM     26  C   UNL     1      -0.875  13.728  21.163  0.00  0.00    +0.000 C 
ATOM     27  O   UNL     1      -0.068  14.069  22.033  0.00  0.00    +0.000 OA
ATOM     28  N   UNL     1      -2.183  13.420  21.481  0.00  0.00    +0.000 N 
ATOM     29  C   UNL     1      -2.693  13.622  22.830  0.00  0.00    +0.000 C 
ATOM     30  C   UNL     1      -3.941  12.741  22.897  0.00  0.00    +0.000 C 
ATOM     31  C   UNL     1      -4.953  13.139  23.965  0.00  0.00    +0.000 C 
ATOM     32  C   UNL     1      -5.680  14.441  23.649  0.00  0.00    +0.000 C 
ATOM     33  C   UNL     1      -6.322  14.397  22.269  0.00  0.00    +0.000 C 
ATOM     34  C   UNL     1      -5.316  14.060  21.170  0.00  0.00    +0.000 C 
ATOM     35  C   UNL     1      -4.480  12.803  21.460  0.00  0.00    +0.000 C 
ATOM     36  C   UNL     1      -3.186  12.786  20.629  0.00  0.00    +0.000 C 
ENDBRANCH  25  26
ENDBRANCH   1  25
TORSDOF 9
ENDMDL
MODEL 5
REMARK VINA RESULT:      -8.2      1.629      2.986
REMARK  Name = 
REMARK  9 active torsions:
REMARK  status: ('A' for Active; 'I' for Inactive)
REMARK    1  A    between atoms: C_2  and  O_3
REMARK    2  A    between atoms: C_2  and  C_4
REMARK    3  A    between atoms: C_4  and  C_24
REMARK    4  A    between atoms: C_5  and  C_6
REMARK    5  A    between atoms: C_9  and  O_10
REMARK    6  A    between atoms: O_10  and  C_11
REMARK    7  A    between atoms: C_11  and  C_12
REMARK    8  A    between atoms: C_15  and  C_16
REMARK    9  A    between atoms: C_24  and  C_25
REMARK                            x       y       z     vdW  Elec       q    Type
REMARK                         _______ _______ _______ _____ _____    ______ ____
ROOT
ATOM      1  C   UNL     1       0.516   9.908  19.925  0.00  0.00    +0.000 C 
ATOM      2  C   UNL     1       1.238   9.470  18.872  0.00  0.00    +0.000 C 
ENDROOT
BRANCH   2   3
ATOM      3  C   UNL     1       2.083   8.284  18.792  0.00  0.00    +0.000 A 
ATOM      4  C   UNL     1       2.894   8.134  17.662  0.00  0.00    +0.000 A 
ATOM      5  C   UNL     1       3.659   6.984  17.499  0.00  0.00    +0.000 A 
ATOM      6  C   UNL     1       3.680   6.006  18.497  0.00  0.00    +0.000 A 
ATOM      7  C   UNL     1       2.844   6.137  19.607  0.00  0.00    +0.000 A 
ATOM      8  C   UNL     1       2.045   7.274  19.757  0.00  0.00    +0.000 A 
BRANCH   6   9
ATOM      9  O   UNL     1       4.493   4.903  18.471  0.00  0.00    +0.000 OA
BRANCH   9  10
ATOM     10  C   UNL     1       5.818   5.175  18.007  0.00  0.00    +0.000 C 
BRANCH  10  11
ATOM     11  C   UNL     1       5.953   4.807  16.553  0.00  0.00    +0.000 A 
ATOM     12  C   UNL     1       7.020   5.290  15.790  0.00  0.00    +0.000 A 
ATOM     13  C   UNL     1       7.153   4.916  14.453  0.00  0.00    +0.000 A 
ATOM     14  C   UNL     1       6.220   4.054  13.857  0.00  0.00    +0.000 A 
ATOM     15  C   UNL     1       5.152   3.571  14.627  0.00  0.00    +0.000 A 
ATOM     16  C   UNL     1       5.018   3.946  15.962  0.00  0.00    +0.000 A 
BRANCH  14  17
ATOM     17  C   UNL     1       6.343   3.645  12.412  0.00  0.00    +0.000 C 
ATOM     18  F   UNL     1       6.795   2.370  12.241  0.00  0.00    +0.000 F 
ATOM     19  F   UNL     1       5.154   3.710  11.750  0.00  0.00    +0.000 F 
ATOM     20  F   UNL     1       7.201   4.441  11.716  0.00  0.00    +0.000 F 
ENDBRANCH  14  17
ENDBRANCH  10  11
ENDBRANCH   9  10
ENDBRANCH   6   9
ENDBRANCH   2   3
BRANCH   1  22
ATOM     21  O   UNL     1       1.304   9.685  22.147  0.00  0.00    +0.000 OA
ATOM     22  C   UNL     1       0.477   9.349  21.315  0.00  0.00    +0.000 C 
BRANCH  22  23
ATOM     23  O   UNL     1      -0.501   8.481  21.613  0.00  0.00    +0.000 OA
ATOM     24  H   UNL     1      -0.539   8.175  22.533  0.00  0.00    +0.000 HD
ENDBRANCH  22  23
ENDBRANCH   1  22
BRANCH   1  25
ATOM     25  C   UNL     1      -0.365  11.140  19.769  0.00  0.00    +0.000 C 
BRANCH  25  26
ATOM     26  C   UNL     1      -1.609  10.807  18.940  0.00  0.00    +0.000 C 
ATOM     27  O   UNL     1      -1.573   9.954  18.047  0.00  0.00    +0.000 OA
ATOM     28  N   UNL     1      -2.757  11.530  19.195  0.00  0.00    +0.000 N 
ATOM     29  C   UNL     1      -4.006  11.215  18.516  0.00  0.00    +0.000 C 
ATOM     30  C   UNL     1      -4.851  12.479  18.675  0.00  0.00    +0.000 C 
ATOM     31  C   UNL     1      -6.355  12.270  18.537  0.00  0.00    +0.000 C 
ATOM     32  C   UNL     1      -6.965  11.508  19.708  0.00  0.00    +0.000 C 
ATOM     33  C   UNL     1      -6.618  12.163  21.038  0.00  0.00    +0.000 C 
ATOM     34  C   UNL     1      -5.112  12.330  21.229  0.00  0.00    +0.000 C 
ATOM     35  C   UNL     1      -4.409  13.014  20.045  0.00  0.00    +0.000 C 
ATOM     36  C   UNL     1      -2.901  12.714  20.038  0.00  0.00    +0.000 C 
ENDBRANCH  25  26
ENDBRANCH   1  25
TORSDOF 9
ENDMDL
MODEL 6
REMARK VINA RESULT:      -8.2      2.553      3.757
REMARK  Name = 
REMARK  9 active torsions:
REMARK  status: ('A' for Active; 'I' for Inactive)
REMARK    1  A    between atoms: C_2  and  O_3
REMARK    2  A    between atoms: C_2  and  C_4
REMARK    3  A    between atoms: C_4  and  C_24
REMARK    4  A    between atoms: C_5  and  C_6
REMARK    5  A    between atoms: C_9  and  O_10
REMARK    6  A    between atoms: O_10  and  C_11
REMARK    7  A    between atoms: C_11  and  C_12
REMARK    8  A    between atoms: C_15  and  C_16
REMARK    9  A    between atoms: C_24  and  C_25
REMARK                            x       y       z     vdW  Elec       q    Type
REMARK                         _______ _______ _______ _____ _____    ______ ____
ROOT
ATOM      1  C   UNL     1       0.458   9.830  20.111  0.00  0.00    +0.000 C 
ATOM      2  C   UNL     1       1.130   9.412  19.018  0.00  0.00    +0.000 C 
ENDROOT
BRANCH   2   3
ATOM      3  C   UNL     1       2.027   8.269  18.895  0.00  0.00    +0.000 A 
ATOM      4  C   UNL     1       2.874   8.218  17.783  0.00  0.00    +0.000 A 
ATOM      5  C   UNL     1       3.692   7.111  17.578  0.00  0.00    +0.000 A 
ATOM      6  C   UNL     1       3.727   6.079  18.519  0.00  0.00    +0.000 A 
ATOM      7  C   UNL     1       2.857   6.112  19.610  0.00  0.00    +0.000 A 
ATOM      8  C   UNL     1       2.006   7.205  19.800  0.00  0.00    +0.000 A 
BRANCH   6   9
ATOM      9  O   UNL     1       4.587   5.014  18.455  0.00  0.00    +0.000 OA
BRANCH   9  10
ATOM     10  C   UNL     1       5.871   5.341  17.913  0.00  0.00    +0.000 C 
BRANCH  10  11
ATOM     11  C   UNL     1       5.982   4.852  16.493  0.00  0.00    +0.000 A 
ATOM     12  C   UNL     1       5.007   4.009  15.950  0.00  0.00    +0.000 A 
ATOM     13  C   UNL     1       5.103   3.590  14.623  0.00  0.00    +0.000 A 
ATOM     14  C   UNL     1       6.175   4.005  13.819  0.00  0.00    +0.000 A 
ATOM     15  C   UNL     1       7.149   4.851  14.367  0.00  0.00    +0.000 A 
ATOM     16  C   UNL     1       7.055   5.269  15.694  0.00  0.00    +0.000 A 
BRANCH  14  17
ATOM     17  C   UNL     1       6.298   3.555  12.386  0.00  0.00    +0.000 C 
ATOM     18  F   UNL     1       5.145   3.683  11.671  0.00  0.00    +0.000 F 
ATOM     19  F   UNL     1       7.242   4.260  11.699  0.00  0.00    +0.000 F 
ATOM     20  F   UNL     1       6.661   2.247  12.279  0.00  0.00    +0.000 F 
ENDBRANCH  14  17
ENDBRANCH  10  11
ENDBRANCH   9  10
ENDBRANCH   6   9
ENDBRANCH   2   3
BRANCH   1  22
ATOM     21  O   UNL     1       1.514   9.515  22.207  0.00  0.00    +0.000 OA
ATOM     22  C   UNL     1       0.539   9.292  21.507  0.00  0.00    +0.000 C 
BRANCH  22  23
ATOM     23  O   UNL     1      -0.496   8.569  21.961  0.00  0.00    +0.000 OA
ATOM     24  H   UNL     1      -0.774   7.821  21.409  0.00  0.00    +0.000 HD
ENDBRANCH  22  23
ENDBRANCH   1  22
BRANCH   1  25
ATOM     25  C   UNL     1      -0.493  11.014  19.999  0.00  0.00    +0.000 C 
BRANCH  25  26
ATOM     26  C   UNL     1       0.058  12.217  20.769  0.00  0.00    +0.000 C 
ATOM     27  O   UNL     1       1.213  12.616  20.592  0.00  0.00    +0.000 OA
ATOM     28  N   UNL     1      -0.769  12.807  21.705  0.00  0.00    +0.000 N 
ATOM     29  C   UNL     1      -0.356  14.010  22.415  0.00  0.00    +0.000 C 
ATOM     30  C   UNL     1      -1.263  14.052  23.645  0.00  0.00    +0.000 C 
ATOM     31  C   UNL     1      -1.428  15.429  24.277  0.00  0.00    +0.000 C 
ATOM     32  C   UNL     1      -2.252  16.387  23.425  0.00  0.00    +0.000 C 
ATOM     33  C   UNL     1      -3.601  15.783  23.057  0.00  0.00    +0.000 C 
ATOM     34  C   UNL     1      -3.462  14.428  22.366  0.00  0.00    +0.000 C 
ATOM     35  C   UNL     1      -2.570  13.433  23.126  0.00  0.00    +0.000 C 
ATOM     36  C   UNL     1      -2.054  12.320  22.198  0.00  0.00    +0.000 C 
ENDBRANCH  25  26
ENDBRANCH   1  25
TORSDOF 9
ENDMDL
MODEL 7
REMARK VINA RESULT:      -8.1      3.215      5.426
REMARK  Name = 
REMARK  9 active torsions:
REMARK  status: ('A' for Active; 'I' for Inactive)
REMARK    1  A    between atoms: C_2  and  O_3
REMARK    2  A    between atoms: C_2  and  C_4
REMARK    3  A    between atoms: C_4  and  C_24
REMARK    4  A    between atoms: C_5  and  C_6
REMARK    5  A    between atoms: C_9  and  O_10
REMARK    6  A    between atoms: O_10  and  C_11
REMARK    7  A    between atoms: C_11  and  C_12
REMARK    8  A    between atoms: C_15  and  C_16
REMARK    9  A    between atoms: C_24  and  C_25
REMARK                            x       y       z     vdW  Elec       q    Type
REMARK                         _______ _______ _______ _____ _____    ______ ____
ROOT
ATOM      1  C   UNL     1      -0.475  12.557  19.503  0.00  0.00    +0.000 C 
ATOM      2  C   UNL     1       0.528  11.866  20.085  0.00  0.00    +0.000 C 
ENDROOT
BRANCH   2   3
ATOM      3  C   UNL     1       0.936  10.489  19.831  0.00  0.00    +0.000 A 
ATOM      4  C   UNL     1       0.898   9.588  20.901  0.00  0.00    +0.000 A 
ATOM      5  C   UNL     1       1.352   8.283  20.732  0.00  0.00    +0.000 A 
ATOM      6  C   UNL     1       1.779   7.844  19.477  0.00  0.00    +0.000 A 
ATOM      7  C   UNL     1       1.852   8.751  18.419  0.00  0.00    +0.000 A 
ATOM      8  C   UNL     1       1.432  10.073  18.593  0.00  0.00    +0.000 A 
BRANCH   6   9
ATOM      9  O   UNL     1       2.128   6.549  19.197  0.00  0.00    +0.000 OA
BRANCH   9  10
ATOM     10  C   UNL     1       3.525   6.282  19.353  0.00  0.00    +0.000 C 
BRANCH  10  11
ATOM     11  C   UNL     1       4.119   5.810  18.053  0.00  0.00    +0.000 A 
ATOM     12  C   UNL     1       4.929   6.657  17.289  0.00  0.00    +0.000 A 
ATOM     13  C   UNL     1       5.502   6.198  16.103  0.00  0.00    +0.000 A 
ATOM     14  C   UNL     1       5.272   4.887  15.660  0.00  0.00    +0.000 A 
ATOM     15  C   UNL     1       4.461   4.041  16.430  0.00  0.00    +0.000 A 
ATOM     16  C   UNL     1       3.887   4.499  17.614  0.00  0.00    +0.000 A 
BRANCH  14  17
ATOM     17  C   UNL     1       5.877   4.377  14.377  0.00  0.00    +0.000 C 
ATOM     18  F   UNL     1       6.745   5.252  13.796  0.00  0.00    +0.000 F 
ATOM     19  F   UNL     1       6.575   3.221  14.555  0.00  0.00    +0.000 F 
ATOM     20  F   UNL     1       4.936   4.102  13.431  0.00  0.00    +0.000 F 
ENDBRANCH  14  17
ENDBRANCH  10  11
ENDBRANCH   9  10
ENDBRANCH   6   9
ENDBRANCH   2   3
BRANCH   1  22
ATOM     21  O   UNL     1      -2.382  11.302  18.876  0.00  0.00    +0.000 OA
ATOM     22  C   UNL     1      -1.492  12.059  18.523  0.00  0.00    +0.000 C 
BRANCH  22  23
ATOM     23  O   UNL     1      -1.399  12.482  17.253  0.00  0.00    +0.000 OA
ATOM     24  H   UNL     1      -1.651  13.403  17.086  0.00  0.00    +0.000 HD
ENDBRANCH  22  23
ENDBRANCH   1  22
BRANCH   1  25
ATOM     25  C   UNL     1      -0.682  14.021  19.864  0.00  0.00    +0.000 C 
BRANCH  25  26
ATOM     26  C   UNL     1       0.499  14.543  20.687  0.00  0.00    +0.000 C 
ATOM     27  O   UNL     1       0.501  14.473  21.919  0.00  0.00    +0.000 OA
ATOM     28  N   UNL     1       1.539  15.137  20.000  0.00  0.00    +0.000 N 
ATOM     29  C   UNL     1       2.740  15.577  20.697  0.00  0.00    +0.000 C 
ATOM     30  C   UNL     1       3.387  16.578  19.739  0.00  0.00    +0.000 C 
ATOM     31  C   UNL     1       4.880  16.798  19.950  0.00  0.00    +0.000 C 
ATOM     32  C   UNL     1       5.729  15.600  19.543  0.00  0.00    +0.000 C 
ATOM     33  C   UNL     1       5.431  15.169  18.113  0.00  0.00    +0.000 C 
ATOM     34  C   UNL     1       3.947  14.881  17.889  0.00  0.00    +0.000 C 
ATOM     35  C   UNL     1       3.020  16.014  18.358  0.00  0.00    +0.000 C 
ATOM     36  C   UNL     1       1.586  15.506  18.588  0.00  0.00    +0.000 C 
ENDBRANCH  25  26
ENDBRANCH   1  25
TORSDOF 9
ENDMDL
MODEL 8
REMARK VINA RESULT:      -8.1      1.083      1.587
REMARK  Name = 
REMARK  9 active torsions:
REMARK  status: ('A' for Active; 'I' for Inactive)
REMARK    1  A    between atoms: C_2  and  O_3
REMARK    2  A    between atoms: C_2  and  C_4
REMARK    3  A    between atoms: C_4  and  C_24
REMARK    4  A    between atoms: C_5  and  C_6
REMARK    5  A    between atoms: C_9  and  O_10
REMARK    6  A    between atoms: O_10  and  C_11
REMARK    7  A    between atoms: C_11  and  C_12
REMARK    8  A    between atoms: C_15  and  C_16
REMARK    9  A    between atoms: C_24  and  C_25
REMARK                            x       y       z     vdW  Elec       q    Type
REMARK                         _______ _______ _______ _____ _____    ______ ____
ROOT
ATOM      1  C   UNL     1      -0.546  11.437  18.592  0.00  0.00    +0.000 C 
ATOM      2  C   UNL     1       0.558  11.047  19.265  0.00  0.00    +0.000 C 
ENDROOT
BRANCH   2   3
ATOM      3  C   UNL     1       1.127   9.708  19.360  0.00  0.00    +0.000 A 
ATOM      4  C   UNL     1       1.705   9.159  18.211  0.00  0.00    +0.000 A 
ATOM      5  C   UNL     1       2.191   7.855  18.227  0.00  0.00    +0.000 A 
ATOM      6  C   UNL     1       2.171   7.112  19.410  0.00  0.00    +0.000 A 
ATOM      7  C   UNL     1       1.561   7.645  20.547  0.00  0.00    +0.000 A 
ATOM      8  C   UNL     1       1.038   8.941  20.525  0.00  0.00    +0.000 A 
BRANCH   6   9
ATOM      9  O   UNL     1       2.733   5.870  19.543  0.00  0.00    +0.000 OA
BRANCH   9  10
ATOM     10  C   UNL     1       4.161   5.871  19.460  0.00  0.00    +0.000 C 
BRANCH  10  11
ATOM     11  C   UNL     1       4.608   5.484  18.075  0.00  0.00    +0.000 A 
ATOM     12  C   UNL     1       5.512   6.283  17.367  0.00  0.00    +0.000 A 
ATOM     13  C   UNL     1       5.945   5.896  16.098  0.00  0.00    +0.000 A 
ATOM     14  C   UNL     1       5.479   4.708  15.517  0.00  0.00    +0.000 A 
ATOM     15  C   UNL     1       4.574   3.910  16.231  0.00  0.00    +0.000 A 
ATOM     16  C   UNL     1       4.140   4.296  17.498  0.00  0.00    +0.000 A 
BRANCH  14  17
ATOM     17  C   UNL     1       5.930   4.279  14.144  0.00  0.00    +0.000 C 
ATOM     18  F   UNL     1       6.554   3.068  14.127  0.00  0.00    +0.000 F 
ATOM     19  F   UNL     1       4.893   4.176  13.265  0.00  0.00    +0.000 F 
ATOM     20  F   UNL     1       6.806   5.159  13.584  0.00  0.00    +0.000 F 
ENDBRANCH  14  17
ENDBRANCH  10  11
ENDBRANCH   9  10
ENDBRANCH   6   9
ENDBRANCH   2   3
BRANCH   1  22
ATOM     21  O   UNL     1      -2.144   9.698  18.434  0.00  0.00    +0.000 OA
ATOM     22  C   UNL     1      -1.530  10.580  17.857  0.00  0.00    +0.000 C 
BRANCH  22  23
ATOM     23  O   UNL     1      -1.719  10.823  16.551  0.00  0.00    +0.000 OA
ATOM     24  H   UNL     1      -2.350  10.246  16.093  0.00  0.00    +0.000 HD
ENDBRANCH  22  23
ENDBRANCH   1  22
BRANCH   1  25
ATOM     25  C   UNL     1      -0.923  12.912  18.563  0.00  0.00    +0.000 C 
BRANCH  25  26
ATOM     26  C   UNL     1      -1.065  13.456  19.987  0.00  0.00    +0.000 C 
ATOM     27  O   UNL     1      -0.105  13.958  20.579  0.00  0.00    +0.000 OA
ATOM     28  N   UNL     1      -2.294  13.319  20.601  0.00  0.00    +0.000 N 
ATOM     29  C   UNL     1      -2.540  13.889  21.918  0.00  0.00    +0.000 C 
ATOM     30  C   UNL     1      -3.764  13.132  22.435  0.00  0.00    +0.000 C 
ATOM     31  C   UNL     1      -4.553  13.850  23.523  0.00  0.00    +0.000 C 
ATOM     32  C   UNL     1      -5.310  15.070  23.012  0.00  0.00    +0.000 C 
ATOM     33  C   UNL     1      -6.200  14.715  21.828  0.00  0.00    +0.000 C 
ATOM     34  C   UNL     1      -5.422  14.048  20.695  0.00  0.00    +0.000 C 
ATOM     35  C   UNL     1      -4.561  12.858  21.152  0.00  0.00    +0.000 C 
ATOM     36  C   UNL     1      -3.447  12.551  20.138  0.00  0.00    +0.000 C 
ENDBRANCH  25  26
ENDBRANCH   1  25
TORSDOF 9
ENDMDL
MODEL 9
REMARK VINA RESULT:      -8.0      2.566      4.685
REMARK  Name = 
REMARK  9 active torsions:
REMARK  status: ('A' for Active; 'I' for Inactive)
REMARK    1  A    between atoms: C_2  and  O_3
REMARK    2  A    between atoms: C_2  and  C_4
REMARK    3  A    between atoms: C_4  and  C_24
REMARK    4  A    between atoms: C_5  and  C_6
REMARK    5  A    between atoms: C_9  and  O_10
REMARK    6  A    between atoms: O_10  and  C_11
REMARK    7  A    between atoms: C_11  and  C_12
REMARK    8  A    between atoms: C_15  and  C_16
REMARK    9  A    between atoms: C_24  and  C_25
REMARK                            x       y       z     vdW  Elec       q    Type
REMARK                         _______ _______ _______ _____ _____    ______ ____
ROOT
ATOM      1  C   UNL     1      -1.372  12.023  19.739  0.00  0.00    +0.000 C 
ATOM      2  C   UNL     1      -0.509  11.444  20.602  0.00  0.00    +0.000 C 
ENDROOT
BRANCH   2   3
ATOM      3  C   UNL     1       0.313  10.258  20.391  0.00  0.00    +0.000 A 
ATOM      4  C   UNL     1       0.980  10.134  19.167  0.00  0.00    +0.000 A 
ATOM      5  C   UNL     1       1.713   8.985  18.885  0.00  0.00    +0.000 A 
ATOM      6  C   UNL     1       1.848   7.983  19.848  0.00  0.00    +0.000 A 
ATOM      7  C   UNL     1       1.154   8.089  21.054  0.00  0.00    +0.000 A 
ATOM      8  C   UNL     1       0.386   9.225  21.328  0.00  0.00    +0.000 A 
BRANCH   6   9
ATOM      9  O   UNL     1       2.646   6.879  19.698  0.00  0.00    +0.000 OA
BRANCH   9  10
ATOM     10  C   UNL     1       2.177   5.960  18.706  0.00  0.00    +0.000 C 
BRANCH  10  11
ATOM     11  C   UNL     1       3.300   5.564  17.784  0.00  0.00    +0.000 A 
ATOM     12  C   UNL     1       3.572   4.216  17.528  0.00  0.00    +0.000 A 
ATOM     13  C   UNL     1       4.592   3.861  16.646  0.00  0.00    +0.000 A 
ATOM     14  C   UNL     1       5.359   4.848  16.008  0.00  0.00    +0.000 A 
ATOM     15  C   UNL     1       5.082   6.198  16.266  0.00  0.00    +0.000 A 
ATOM     16  C   UNL     1       4.063   6.553  17.149  0.00  0.00    +0.000 A 
BRANCH  14  17
ATOM     17  C   UNL     1       6.470   4.483  15.057  0.00  0.00    +0.000 C 
ATOM     18  F   UNL     1       6.231   3.346  14.346  0.00  0.00    +0.000 F 
ATOM     19  F   UNL     1       6.706   5.457  14.134  0.00  0.00    +0.000 F 
ATOM     20  F   UNL     1       7.656   4.281  15.696  0.00  0.00    +0.000 F 
ENDBRANCH  14  17
ENDBRANCH  10  11
ENDBRANCH   9  10
ENDBRANCH   6   9
ENDBRANCH   2   3
BRANCH   1  22
ATOM     21  O   UNL     1      -2.379  10.483  18.250  0.00  0.00    +0.000 OA
ATOM     22  C   UNL     1      -1.785  11.541  18.383  0.00  0.00    +0.000 C 
BRANCH  22  23
ATOM     23  O   UNL     1      -1.491  12.314  17.327  0.00  0.00    +0.000 OA
ATOM     24  H   UNL     1      -2.109  12.276  16.580  0.00  0.00    +0.000 HD
ENDBRANCH  22  23
ENDBRANCH   1  22
BRANCH   1  25
ATOM     25  C   UNL     1      -2.078  13.311  20.139  0.00  0.00    +0.000 C 
BRANCH  25  26
ATOM     26  C   UNL     1      -1.150  14.192  20.980  0.00  0.00    +0.000 C 
ATOM     27  O   UNL     1      -1.248  14.234  22.210  0.00  0.00    +0.000 OA
ATOM     28  N   UNL     1      -0.234  14.976  20.306  0.00  0.00    +0.000 N 
ATOM     29  C   UNL     1       0.745  15.772  21.032  0.00  0.00    +0.000 C 
ATOM     30  C   UNL     1       1.206  16.820  20.018  0.00  0.00    +0.000 C 
ATOM     31  C   UNL     1       2.568  17.439  20.306  0.00  0.00    +0.000 C 
ATOM     32  C   UNL     1       3.727  16.473  20.091  0.00  0.00    +0.000 C 
ATOM     33  C   UNL     1       3.684  15.856  18.699  0.00  0.00    +0.000 C 
ATOM     34  C   UNL     1       2.349  15.173  18.406  0.00  0.00    +0.000 C 
ATOM     35  C   UNL     1       1.126  16.061  18.685  0.00  0.00    +0.000 C 
ATOM     36  C   UNL     1      -0.148  15.219  18.869  0.00  0.00    +0.000 C 
ENDBRANCH  25  26
ENDBRANCH   1  25
TORSDOF 9
ENDMDL
