MODEL 1
REMARK VINA RESULT:      -6.6      0.000      0.000
REMARK  Name = 
REMARK  5 active torsions:
REMARK  status: ('A' for Active; 'I' for Inactive)
REMARK    1  A    between atoms: C_1  and  C_2
REMARK    2  A    between atoms: C_2  and  C_3
REMARK    3  A    between atoms: C_2  and  N_11
REMARK    4  A    between atoms: C_3  and  C_5
REMARK    5  A    between atoms: N_14  and  C_15
REMARK                            x       y       z     vdW  Elec       q    Type
REMARK                         _______ _______ _______ _____ _____    ______ ____
ROOT
ATOM      1  C   UNL     1       2.808   6.885  18.715  0.00  0.00    +0.000 C 
ATOM      2  C   UNL     1       2.838   5.584  17.929  0.00  0.00    +0.000 C 
ENDROOT
BRANCH   2   3
ATOM      3  N   UNL     1       2.144   4.507  18.687  0.00  0.00    +0.000 N 
ATOM      4  C   UNL     1       1.352   3.507  18.155  0.00  0.00    +0.000 A 
ATOM      5  C   UNL     1       1.001   2.688  19.188  0.00  0.00    +0.000 A 
ATOM      6  N   UNL     1       1.578   3.208  20.328  0.00  0.00    +0.000 N 
ATOM      7  C   UNL     1       1.542   2.657  21.669  0.00  0.00    +0.000 C 
ATOM      8  C   UNL     1       2.223   4.354  20.023  0.00  0.00    +0.000 A 
ENDBRANCH   2   3
BRANCH   2   9
ATOM      9  C   UNL     1       4.219   5.111  17.430  0.00  0.00    +0.000 C 
ATOM     10  O   UNL     1       4.347   4.288  16.518  0.00  0.00    +0.000 OA
BRANCH   9  11
ATOM     11  C   UNL     1       5.461   5.790  17.889  0.00  0.00    +0.000 A 
ATOM     12  C   UNL     1       6.121   5.268  19.010  0.00  0.00    +0.000 A 
ATOM     13  C   UNL     1       7.392   5.730  19.357  0.00  0.00    +0.000 A 
ATOM     14  C   UNL     1       8.011   6.711  18.583  0.00  0.00    +0.000 A 
ATOM     15  C   UNL     1       7.352   7.245  17.477  0.00  0.00    +0.000 A 
ATOM     16  C   UNL     1       6.075   6.793  17.128  0.00  0.00    +0.000 A 
ENDBRANCH   9  11
ENDBRANCH   2   9
TORSDOF 3
ENDMDL
MODEL 2
REMARK VINA RESULT:      -6.5      2.524      5.769
REMARK  Name = 
REMARK  5 active torsions:
REMARK  status: ('A' for Active; 'I' for Inactive)
REMARK    1  A    between atoms: C_1  and  C_2
REMARK    2  A    between atoms: C_2  and  C_3
REMARK    3  A    between atoms: C_2  and  N_11
REMARK    4  A    between atoms: C_3  and  C_5
REMARK    5  A    between atoms: N_14  and  C_15
REMARK                            x       y       z     vdW  Elec       q    Type
REMARK                         _______ _______ _______ _____ _____    ______ ____
ROOT
ATOM      1  C   UNL     1       3.775   6.558  17.758  0.00  0.00    +0.000 C 
ATOM      2  C   UNL     1       4.920   5.614  18.088  0.00  0.00    +0.000 C 
ENDROOT
BRANCH   2   3
ATOM      3  N   UNL     1       5.682   5.276  16.854  0.00  0.00    +0.000 N 
ATOM      4  C   UNL     1       7.047   5.395  16.673  0.00  0.00    +0.000 A 
ATOM      5  C   UNL     1       7.329   4.887  15.439  0.00  0.00    +0.000 A 
ATOM      6  N   UNL     1       6.131   4.477  14.890  0.00  0.00    +0.000 N 
ATOM      7  C   UNL     1       5.922   3.816  13.616  0.00  0.00    +0.000 C 
ATOM      8  C   UNL     1       5.122   4.775  15.736  0.00  0.00    +0.000 A 
ENDBRANCH   2   3
BRANCH   2   9
ATOM      9  C   UNL     1       4.558   4.343  18.884  0.00  0.00    +0.000 C 
ATOM     10  O   UNL     1       5.411   3.650  19.448  0.00  0.00    +0.000 OA
BRANCH   9  11
ATOM     11  C   UNL     1       3.137   4.017  19.180  0.00  0.00    +0.000 A 
ATOM     12  C   UNL     1       2.443   3.209  18.270  0.00  0.00    +0.000 A 
ATOM     13  C   UNL     1       1.184   2.700  18.596  0.00  0.00    +0.000 A 
ATOM     14  C   UNL     1       0.616   2.991  19.836  0.00  0.00    +0.000 A 
ATOM     15  C   UNL     1       1.295   3.809  20.739  0.00  0.00    +0.000 A 
ATOM     16  C   UNL     1       2.552   4.328  20.415  0.00  0.00    +0.000 A 
ENDBRANCH   9  11
ENDBRANCH   2   9
TORSDOF 3
ENDMDL
MODEL 3
REMARK VINA RESULT:      -6.5      2.527      5.850
REMARK  Name = 
REMARK  5 active torsions:
REMARK  status: ('A' for Active; 'I' for Inactive)
REMARK    1  A    between atoms: C_1  and  C_2
REMARK    2  A    between atoms: C_2  and  C_3
REMARK    3  A    between atoms: C_2  and  N_11
REMARK    4  A    between atoms: C_3  and  C_5
REMARK    5  A    between atoms: N_14  and  C_15
REMARK                            x       y       z     vdW  Elec       q    Type
REMARK                         _______ _______ _______ _____ _____    ______ ____
ROOT
ATOM      1  C   UNL     1       6.206   5.154  19.103  0.00  0.00    +0.000 C 
ATOM      2  C   UNL     1       5.189   4.693  18.071  0.00  0.00    +0.000 C 
ENDROOT
BRANCH   2   3
ATOM      3  N   UNL     1       5.784   4.730  16.707  0.00  0.00    +0.000 N 
ATOM      4  C   UNL     1       6.964   5.351  16.343  0.00  0.00    +0.000 A 
ATOM      5  C   UNL     1       7.178   5.055  15.028  0.00  0.00    +0.000 A 
ATOM      6  N   UNL     1       6.121   4.268  14.617  0.00  0.00    +0.000 N 
ATOM      7  C   UNL     1       5.930   3.653  13.317  0.00  0.00    +0.000 C 
ATOM      8  C   UNL     1       5.243   4.126  15.632  0.00  0.00    +0.000 A 
ENDBRANCH   2   3
BRANCH   2   9
ATOM      9  C   UNL     1       3.814   5.393  18.097  0.00  0.00    +0.000 C 
ATOM     10  O   UNL     1       3.601   6.454  17.503  0.00  0.00    +0.000 OA
BRANCH   9  11
ATOM     11  C   UNL     1       2.626   4.704  18.670  0.00  0.00    +0.000 A 
ATOM     12  C   UNL     1       2.105   3.604  17.976  0.00  0.00    +0.000 A 
ATOM     13  C   UNL     1       1.131   2.796  18.566  0.00  0.00    +0.000 A 
ATOM     14  C   UNL     1       0.678   3.079  19.853  0.00  0.00    +0.000 A 
ATOM     15  C   UNL     1       1.181   4.183  20.542  0.00  0.00    +0.000 A 
ATOM     16  C   UNL     1       2.151   5.001  19.953  0.00  0.00    +0.000 A 
ENDBRANCH   9  11
ENDBRANCH   2   9
TORSDOF 3
ENDMDL
MODEL 4
REMARK VINA RESULT:      -6.4      2.072      5.731
REMARK  Name = 
REMARK  5 active torsions:
REMARK  status: ('A' for Active; 'I' for Inactive)
REMARK    1  A    between atoms: C_1  and  C_2
REMARK    2  A    between atoms: C_2  and  C_3
REMARK    3  A    between atoms: C_2  and  N_11
REMARK    4  A    between atoms: C_3  and  C_5
REMARK    5  A    between atoms: N_14  and  C_15
REMARK                            x       y       z     vdW  Elec       q    Type
REMARK                         _______ _______ _______ _____ _____    ______ ____
ROOT
ATOM      1  C   UNL     1       4.488   3.641  16.891  0.00  0.00    +0.000 C 
ATOM      2  C   UNL     1       4.292   5.125  17.159  0.00  0.00    +0.000 C 
ENDROOT
BRANCH   2   3
ATOM      3  N   UNL     1       5.559   5.732  17.650  0.00  0.00    +0.000 N 
ATOM      4  C   UNL     1       6.508   5.121  18.448  0.00  0.00    +0.000 A 
ATOM      5  C   UNL     1       7.544   5.999  18.574  0.00  0.00    +0.000 A 
ATOM      6  N   UNL     1       7.204   7.129  17.859  0.00  0.00    +0.000 N 
ATOM      7  C   UNL     1       8.009   8.316  17.643  0.00  0.00    +0.000 C 
ATOM      8  C   UNL     1       5.963   6.982  17.348  0.00  0.00    +0.000 A 
ENDBRANCH   2   3
BRANCH   2   9
ATOM      9  C   UNL     1       3.104   5.511  18.064  0.00  0.00    +0.000 C 
ATOM     10  O   UNL     1       2.497   6.580  17.939  0.00  0.00    +0.000 OA
BRANCH   9  11
ATOM     11  C   UNL     1       2.505   4.514  18.992  0.00  0.00    +0.000 A 
ATOM     12  C   UNL     1       2.906   4.541  20.335  0.00  0.00    +0.000 A 
ATOM     13  C   UNL     1       2.230   3.775  21.287  0.00  0.00    +0.000 A 
ATOM     14  C   UNL     1       1.148   2.985  20.904  0.00  0.00    +0.000 A 
ATOM     15  C   UNL     1       0.755   2.942  19.566  0.00  0.00    +0.000 A 
ATOM     16  C   UNL     1       1.433   3.700  18.606  0.00  0.00    +0.000 A 
ENDBRANCH   9  11
ENDBRANCH   2   9
TORSDOF 3
ENDMDL
MODEL 5
REMARK VINA RESULT:      -6.4      2.480      5.705
REMARK  Name = 
REMARK  5 active torsions:
REMARK  status: ('A' for Active; 'I' for Inactive)
REMARK    1  A    between atoms: C_1  and  C_2
REMARK    2  A    between atoms: C_2  and  C_3
REMARK    3  A    between atoms: C_2  and  N_11
REMARK    4  A    between atoms: C_3  and  C_5
REMARK    5  A    between atoms: N_14  and  C_15
REMARK                            x       y       z     vdW  Elec       q    Type
REMARK                         _______ _______ _______ _____ _____    ______ ____
ROOT
ATOM      1  C   UNL     1       3.565   6.279  17.962  0.00  0.00    +0.000 C 
ATOM      2  C   UNL     1       4.818   5.461  18.234  0.00  0.00    +0.000 C 
ENDROOT
BRANCH   2   3
ATOM      3  N   UNL     1       5.581   5.252  16.973  0.00  0.00    +0.000 N 
ATOM      4  C   UNL     1       6.888   5.632  16.732  0.00  0.00    +0.000 A 
ATOM      5  C   UNL     1       7.215   5.163  15.493  0.00  0.00    +0.000 A 
ATOM      6  N   UNL     1       6.100   4.515  15.002  0.00  0.00    +0.000 N 
ATOM      7  C   UNL     1       5.974   3.798  13.747  0.00  0.00    +0.000 C 
ATOM      8  C   UNL     1       5.087   4.627  15.887  0.00  0.00    +0.000 A 
ENDBRANCH   2   3
BRANCH   2   9
ATOM      9  C   UNL     1       4.622   4.132  18.993  0.00  0.00    +0.000 C 
ATOM     10  O   UNL     1       5.562   3.526  19.517  0.00  0.00    +0.000 OA
BRANCH   9  11
ATOM     11  C   UNL     1       3.256   3.634  19.304  0.00  0.00    +0.000 A 
ATOM     12  C   UNL     1       2.649   4.070  20.490  0.00  0.00    +0.000 A 
ATOM     13  C   UNL     1       1.300   3.806  20.729  0.00  0.00    +0.000 A 
ATOM     14  C   UNL     1       0.548   3.111  19.784  0.00  0.00    +0.000 A 
ATOM     15  C   UNL     1       1.150   2.659  18.610  0.00  0.00    +0.000 A 
ATOM     16  C   UNL     1       2.504   2.913  18.367  0.00  0.00    +0.000 A 
ENDBRANCH   9  11
ENDBRANCH   2   9
TORSDOF 3
ENDMDL
MODEL 6
REMARK VINA RESULT:      -6.4      2.007      5.722
REMARK  Name = 
REMARK  5 active torsions:
REMARK  status: ('A' for Active; 'I' for Inactive)
REMARK    1  A    between atoms: C_1  and  C_2
REMARK    2  A    between atoms: C_2  and  C_3
REMARK    3  A    between atoms: C_2  and  N_11
REMARK    4  A    between atoms: C_3  and  C_5
REMARK    5  A    between atoms: N_14  and  C_15
REMARK                            x       y       z     vdW  Elec       q    Type
REMARK                         _______ _______ _______ _____ _____    ______ ____
ROOT
ATOM      1  C   UNL     1       4.128   3.486  17.229  0.00  0.00    +0.000 C 
ATOM      2  C   UNL     1       4.045   5.002  17.309  0.00  0.00    +0.000 C 
ENDROOT
BRANCH   2   3
ATOM      3  N   UNL     1       5.361   5.570  17.712  0.00  0.00    +0.000 N 
ATOM      4  C   UNL     1       6.349   4.925  18.430  0.00  0.00    +0.000 A 
ATOM      5  C   UNL     1       7.415   5.774  18.490  0.00  0.00    +0.000 A 
ATOM      6  N   UNL     1       7.052   6.922  17.816  0.00  0.00    +0.000 N 
ATOM      7  C   UNL     1       7.869   8.092  17.555  0.00  0.00    +0.000 C 
ATOM      8  C   UNL     1       5.773   6.813  17.397  0.00  0.00    +0.000 A 
ENDBRANCH   2   3
BRANCH   2   9
ATOM      9  C   UNL     1       2.902   5.585  18.166  0.00  0.00    +0.000 C 
ATOM     10  O   UNL     1       2.386   6.681  17.923  0.00  0.00    +0.000 OA
BRANCH   9  11
ATOM     11  C   UNL     1       2.230   4.751  19.198  0.00  0.00    +0.000 A 
ATOM     12  C   UNL     1       1.299   3.796  18.770  0.00  0.00    +0.000 A 
ATOM     13  C   UNL     1       0.797   2.850  19.665  0.00  0.00    +0.000 A 
ATOM     14  C   UNL     1       1.228   2.849  20.991  0.00  0.00    +0.000 A 
ATOM     15  C   UNL     1       2.142   3.808  21.427  0.00  0.00    +0.000 A 
ATOM     16  C   UNL     1       2.642   4.764  20.537  0.00  0.00    +0.000 A 
ENDBRANCH   9  11
ENDBRANCH   2   9
TORSDOF 3
ENDMDL
MODEL 7
REMARK VINA RESULT:      -6.3      0.742      1.418
REMARK  Name = 
REMARK  5 active torsions:
REMARK  status: ('A' for Active; 'I' for Inactive)
REMARK    1  A    between atoms: C_1  and  C_2
REMARK    2  A    between atoms: C_2  and  C_3
REMARK    3  A    between atoms: C_2  and  N_11
REMARK    4  A    between atoms: C_3  and  C_5
REMARK    5  A    between atoms: N_14  and  C_15
REMARK                            x       y       z     vdW  Elec       q    Type
REMARK                         _______ _______ _______ _____ _____    ______ ____
ROOT
ATOM      1  C   UNL     1       3.259   6.559  18.254  0.00  0.00    +0.000 C 
ATOM      2  C   UNL     1       3.349   5.211  17.556  0.00  0.00    +0.000 C 
ENDROOT
BRANCH   2   3
ATOM      3  N   UNL     1       2.842   4.133  18.450  0.00  0.00    +0.000 N 
ATOM      4  C   UNL     1       2.386   2.888  18.058  0.00  0.00    +0.000 A 
ATOM      5  C   UNL     1       2.112   2.191  19.198  0.00  0.00    +0.000 A 
ATOM      6  N   UNL     1       2.397   3.025  20.259  0.00  0.00    +0.000 N 
ATOM      7  C   UNL     1       2.324   2.715  21.674  0.00  0.00    +0.000 C 
ATOM      8  C   UNL     1       2.784   4.232  19.792  0.00  0.00    +0.000 A 
ENDBRANCH   2   3
BRANCH   2   9
ATOM      9  C   UNL     1       4.720   4.836  16.956  0.00  0.00    +0.000 C 
ATOM     10  O   UNL     1       4.828   4.172  15.920  0.00  0.00    +0.000 OA
BRANCH   9  11
ATOM     11  C   UNL     1       5.969   5.440  17.490  0.00  0.00    +0.000 A 
ATOM     12  C   UNL     1       6.459   6.597  16.868  0.00  0.00    +0.000 A 
ATOM     13  C   UNL     1       7.500   7.322  17.450  0.00  0.00    +0.000 A 
ATOM     14  C   UNL     1       8.053   6.900  18.658  0.00  0.00    +0.000 A 
ATOM     15  C   UNL     1       7.581   5.740  19.272  0.00  0.00    +0.000 A 
ATOM     16  C   UNL     1       6.544   5.004  18.690  0.00  0.00    +0.000 A 
ENDBRANCH   9  11
ENDBRANCH   2   9
TORSDOF 3
ENDMDL
MODEL 8
REMARK VINA RESULT:      -6.3      3.417      4.398
REMARK  Name = 
REMARK  5 active torsions:
REMARK  status: ('A' for Active; 'I' for Inactive)
REMARK    1  A    between atoms: C_1  and  C_2
REMARK    2  A    between atoms: C_2  and  C_3
REMARK    3  A    between atoms: C_2  and  N_11
REMARK    4  A    between atoms: C_3  and  C_5
REMARK    5  A    between atoms: N_14  and  C_15
REMARK                            x       y       z     vdW  Elec       q    Type
REMARK                         _______ _______ _______ _____ _____    ______ ____
ROOT
ATOM      1  C   UNL     1       5.053   6.842  17.165  0.00  0.00    +0.000 C 
ATOM      2  C   UNL     1       5.123   5.448  16.562  0.00  0.00    +0.000 C 
ENDROOT
BRANCH   2   3
ATOM      3  N   UNL     1       4.725   4.428  17.570  0.00  0.00    +0.000 N 
ATOM      4  C   UNL     1       5.195   4.327  18.866  0.00  0.00    +0.000 A 
ATOM      5  C   UNL     1       4.497   3.318  19.463  0.00  0.00    +0.000 A 
ATOM      6  N   UNL     1       3.623   2.820  18.518  0.00  0.00    +0.000 N 
ATOM      7  C   UNL     1       2.629   1.779  18.695  0.00  0.00    +0.000 C 
ATOM      8  C   UNL     1       3.812   3.463  17.346  0.00  0.00    +0.000 A 
ENDBRANCH   2   3
BRANCH   2   9
ATOM      9  C   UNL     1       6.449   5.061  15.874  0.00  0.00    +0.000 C 
ATOM     10  O   UNL     1       7.481   4.829  16.510  0.00  0.00    +0.000 OA
BRANCH   9  11
ATOM     11  C   UNL     1       6.481   4.744  14.420  0.00  0.00    +0.000 A 
ATOM     12  C   UNL     1       7.541   5.254  13.658  0.00  0.00    +0.000 A 
ATOM     13  C   UNL     1       7.738   4.821  12.346  0.00  0.00    +0.000 A 
ATOM     14  C   UNL     1       6.881   3.873  11.790  0.00  0.00    +0.000 A 
ATOM     15  C   UNL     1       5.814   3.374  12.538  0.00  0.00    +0.000 A 
ATOM     16  C   UNL     1       5.607   3.810  13.851  0.00  0.00    +0.000 A 
ENDBRANCH   9  11
ENDBRANCH   2   9
TORSDOF 3
ENDMDL
MODEL 9
REMARK VINA RESULT:      -6.2      2.531      5.826
REMARK  Name = 
REMARK  5 active torsions:
REMARK  status: ('A' for Active; 'I' for Inactive)
REMARK    1  A    between atoms: C_1  and  C_2
REMARK    2  A    between atoms: C_2  and  C_3
REMARK    3  A    between atoms: C_2  and  N_11
REMARK    4  A    between atoms: C_3  and  C_5
REMARK    5  A    between atoms: N_14  and  C_15
REMARK                            x       y       z     vdW  Elec       q    Type
REMARK                         _______ _______ _______ _____ _____    ______ ____
ROOT
ATOM      1  C   UNL     1       6.360   5.385  19.055  0.00  0.00    +0.000 C 
ATOM      2  C   UNL     1       5.382   4.708  18.107  0.00  0.00    +0.000 C 
ENDROOT
BRANCH   2   3
ATOM      3  N   UNL     1       5.896   4.758  16.711  0.00  0.00    +0.000 N 
ATOM      4  C   UNL     1       7.003   5.458  16.269  0.00  0.00    +0.000 A 
ATOM      5  C   UNL     1       7.166   5.148  14.950  0.00  0.00    +0.000 A 
ATOM      6  N   UNL     1       6.153   4.275  14.614  0.00  0.00    +0.000 N 
ATOM      7  C   UNL     1       5.938   3.617  13.339  0.00  0.00    +0.000 C 
ATOM      8  C   UNL     1       5.345   4.090  15.680  0.00  0.00    +0.000 A 
ENDBRANCH   2   3
BRANCH   2   9
ATOM      9  C   UNL     1       3.915   5.182  18.176  0.00  0.00    +0.000 C 
ATOM     10  O   UNL     1       3.508   6.166  17.551  0.00  0.00    +0.000 OA
BRANCH   9  11
ATOM     11  C   UNL     1       2.880   4.343  18.838  0.00  0.00    +0.000 A 
ATOM     12  C   UNL     1       2.581   4.604  20.183  0.00  0.00    +0.000 A 
ATOM     13  C   UNL     1       1.482   3.995  20.791  0.00  0.00    +0.000 A 
ATOM     14  C   UNL     1       0.673   3.128  20.058  0.00  0.00    +0.000 A 
ATOM     15  C   UNL     1       0.976   2.852  18.725  0.00  0.00    +0.000 A 
ATOM     16  C   UNL     1       2.080   3.451  18.112  0.00  0.00    +0.000 A 
ENDBRANCH   9  11
ENDBRANCH   2   9
TORSDOF 3
ENDMDL
