MODEL 1
REMARK VINA RESULT:      -7.0      0.000      0.000
REMARK  Name = 
REMARK  13 active torsions:
REMARK  status: ('A' for Active; 'I' for Inactive)
REMARK    1  A    between atoms: C_1  and  O_2
REMARK    2  A    between atoms: O_2  and  C_3
REMARK    3  A    between atoms: C_6  and  C_7
REMARK    4  A    between atoms: C_7  and  O_9
REMARK    5  A    between atoms: O_9  and  C_10
REMARK    6  A    between atoms: C_10  and  C_11
REMARK    7  A    between atoms: N_13  and  C_14
REMARK    8  A    between atoms: C_18  and  C_19
REMARK    9  A    between atoms: C_19  and  C_20
REMARK   10  A    between atoms: C_23  and  O_24
REMARK   11  A    between atoms: O_24  and  C_25
REMARK   12  A    between atoms: C_26  and  O_27
REMARK   13  A    between atoms: O_27  and  C_28
REMARK                            x       y       z     vdW  Elec       q    Type
REMARK                         _______ _______ _______ _____ _____    ______ ____
ROOT
ATOM      1  O   UNL     1       2.898   4.000  19.144  0.00  0.00    +0.000 OA
ENDROOT
BRANCH   1   2
ATOM      2  C   UNL     1       2.684   4.607  17.947  0.00  0.00    +0.000 C 
ATOM      3  O   UNL     1       1.584   4.897  17.515  0.00  0.00    +0.000 OA
BRANCH   2   7
ATOM      4  C   UNL     1       6.401   5.121  15.848  0.00  0.00    +0.000 A 
ATOM      5  C   UNL     1       5.775   3.871  15.915  0.00  0.00    +0.000 A 
ATOM      6  C   UNL     1       4.580   3.716  16.605  0.00  0.00    +0.000 A 
ATOM      7  C   UNL     1       4.005   4.805  17.274  0.00  0.00    +0.000 A 
ATOM      8  C   UNL     1       4.667   6.053  17.300  0.00  0.00    +0.000 A 
ATOM      9  C   UNL     1       5.892   6.211  16.594  0.00  0.00    +0.000 A 
BRANCH   4  11
ATOM     10  C   UNL     1       7.405   4.892  13.714  0.00  0.00    +0.000 C 
ATOM     11  O   UNL     1       7.531   5.273  15.086  0.00  0.00    +0.000 OA
ENDBRANCH   4  11
BRANCH   8  12
ATOM     12  O   UNL     1       3.996   7.023  18.002  0.00  0.00    +0.000 OA
ATOM     13  C   UNL     1       3.255   8.035  17.340  0.00  0.00    +0.000 C 
ENDBRANCH   8  12
BRANCH   9  14
ATOM     14  O   UNL     1       6.486   7.440  16.700  0.00  0.00    +0.000 OA
ATOM     15  C   UNL     1       7.596   7.671  17.549  0.00  0.00    +0.000 C 
ENDBRANCH   9  14
ENDBRANCH   2   7
ENDBRANCH   1   2
BRANCH   1  16
ATOM     16  C   UNL     1       3.158   4.884  20.232  0.00  0.00    +0.000 C 
BRANCH  16  17
ATOM     17  C   UNL     1       1.982   5.813  20.521  0.00  0.00    +0.000 C 
ATOM     18  O   UNL     1       0.860   5.343  20.706  0.00  0.00    +0.000 OA
ATOM     19  N   UNL     1       2.314   7.159  20.517  0.00  0.00    +0.000 N 
ATOM     20  H   UNL     1       3.221   7.396  20.106  0.00  0.00    +0.000 HD
BRANCH  19  21
ATOM     21  C   UNL     1       1.430   8.230  20.780  0.00  0.00    +0.000 A 
ATOM     22  C   UNL     1       1.066   8.607  22.074  0.00  0.00    +0.000 A 
ATOM     23  C   UNL     1       0.150   9.637  22.284  0.00  0.00    +0.000 A 
ATOM     24  C   UNL     1      -0.416  10.308  21.202  0.00  0.00    +0.000 A 
ATOM     25  C   UNL     1      -0.049   9.970  19.896  0.00  0.00    +0.000 A 
ATOM     26  C   UNL     1       0.892   8.937  19.697  0.00  0.00    +0.000 A 
BRANCH  25  27
ATOM     27  C   UNL     1      -0.627  10.652  18.695  0.00  0.00    +0.000 C 
ATOM     28  C   UNL     1      -0.909  12.136  18.689  0.00  0.00    +0.000 C 
ATOM     29  O   UNL     1      -0.899   9.977  17.700  0.00  0.00    +0.000 OA
ENDBRANCH  25  27
ENDBRANCH  19  21
ENDBRANCH  16  17
ENDBRANCH   1  16
TORSDOF 9
ENDMDL
MODEL 2
REMARK VINA RESULT:      -7.0      2.504      8.088
REMARK  Name = 
REMARK  13 active torsions:
REMARK  status: ('A' for Active; 'I' for Inactive)
REMARK    1  A    between atoms: C_1  and  O_2
REMARK    2  A    between atoms: O_2  and  C_3
REMARK    3  A    between atoms: C_6  and  C_7
REMARK    4  A    between atoms: C_7  and  O_9
REMARK    5  A    between atoms: O_9  and  C_10
REMARK    6  A    between atoms: C_10  and  C_11
REMARK    7  A    between atoms: N_13  and  C_14
REMARK    8  A    between atoms: C_18  and  C_19
REMARK    9  A    between atoms: C_19  and  C_20
REMARK   10  A    between atoms: C_23  and  O_24
REMARK   11  A    between atoms: O_24  and  C_25
REMARK   12  A    between atoms: C_26  and  O_27
REMARK   13  A    between atoms: O_27  and  C_28
REMARK                            x       y       z     vdW  Elec       q    Type
REMARK                         _______ _______ _______ _____ _____    ______ ____
ROOT
ATOM      1  O   UNL     1       5.814   4.838  18.901  0.00  0.00    +0.000 OA
ENDROOT
BRANCH   1   2
ATOM      2  C   UNL     1       4.573   4.579  18.413  0.00  0.00    +0.000 C 
ATOM      3  O   UNL     1       4.230   3.509  17.947  0.00  0.00    +0.000 OA
BRANCH   2   7
ATOM      4  C   UNL     1       2.137   8.120  18.555  0.00  0.00    +0.000 A 
ATOM      5  C   UNL     1       3.049   7.910  17.514  0.00  0.00    +0.000 A 
ATOM      6  C   UNL     1       3.837   6.768  17.485  0.00  0.00    +0.000 A 
ATOM      7  C   UNL     1       3.754   5.827  18.520  0.00  0.00    +0.000 A 
ATOM      8  C   UNL     1       2.909   6.063  19.629  0.00  0.00    +0.000 A 
ATOM      9  C   UNL     1       2.103   7.235  19.658  0.00  0.00    +0.000 A 
BRANCH   4  11
ATOM     10  C   UNL     1       1.929  10.454  18.197  0.00  0.00    +0.000 C 
ATOM     11  O   UNL     1       1.304   9.208  18.517  0.00  0.00    +0.000 OA
ENDBRANCH   4  11
BRANCH   8  12
ATOM     12  O   UNL     1       2.939   5.065  20.571  0.00  0.00    +0.000 OA
ATOM     13  C   UNL     1       1.843   4.180  20.744  0.00  0.00    +0.000 C 
ENDBRANCH   8  12
BRANCH   9  14
ATOM     14  O   UNL     1       1.342   7.405  20.784  0.00  0.00    +0.000 OA
ATOM     15  C   UNL     1       1.479   8.538  21.622  0.00  0.00    +0.000 C 
ENDBRANCH   9  14
ENDBRANCH   2   7
ENDBRANCH   1   2
BRANCH   1  16
ATOM     16  C   UNL     1       6.599   5.731  18.115  0.00  0.00    +0.000 C 
BRANCH  16  17
ATOM     17  C   UNL     1       7.132   5.074  16.843  0.00  0.00    +0.000 C 
ATOM     18  O   UNL     1       7.962   4.170  16.921  0.00  0.00    +0.000 OA
ATOM     19  N   UNL     1       6.618   5.614  15.674  0.00  0.00    +0.000 N 
ATOM     20  H   UNL     1       6.137   6.513  15.768  0.00  0.00    +0.000 HD
BRANCH  19  21
ATOM     21  C   UNL     1       6.917   5.182  14.362  0.00  0.00    +0.000 A 
ATOM     22  C   UNL     1       7.985   5.695  13.624  0.00  0.00    +0.000 A 
ATOM     23  C   UNL     1       8.211   5.277  12.314  0.00  0.00    +0.000 A 
ATOM     24  C   UNL     1       7.373   4.334  11.721  0.00  0.00    +0.000 A 
ATOM     25  C   UNL     1       6.313   3.783  12.445  0.00  0.00    +0.000 A 
ATOM     26  C   UNL     1       6.103   4.203  13.776  0.00  0.00    +0.000 A 
BRANCH  25  27
ATOM     27  C   UNL     1       5.377   2.772  11.859  0.00  0.00    +0.000 C 
ATOM     28  C   UNL     1       3.981   3.149  11.419  0.00  0.00    +0.000 C 
ATOM     29  O   UNL     1       5.751   1.601  11.758  0.00  0.00    +0.000 OA
ENDBRANCH  25  27
ENDBRANCH  19  21
ENDBRANCH  16  17
ENDBRANCH   1  16
TORSDOF 9
ENDMDL
MODEL 3
REMARK VINA RESULT:      -6.8      4.082      7.473
REMARK  Name = 
REMARK  13 active torsions:
REMARK  status: ('A' for Active; 'I' for Inactive)
REMARK    1  A    between atoms: C_1  and  O_2
REMARK    2  A    between atoms: O_2  and  C_3
REMARK    3  A    between atoms: C_6  and  C_7
REMARK    4  A    between atoms: C_7  and  O_9
REMARK    5  A    between atoms: O_9  and  C_10
REMARK    6  A    between atoms: C_10  and  C_11
REMARK    7  A    between atoms: N_13  and  C_14
REMARK    8  A    between atoms: C_18  and  C_19
REMARK    9  A    between atoms: C_19  and  C_20
REMARK   10  A    between atoms: C_23  and  O_24
REMARK   11  A    between atoms: O_24  and  C_25
REMARK   12  A    between atoms: C_26  and  O_27
REMARK   13  A    between atoms: O_27  and  C_28
REMARK                            x       y       z     vdW  Elec       q    Type
REMARK                         _______ _______ _______ _____ _____    ______ ____
ROOT
ATOM      1  O   UNL     1       6.517   7.013  18.144  0.00  0.00    +0.000 OA
ENDROOT
BRANCH   1   2
ATOM      2  C   UNL     1       5.748   6.720  17.063  0.00  0.00    +0.000 C 
ATOM      3  O   UNL     1       5.963   7.133  15.939  0.00  0.00    +0.000 OA
BRANCH   2   7
ATOM      4  C   UNL     1       2.363   4.344  18.240  0.00  0.00    +0.000 A 
ATOM      5  C   UNL     1       2.404   5.720  18.492  0.00  0.00    +0.000 A 
ATOM      6  C   UNL     1       3.508   6.474  18.117  0.00  0.00    +0.000 A 
ATOM      7  C   UNL     1       4.611   5.858  17.511  0.00  0.00    +0.000 A 
ATOM      8  C   UNL     1       4.631   4.456  17.332  0.00  0.00    +0.000 A 
ATOM      9  C   UNL     1       3.500   3.684  17.718  0.00  0.00    +0.000 A 
BRANCH   4  11
ATOM     10  C   UNL     1       0.817   3.669  19.904  0.00  0.00    +0.000 C 
ATOM     11  O   UNL     1       1.227   3.635  18.534  0.00  0.00    +0.000 OA
ENDBRANCH   4  11
BRANCH   8  12
ATOM     12  O   UNL     1       5.778   3.989  16.739  0.00  0.00    +0.000 OA
ATOM     13  C   UNL     1       5.838   3.734  15.345  0.00  0.00    +0.000 C 
ENDBRANCH   8  12
BRANCH   9  14
ATOM     14  O   UNL     1       3.617   2.331  17.544  0.00  0.00    +0.000 OA
ATOM     15  C   UNL     1       3.695   1.434  18.637  0.00  0.00    +0.000 C 
ENDBRANCH   9  14
ENDBRANCH   2   7
ENDBRANCH   1   2
BRANCH   1  16
ATOM     16  C   UNL     1       7.862   7.382  17.848  0.00  0.00    +0.000 C 
BRANCH  16  17
ATOM     17  C   UNL     1       8.137   8.857  18.131  0.00  0.00    +0.000 C 
ATOM     18  O   UNL     1       7.538   9.725  17.497  0.00  0.00    +0.000 OA
ATOM     19  N   UNL     1       9.104   9.073  19.101  0.00  0.00    +0.000 N 
ATOM     20  H   UNL     1       9.679   8.264  19.349  0.00  0.00    +0.000 HD
BRANCH  19  21
ATOM     21  C   UNL     1       9.533  10.334  19.574  0.00  0.00    +0.000 A 
ATOM     22  C   UNL     1      10.494  11.101  18.912  0.00  0.00    +0.000 A 
ATOM     23  C   UNL     1      10.925  12.315  19.444  0.00  0.00    +0.000 A 
ATOM     24  C   UNL     1      10.399  12.784  20.647  0.00  0.00    +0.000 A 
ATOM     25  C   UNL     1       9.416  12.051  21.316  0.00  0.00    +0.000 A 
ATOM     26  C   UNL     1       8.977  10.830  20.760  0.00  0.00    +0.000 A 
BRANCH  25  27
ATOM     27  C   UNL     1       8.819  12.501  22.613  0.00  0.00    +0.000 C 
ATOM     28  C   UNL     1       8.891  13.944  23.057  0.00  0.00    +0.000 C 
ATOM     29  O   UNL     1       8.279  11.666  23.343  0.00  0.00    +0.000 OA
ENDBRANCH  25  27
ENDBRANCH  19  21
ENDBRANCH  16  17
ENDBRANCH   1  16
TORSDOF 9
ENDMDL
MODEL 4
REMARK VINA RESULT:      -6.7      3.595      8.339
REMARK  Name = 
REMARK  13 active torsions:
REMARK  status: ('A' for Active; 'I' for Inactive)
REMARK    1  A    between atoms: C_1  and  O_2
REMARK    2  A    between atoms: O_2  and  C_3
REMARK    3  A    between atoms: C_6  and  C_7
REMARK    4  A    between atoms: C_7  and  O_9
REMARK    5  A    between atoms: O_9  and  C_10
REMARK    6  A    between atoms: C_10  and  C_11
REMARK    7  A    between atoms: N_13  and  C_14
REMARK    8  A    between atoms: C_18  and  C_19
REMARK    9  A    between atoms: C_19  and  C_20
REMARK   10  A    between atoms: C_23  and  O_24
REMARK   11  A    between atoms: O_24  and  C_25
REMARK   12  A    between atoms: C_26  and  O_27
REMARK   13  A    between atoms: O_27  and  C_28
REMARK                            x       y       z     vdW  Elec       q    Type
REMARK                         _______ _______ _______ _____ _____    ______ ____
ROOT
ATOM      1  O   UNL     1      -0.144  10.558  22.171  0.00  0.00    +0.000 OA
ENDROOT
BRANCH   1   2
ATOM      2  C   UNL     1       0.280  11.373  21.169  0.00  0.00    +0.000 C 
ATOM      3  O   UNL     1       1.240  12.115  21.252  0.00  0.00    +0.000 OA
BRANCH   2   7
ATOM      4  C   UNL     1      -2.388  10.734  17.859  0.00  0.00    +0.000 A 
ATOM      5  C   UNL     1      -1.109  10.167  17.877  0.00  0.00    +0.000 A 
ATOM      6  C   UNL     1      -0.253  10.390  18.946  0.00  0.00    +0.000 A 
ATOM      7  C   UNL     1      -0.649  11.216  20.007  0.00  0.00    +0.000 A 
ATOM      8  C   UNL     1      -1.898  11.875  19.966  0.00  0.00    +0.000 A 
ATOM      9  C   UNL     1      -2.774  11.647  18.868  0.00  0.00    +0.000 A 
BRANCH   4  11
ATOM     10  C   UNL     1      -2.993  11.084  15.594  0.00  0.00    +0.000 C 
ATOM     11  O   UNL     1      -3.251  10.428  16.838  0.00  0.00    +0.000 OA
ENDBRANCH   4  11
BRANCH   8  12
ATOM     12  O   UNL     1      -2.147  12.661  21.063  0.00  0.00    +0.000 OA
ATOM     13  C   UNL     1      -3.180  12.342  21.982  0.00  0.00    +0.000 C 
ENDBRANCH   8  12
BRANCH   9  14
ATOM     14  O   UNL     1      -3.948  12.352  18.888  0.00  0.00    +0.000 OA
ATOM     15  C   UNL     1      -5.211  11.712  18.939  0.00  0.00    +0.000 C 
ENDBRANCH   9  14
ENDBRANCH   2   7
ENDBRANCH   1   2
BRANCH   1  16
ATOM     16  C   UNL     1       0.756   9.507  22.516  0.00  0.00    +0.000 C 
BRANCH  16  17
ATOM     17  C   UNL     1       0.621   8.297  21.595  0.00  0.00    +0.000 C 
ATOM     18  O   UNL     1      -0.481   7.776  21.424  0.00  0.00    +0.000 OA
ATOM     19  N   UNL     1       1.820   7.874  21.042  0.00  0.00    +0.000 N 
ATOM     20  H   UNL     1       2.669   8.249  21.472  0.00  0.00    +0.000 HD
BRANCH  19  21
ATOM     21  C   UNL     1       1.980   6.799  20.138  0.00  0.00    +0.000 A 
ATOM     22  C   UNL     1       2.353   6.984  18.806  0.00  0.00    +0.000 A 
ATOM     23  C   UNL     1       2.448   5.899  17.936  0.00  0.00    +0.000 A 
ATOM     24  C   UNL     1       2.173   4.608  18.387  0.00  0.00    +0.000 A 
ATOM     25  C   UNL     1       1.824   4.391  19.722  0.00  0.00    +0.000 A 
ATOM     26  C   UNL     1       1.747   5.496  20.597  0.00  0.00    +0.000 A 
BRANCH  25  27
ATOM     27  C   UNL     1       1.512   3.030  20.262  0.00  0.00    +0.000 C 
ATOM     28  C   UNL     1       1.493   2.754  21.747  0.00  0.00    +0.000 C 
ATOM     29  O   UNL     1       1.290   2.111  19.469  0.00  0.00    +0.000 OA
ENDBRANCH  25  27
ENDBRANCH  19  21
ENDBRANCH  16  17
ENDBRANCH   1  16
TORSDOF 9
ENDMDL
MODEL 5
REMARK VINA RESULT:      -6.7      2.457      5.168
REMARK  Name = 
REMARK  13 active torsions:
REMARK  status: ('A' for Active; 'I' for Inactive)
REMARK    1  A    between atoms: C_1  and  O_2
REMARK    2  A    between atoms: O_2  and  C_3
REMARK    3  A    between atoms: C_6  and  C_7
REMARK    4  A    between atoms: C_7  and  O_9
REMARK    5  A    between atoms: O_9  and  C_10
REMARK    6  A    between atoms: C_10  and  C_11
REMARK    7  A    between atoms: N_13  and  C_14
REMARK    8  A    between atoms: C_18  and  C_19
REMARK    9  A    between atoms: C_19  and  C_20
REMARK   10  A    between atoms: C_23  and  O_24
REMARK   11  A    between atoms: O_24  and  C_25
REMARK   12  A    between atoms: C_26  and  O_27
REMARK   13  A    between atoms: O_27  and  C_28
REMARK                            x       y       z     vdW  Elec       q    Type
REMARK                         _______ _______ _______ _____ _____    ______ ____
ROOT
ATOM      1  O   UNL     1       2.192   7.960  17.535  0.00  0.00    +0.000 OA
ENDROOT
BRANCH   1   2
ATOM      2  C   UNL     1       3.258   7.194  17.887  0.00  0.00    +0.000 C 
ATOM      3  O   UNL     1       4.412   7.458  17.605  0.00  0.00    +0.000 OA
BRANCH   2   7
ATOM      4  C   UNL     1       1.641   3.826  20.016  0.00  0.00    +0.000 A 
ATOM      5  C   UNL     1       1.644   5.106  20.582  0.00  0.00    +0.000 A 
ATOM      6  C   UNL     1       2.179   6.183  19.889  0.00  0.00    +0.000 A 
ATOM      7  C   UNL     1       2.755   5.994  18.626  0.00  0.00    +0.000 A 
ATOM      8  C   UNL     1       2.848   4.696  18.075  0.00  0.00    +0.000 A 
ATOM      9  C   UNL     1       2.302   3.592  18.787  0.00  0.00    +0.000 A 
BRANCH   4  11
ATOM     10  C   UNL     1       1.643   2.393  21.903  0.00  0.00    +0.000 C 
ATOM     11  O   UNL     1       1.027   2.794  20.677  0.00  0.00    +0.000 OA
ENDBRANCH   4  11
BRANCH   8  12
ATOM     12  O   UNL     1       3.447   4.659  16.840  0.00  0.00    +0.000 OA
ATOM     13  C   UNL     1       4.783   4.208  16.680  0.00  0.00    +0.000 C 
ENDBRANCH   8  12
BRANCH   9  14
ATOM     14  O   UNL     1       2.466   2.366  18.200  0.00  0.00    +0.000 OA
ATOM     15  C   UNL     1       3.515   1.488  18.569  0.00  0.00    +0.000 C 
ENDBRANCH   9  14
ENDBRANCH   2   7
ENDBRANCH   1   2
BRANCH   1  16
ATOM     16  C   UNL     1       2.255   9.318  17.963  0.00  0.00    +0.000 C 
BRANCH  16  17
ATOM     17  C   UNL     1       1.002   9.749  18.722  0.00  0.00    +0.000 C 
ATOM     18  O   UNL     1       0.769   9.283  19.837  0.00  0.00    +0.000 OA
ATOM     19  N   UNL     1       0.203  10.643  18.026  0.00  0.00    +0.000 N 
ATOM     20  H   UNL     1       0.401  10.738  17.027  0.00  0.00    +0.000 HD
BRANCH  19  21
ATOM     21  C   UNL     1      -0.996  11.223  18.500  0.00  0.00    +0.000 A 
ATOM     22  C   UNL     1      -1.057  11.975  19.674  0.00  0.00    +0.000 A 
ATOM     23  C   UNL     1      -2.272  12.484  20.131  0.00  0.00    +0.000 A 
ATOM     24  C   UNL     1      -3.447  12.250  19.418  0.00  0.00    +0.000 A 
ATOM     25  C   UNL     1      -3.411  11.524  18.225  0.00  0.00    +0.000 A 
ATOM     26  C   UNL     1      -2.172  11.027  17.764  0.00  0.00    +0.000 A 
BRANCH  25  27
ATOM     27  C   UNL     1      -4.640  11.236  17.420  0.00  0.00    +0.000 C 
ATOM     28  C   UNL     1      -6.000  11.122  18.068  0.00  0.00    +0.000 C 
ATOM     29  O   UNL     1      -4.529  11.066  16.203  0.00  0.00    +0.000 OA
ENDBRANCH  25  27
ENDBRANCH  19  21
ENDBRANCH  16  17
ENDBRANCH   1  16
TORSDOF 9
ENDMDL
MODEL 6
REMARK VINA RESULT:      -6.7      3.956      7.502
REMARK  Name = 
REMARK  13 active torsions:
REMARK  status: ('A' for Active; 'I' for Inactive)
REMARK    1  A    between atoms: C_1  and  O_2
REMARK    2  A    between atoms: O_2  and  C_3
REMARK    3  A    between atoms: C_6  and  C_7
REMARK    4  A    between atoms: C_7  and  O_9
REMARK    5  A    between atoms: O_9  and  C_10
REMARK    6  A    between atoms: C_10  and  C_11
REMARK    7  A    between atoms: N_13  and  C_14
REMARK    8  A    between atoms: C_18  and  C_19
REMARK    9  A    between atoms: C_19  and  C_20
REMARK   10  A    between atoms: C_23  and  O_24
REMARK   11  A    between atoms: O_24  and  C_25
REMARK   12  A    between atoms: C_26  and  O_27
REMARK   13  A    between atoms: O_27  and  C_28
REMARK                            x       y       z     vdW  Elec       q    Type
REMARK                         _______ _______ _______ _____ _____    ______ ____
ROOT
ATOM      1  O   UNL     1       5.955   7.360  17.565  0.00  0.00    +0.000 OA
ENDROOT
BRANCH   1   2
ATOM      2  C   UNL     1       5.107   6.715  16.722  0.00  0.00    +0.000 C 
ATOM      3  O   UNL     1       5.093   6.869  15.515  0.00  0.00    +0.000 OA
BRANCH   2   7
ATOM      4  C   UNL     1       2.375   4.238  18.934  0.00  0.00    +0.000 A 
ATOM      5  C   UNL     1       2.106   5.593  18.712  0.00  0.00    +0.000 A 
ATOM      6  C   UNL     1       3.001   6.385  18.006  0.00  0.00    +0.000 A 
ATOM      7  C   UNL     1       4.204   5.842  17.536  0.00  0.00    +0.000 A 
ATOM      8  C   UNL     1       4.541   4.501  17.829  0.00  0.00    +0.000 A 
ATOM      9  C   UNL     1       3.624   3.691  18.556  0.00  0.00    +0.000 A 
BRANCH   4  11
ATOM     10  C   UNL     1       0.759   2.520  18.709  0.00  0.00    +0.000 C 
ATOM     11  O   UNL     1       1.437   3.453  19.554  0.00  0.00    +0.000 OA
ENDBRANCH   4  11
BRANCH   8  12
ATOM     12  O   UNL     1       5.754   4.109  17.319  0.00  0.00    +0.000 OA
ATOM     13  C   UNL     1       5.857   3.513  16.036  0.00  0.00    +0.000 C 
ENDBRANCH   8  12
BRANCH   9  14
ATOM     14  O   UNL     1       4.043   2.417  18.828  0.00  0.00    +0.000 OA
ATOM     15  C   UNL     1       4.502   2.032  20.112  0.00  0.00    +0.000 C 
ENDBRANCH   9  14
ENDBRANCH   2   7
ENDBRANCH   1   2
BRANCH   1  16
ATOM     16  C   UNL     1       7.275   7.552  17.063  0.00  0.00    +0.000 C 
BRANCH  16  17
ATOM     17  C   UNL     1       8.154   8.349  18.025  0.00  0.00    +0.000 C 
ATOM     18  O   UNL     1       8.710   7.779  18.963  0.00  0.00    +0.000 OA
ATOM     19  N   UNL     1       8.212   9.705  17.741  0.00  0.00    +0.000 N 
ATOM     20  H   UNL     1       7.506  10.058  17.090  0.00  0.00    +0.000 HD
BRANCH  19  21
ATOM     21  C   UNL     1       8.968  10.666  18.450  0.00  0.00    +0.000 A 
ATOM     22  C   UNL     1       9.534  10.409  19.700  0.00  0.00    +0.000 A 
ATOM     23  C   UNL     1      10.227  11.404  20.386  0.00  0.00    +0.000 A 
ATOM     24  C   UNL     1      10.369  12.675  19.831  0.00  0.00    +0.000 A 
ATOM     25  C   UNL     1       9.837  12.953  18.569  0.00  0.00    +0.000 A 
ATOM     26  C   UNL     1       9.150  11.932  17.877  0.00  0.00    +0.000 A 
BRANCH  25  27
ATOM     27  C   UNL     1       9.952  14.300  17.925  0.00  0.00    +0.000 C 
ATOM     28  C   UNL     1      11.274  14.817  17.407  0.00  0.00    +0.000 C 
ATOM     29  O   UNL     1       8.946  15.008  17.841  0.00  0.00    +0.000 OA
ENDBRANCH  25  27
ENDBRANCH  19  21
ENDBRANCH  16  17
ENDBRANCH   1  16
TORSDOF 9
ENDMDL
MODEL 7
REMARK VINA RESULT:      -6.7      2.781      4.865
REMARK  Name = 
REMARK  13 active torsions:
REMARK  status: ('A' for Active; 'I' for Inactive)
REMARK    1  A    between atoms: C_1  and  O_2
REMARK    2  A    between atoms: O_2  and  C_3
REMARK    3  A    between atoms: C_6  and  C_7
REMARK    4  A    between atoms: C_7  and  O_9
REMARK    5  A    between atoms: O_9  and  C_10
REMARK    6  A    between atoms: C_10  and  C_11
REMARK    7  A    between atoms: N_13  and  C_14
REMARK    8  A    between atoms: C_18  and  C_19
REMARK    9  A    between atoms: C_19  and  C_20
REMARK   10  A    between atoms: C_23  and  O_24
REMARK   11  A    between atoms: O_24  and  C_25
REMARK   12  A    between atoms: C_26  and  O_27
REMARK   13  A    between atoms: O_27  and  C_28
REMARK                            x       y       z     vdW  Elec       q    Type
REMARK                         _______ _______ _______ _____ _____    ______ ____
ROOT
ATOM      1  O   UNL     1       1.586   8.604  18.083  0.00  0.00    +0.000 OA
ENDROOT
BRANCH   1   2
ATOM      2  C   UNL     1       2.130   7.815  19.046  0.00  0.00    +0.000 C 
ATOM      3  O   UNL     1       1.961   7.977  20.240  0.00  0.00    +0.000 OA
BRANCH   2   7
ATOM      4  C   UNL     1       4.712   4.909  17.207  0.00  0.00    +0.000 A 
ATOM      5  C   UNL     1       4.789   6.265  16.866  0.00  0.00    +0.000 A 
ATOM      6  C   UNL     1       3.942   7.191  17.459  0.00  0.00    +0.000 A 
ATOM      7  C   UNL     1       2.975   6.773  18.382  0.00  0.00    +0.000 A 
ATOM      8  C   UNL     1       2.815   5.399  18.672  0.00  0.00    +0.000 A 
ATOM      9  C   UNL     1       3.683   4.450  18.061  0.00  0.00    +0.000 A 
BRANCH   4  11
ATOM     10  C   UNL     1       5.774   4.077  15.258  0.00  0.00    +0.000 C 
ATOM     11  O   UNL     1       5.617   4.025  16.678  0.00  0.00    +0.000 OA
ENDBRANCH   4  11
BRANCH   8  12
ATOM     12  O   UNL     1       1.823   5.135  19.582  0.00  0.00    +0.000 OA
ATOM     13  C   UNL     1       2.122   4.654  20.883  0.00  0.00    +0.000 C 
ENDBRANCH   8  12
BRANCH   9  14
ATOM     14  O   UNL     1       3.437   3.138  18.367  0.00  0.00    +0.000 OA
ATOM     15  C   UNL     1       2.527   2.348  17.623  0.00  0.00    +0.000 C 
ENDBRANCH   9  14
ENDBRANCH   2   7
ENDBRANCH   1   2
BRANCH   1  16
ATOM     16  C   UNL     1       1.660  10.005  18.336  0.00  0.00    +0.000 C 
BRANCH  16  17
ATOM     17  C   UNL     1       0.299  10.690  18.230  0.00  0.00    +0.000 C 
ATOM     18  O   UNL     1       0.109  11.767  18.793  0.00  0.00    +0.000 OA
ATOM     19  N   UNL     1      -0.634   9.974  17.496  0.00  0.00    +0.000 N 
ATOM     20  H   UNL     1      -0.403   8.995  17.309  0.00  0.00    +0.000 HD
BRANCH  19  21
ATOM     21  C   UNL     1      -1.958  10.383  17.219  0.00  0.00    +0.000 A 
ATOM     22  C   UNL     1      -2.528  10.282  15.948  0.00  0.00    +0.000 A 
ATOM     23  C   UNL     1      -3.820  10.748  15.708  0.00  0.00    +0.000 A 
ATOM     24  C   UNL     1      -4.565  11.320  16.738  0.00  0.00    +0.000 A 
ATOM     25  C   UNL     1      -4.030  11.409  18.026  0.00  0.00    +0.000 A 
ATOM     26  C   UNL     1      -2.727  10.920  18.260  0.00  0.00    +0.000 A 
BRANCH  25  27
ATOM     27  C   UNL     1      -4.781  12.018  19.169  0.00  0.00    +0.000 C 
ATOM     28  C   UNL     1      -6.275  11.849  19.313  0.00  0.00    +0.000 C 
ATOM     29  O   UNL     1      -4.163  12.692  19.996  0.00  0.00    +0.000 OA
ENDBRANCH  25  27
ENDBRANCH  19  21
ENDBRANCH  16  17
ENDBRANCH   1  16
TORSDOF 9
ENDMDL
MODEL 8
REMARK VINA RESULT:      -6.7      4.602      7.578
REMARK  Name = 
REMARK  13 active torsions:
REMARK  status: ('A' for Active; 'I' for Inactive)
REMARK    1  A    between atoms: C_1  and  O_2
REMARK    2  A    between atoms: O_2  and  C_3
REMARK    3  A    between atoms: C_6  and  C_7
REMARK    4  A    between atoms: C_7  and  O_9
REMARK    5  A    between atoms: O_9  and  C_10
REMARK    6  A    between atoms: C_10  and  C_11
REMARK    7  A    between atoms: N_13  and  C_14
REMARK    8  A    between atoms: C_18  and  C_19
REMARK    9  A    between atoms: C_19  and  C_20
REMARK   10  A    between atoms: C_23  and  O_24
REMARK   11  A    between atoms: O_24  and  C_25
REMARK   12  A    between atoms: C_26  and  O_27
REMARK   13  A    between atoms: O_27  and  C_28
REMARK                            x       y       z     vdW  Elec       q    Type
REMARK                         _______ _______ _______ _____ _____    ______ ____
ROOT
ATOM      1  O   UNL     1       6.989   8.023  17.623  0.00  0.00    +0.000 OA
ENDROOT
BRANCH   1   2
ATOM      2  C   UNL     1       6.762   6.804  17.068  0.00  0.00    +0.000 C 
ATOM      3  O   UNL     1       7.451   6.310  16.196  0.00  0.00    +0.000 OA
BRANCH   2   7
ATOM      4  C   UNL     1       3.148   5.108  18.668  0.00  0.00    +0.000 A 
ATOM      5  C   UNL     1       3.113   6.230  17.831  0.00  0.00    +0.000 A 
ATOM      6  C   UNL     1       4.287   6.775  17.330  0.00  0.00    +0.000 A 
ATOM      7  C   UNL     1       5.527   6.227  17.686  0.00  0.00    +0.000 A 
ATOM      8  C   UNL     1       5.593   5.153  18.603  0.00  0.00    +0.000 A 
ATOM      9  C   UNL     1       4.388   4.597  19.117  0.00  0.00    +0.000 A 
BRANCH   4  11
ATOM     10  C   UNL     1       1.353   3.658  18.130  0.00  0.00    +0.000 C 
ATOM     11  O   UNL     1       1.974   4.531  19.077  0.00  0.00    +0.000 OA
ENDBRANCH   4  11
BRANCH   8  12
ATOM     12  O   UNL     1       6.871   4.728  18.869  0.00  0.00    +0.000 OA
ATOM     13  C   UNL     1       7.648   5.322  19.895  0.00  0.00    +0.000 C 
ENDBRANCH   8  12
BRANCH   9  14
ATOM     14  O   UNL     1       4.542   3.585  20.027  0.00  0.00    +0.000 OA
ATOM     15  C   UNL     1       4.394   2.223  19.672  0.00  0.00    +0.000 C 
ENDBRANCH   9  14
ENDBRANCH   2   7
ENDBRANCH   1   2
BRANCH   1  16
ATOM     16  C   UNL     1       8.344   8.280  17.983  0.00  0.00    +0.000 C 
BRANCH  16  17
ATOM     17  C   UNL     1       8.590   9.750  18.317  0.00  0.00    +0.000 C 
ATOM     18  O   UNL     1       8.133  10.630  17.588  0.00  0.00    +0.000 OA
ATOM     19  N   UNL     1       9.367   9.948  19.449  0.00  0.00    +0.000 N 
ATOM     20  H   UNL     1       9.872   9.128  19.795  0.00  0.00    +0.000 HD
BRANCH  19  21
ATOM     21  C   UNL     1       9.725  11.200  19.997  0.00  0.00    +0.000 A 
ATOM     22  C   UNL     1      10.853  11.910  19.582  0.00  0.00    +0.000 A 
ATOM     23  C   UNL     1      11.197  13.117  20.188  0.00  0.00    +0.000 A 
ATOM     24  C   UNL     1      10.415  13.636  21.219  0.00  0.00    +0.000 A 
ATOM     25  C   UNL     1       9.265  12.960  21.636  0.00  0.00    +0.000 A 
ATOM     26  C   UNL     1       8.919  11.747  21.004  0.00  0.00    +0.000 A 
BRANCH  25  27
ATOM     27  C   UNL     1       8.391  13.465  22.741  0.00  0.00    +0.000 C 
ATOM     28  C   UNL     1       8.817  14.616  23.623  0.00  0.00    +0.000 C 
ATOM     29  O   UNL     1       7.309  12.910  22.947  0.00  0.00    +0.000 OA
ENDBRANCH  25  27
ENDBRANCH  19  21
ENDBRANCH  16  17
ENDBRANCH   1  16
TORSDOF 9
ENDMDL
MODEL 9
REMARK VINA RESULT:      -6.6      2.772      9.164
REMARK  Name = 
REMARK  13 active torsions:
REMARK  status: ('A' for Active; 'I' for Inactive)
REMARK    1  A    between atoms: C_1  and  O_2
REMARK    2  A    between atoms: O_2  and  C_3
REMARK    3  A    between atoms: C_6  and  C_7
REMARK    4  A    between atoms: C_7  and  O_9
REMARK    5  A    between atoms: O_9  and  C_10
REMARK    6  A    between atoms: C_10  and  C_11
REMARK    7  A    between atoms: N_13  and  C_14
REMARK    8  A    between atoms: C_18  and  C_19
REMARK    9  A    between atoms: C_19  and  C_20
REMARK   10  A    between atoms: C_23  and  O_24
REMARK   11  A    between atoms: O_24  and  C_25
REMARK   12  A    between atoms: C_26  and  O_27
REMARK   13  A    between atoms: O_27  and  C_28
REMARK                            x       y       z     vdW  Elec       q    Type
REMARK                         _______ _______ _______ _____ _____    ______ ____
ROOT
ATOM      1  O   UNL     1       0.795   8.804  20.944  0.00  0.00    +0.000 OA
ENDROOT
BRANCH   1   2
ATOM      2  C   UNL     1       1.010   9.676  21.964  0.00  0.00    +0.000 C 
ATOM      3  O   UNL     1       1.969   9.632  22.710  0.00  0.00    +0.000 OA
BRANCH   2   7
ATOM      4  C   UNL     1      -2.219  12.499  22.271  0.00  0.00    +0.000 A 
ATOM      5  C   UNL     1      -2.056  11.481  23.217  0.00  0.00    +0.000 A 
ATOM      6  C   UNL     1      -1.016  10.569  23.100  0.00  0.00    +0.000 A 
ATOM      7  C   UNL     1      -0.136  10.637  22.012  0.00  0.00    +0.000 A 
ATOM      8  C   UNL     1      -0.337  11.598  20.995  0.00  0.00    +0.000 A 
ATOM      9  C   UNL     1      -1.404  12.531  21.115  0.00  0.00    +0.000 A 
BRANCH   4  11
ATOM     10  C   UNL     1      -3.461  13.801  23.813  0.00  0.00    +0.000 C 
ATOM     11  O   UNL     1      -3.196  13.444  22.454  0.00  0.00    +0.000 OA
ENDBRANCH   4  11
BRANCH   8  12
ATOM     12  O   UNL     1       0.592  11.540  19.986  0.00  0.00    +0.000 OA
ATOM     13  C   UNL     1       1.690  12.437  19.941  0.00  0.00    +0.000 C 
ENDBRANCH   8  12
BRANCH   9  14
ATOM     14  O   UNL     1      -1.550  13.404  20.070  0.00  0.00    +0.000 OA
ATOM     15  C   UNL     1      -1.075  14.737  20.129  0.00  0.00    +0.000 C 
ENDBRANCH   9  14
ENDBRANCH   2   7
ENDBRANCH   1   2
BRANCH   1  16
ATOM     16  C   UNL     1       1.449   7.544  21.079  0.00  0.00    +0.000 C 
BRANCH  16  17
ATOM     17  C   UNL     1       2.201   7.139  19.812  0.00  0.00    +0.000 C 
ATOM     18  O   UNL     1       2.218   7.895  18.841  0.00  0.00    +0.000 OA
ATOM     19  N   UNL     1       2.790   5.886  19.884  0.00  0.00    +0.000 N 
ATOM     20  H   UNL     1       2.478   5.287  20.653  0.00  0.00    +0.000 HD
BRANCH  19  21
ATOM     21  C   UNL     1       3.564   5.277  18.870  0.00  0.00    +0.000 A 
ATOM     22  C   UNL     1       3.000   4.515  17.846  0.00  0.00    +0.000 A 
ATOM     23  C   UNL     1       3.807   3.889  16.897  0.00  0.00    +0.000 A 
ATOM     24  C   UNL     1       5.193   4.019  16.956  0.00  0.00    +0.000 A 
ATOM     25  C   UNL     1       5.784   4.798  17.954  0.00  0.00    +0.000 A 
ATOM     26  C   UNL     1       4.955   5.439  18.900  0.00  0.00    +0.000 A 
BRANCH  25  27
ATOM     27  C   UNL     1       7.267   4.969  18.071  0.00  0.00    +0.000 C 
ATOM     28  C   UNL     1       7.879   5.861  19.125  0.00  0.00    +0.000 C 
ATOM     29  O   UNL     1       7.999   4.383  17.270  0.00  0.00    +0.000 OA
ENDBRANCH  25  27
ENDBRANCH  19  21
ENDBRANCH  16  17
ENDBRANCH   1  16
TORSDOF 9
ENDMDL
