MODEL 1
REMARK VINA RESULT:      -6.9      0.000      0.000
REMARK  Name = 
REMARK  4 active torsions:
REMARK  status: ('A' for Active; 'I' for Inactive)
REMARK    1  A    between atoms: C_1  and  O_2
REMARK    2  A    between atoms: O_2  and  C_3
REMARK    3  A    between atoms: C_3  and  C_5
REMARK    4  A    between atoms: N_17  and  C_18
REMARK                            x       y       z     vdW  Elec       q    Type
REMARK                         _______ _______ _______ _____ _____    ______ ____
ROOT
ATOM      1  C   UNL     1      -1.201  11.274  21.525  0.00  0.00    +0.000 C 
ATOM      2  C   UNL     1      -1.027  10.712  20.057  0.00  0.00    +0.000 C 
ATOM      3  C   UNL     1      -2.074  11.209  19.109  0.00  0.00    +0.000 A 
ATOM      4  C   UNL     1      -2.944  12.187  19.503  0.00  0.00    +0.000 A 
ATOM      5  N   UNL     1      -3.910  12.330  18.556  0.00  0.00    +0.000 N 
ATOM      6  C   UNL     1      -3.604  11.550  17.465  0.00  0.00    +0.000 A 
ATOM      7  C   UNL     1      -4.284  11.404  16.257  0.00  0.00    +0.000 A 
ATOM      8  C   UNL     1      -3.722  10.559  15.301  0.00  0.00    +0.000 A 
ATOM      9  C   UNL     1      -2.528   9.887  15.555  0.00  0.00    +0.000 A 
ATOM     10  C   UNL     1      -1.884  10.007  16.793  0.00  0.00    +0.000 A 
ATOM     11  C   UNL     1      -2.431  10.856  17.771  0.00  0.00    +0.000 A 
ATOM     12  C   UNL     1      -2.925  12.878  20.790  0.00  0.00    +0.000 C 
ATOM     13  N   UNL     1      -1.886  13.903  20.986  0.00  0.00    +0.000 N 
ATOM     14  C   UNL     1      -1.745  14.948  19.988  0.00  0.00    +0.000 C 
ATOM     15  C   UNL     1      -1.893  14.349  22.330  0.00  0.00    +0.000 A 
ATOM     16  C   UNL     1      -0.802  14.924  22.969  0.00  0.00    +0.000 A 
ATOM     17  C   UNL     1      -0.891  15.255  24.331  0.00  0.00    +0.000 A 
ATOM     18  C   UNL     1      -2.117  15.169  24.997  0.00  0.00    +0.000 A 
ATOM     19  C   UNL     1      -3.163  14.490  24.394  0.00  0.00    +0.000 A 
ATOM     20  C   UNL     1      -2.898  13.879  23.176  0.00  0.00    +0.000 A 
ATOM     21  C   UNL     1      -2.904  12.370  23.071  0.00  0.00    +0.000 C 
ATOM     22  O   UNL     1      -3.033  11.689  24.081  0.00  0.00    +0.000 OA
ATOM     23  N   UNL     1      -2.595  11.863  21.780  0.00  0.00    +0.000 N 
ATOM     24  H   UNL     1      -4.738  12.901  18.634  0.00  0.00    +0.000 HD
ENDROOT
BRANCH   1  25
ATOM     25  C   UNL     1      -0.490  10.256  22.421  0.00  0.00    +0.000 C 
ATOM     26  O   UNL     1      -0.179  10.537  23.593  0.00  0.00    +0.000 OA
BRANCH  25  28
ATOM     27  C   UNL     1       1.117   8.672  21.898  0.00  0.00    +0.000 C 
ATOM     28  O   UNL     1      -0.256   9.059  21.850  0.00  0.00    +0.000 OA
ENDBRANCH  25  28
ENDBRANCH   1  25
TORSDOF 2
ENDMDL
MODEL 2
REMARK VINA RESULT:      -6.7      2.942      5.423
REMARK  Name = 
REMARK  4 active torsions:
REMARK  status: ('A' for Active; 'I' for Inactive)
REMARK    1  A    between atoms: C_1  and  O_2
REMARK    2  A    between atoms: O_2  and  C_3
REMARK    3  A    between atoms: C_3  and  C_5
REMARK    4  A    between atoms: N_17  and  C_18
REMARK                            x       y       z     vdW  Elec       q    Type
REMARK                         _______ _______ _______ _____ _____    ______ ____
ROOT
ATOM      1  C   UNL     1      -2.535  11.969  19.080  0.00  0.00    +0.000 C 
ATOM      2  C   UNL     1      -4.084  12.128  19.355  0.00  0.00    +0.000 C 
ATOM      3  C   UNL     1      -4.391  12.558  20.756  0.00  0.00    +0.000 A 
ATOM      4  C   UNL     1      -3.379  12.932  21.594  0.00  0.00    +0.000 A 
ATOM      5  N   UNL     1      -3.876  13.089  22.850  0.00  0.00    +0.000 N 
ATOM      6  C   UNL     1      -5.245  12.960  22.822  0.00  0.00    +0.000 A 
ATOM      7  C   UNL     1      -6.170  13.073  23.858  0.00  0.00    +0.000 A 
ATOM      8  C   UNL     1      -7.519  12.925  23.535  0.00  0.00    +0.000 A 
ATOM      9  C   UNL     1      -7.915  12.669  22.224  0.00  0.00    +0.000 A 
ATOM     10  C   UNL     1      -6.968  12.510  21.204  0.00  0.00    +0.000 A 
ATOM     11  C   UNL     1      -5.604  12.658  21.506  0.00  0.00    +0.000 A 
ATOM     12  C   UNL     1      -1.965  13.022  21.236  0.00  0.00    +0.000 C 
ATOM     13  N   UNL     1      -1.549  14.179  20.426  0.00  0.00    +0.000 N 
ATOM     14  C   UNL     1      -1.916  15.510  20.878  0.00  0.00    +0.000 C 
ATOM     15  C   UNL     1      -0.201  14.029  20.023  0.00  0.00    +0.000 A 
ATOM     16  C   UNL     1       0.357  14.648  18.911  0.00  0.00    +0.000 A 
ATOM     17  C   UNL     1       1.684  14.364  18.552  0.00  0.00    +0.000 A 
ATOM     18  C   UNL     1       2.495  13.602  19.399  0.00  0.00    +0.000 A 
ATOM     19  C   UNL     1       1.907  12.897  20.435  0.00  0.00    +0.000 A 
ATOM     20  C   UNL     1       0.522  12.947  20.526  0.00  0.00    +0.000 A 
ATOM     21  C   UNL     1      -0.297  11.702  20.268  0.00  0.00    +0.000 C 
ATOM     22  O   UNL     1       0.253  10.680  19.874  0.00  0.00    +0.000 OA
ATOM     23  N   UNL     1      -1.703  11.884  20.366  0.00  0.00    +0.000 N 
ATOM     24  H   UNL     1      -3.336  13.256  23.686  0.00  0.00    +0.000 HD
ENDROOT
BRANCH   1  25
ATOM     25  C   UNL     1      -2.444  10.998  17.899  0.00  0.00    +0.000 C 
ATOM     26  O   UNL     1      -2.552   9.769  18.067  0.00  0.00    +0.000 OA
BRANCH  25  28
ATOM     27  C   UNL     1      -2.892  10.868  15.630  0.00  0.00    +0.000 C 
ATOM     28  O   UNL     1      -2.262  11.577  16.697  0.00  0.00    +0.000 OA
ENDBRANCH  25  28
ENDBRANCH   1  25
TORSDOF 2
ENDMDL
MODEL 3
REMARK VINA RESULT:      -6.7      3.123      4.748
REMARK  Name = 
REMARK  4 active torsions:
REMARK  status: ('A' for Active; 'I' for Inactive)
REMARK    1  A    between atoms: C_1  and  O_2
REMARK    2  A    between atoms: O_2  and  C_3
REMARK    3  A    between atoms: C_3  and  C_5
REMARK    4  A    between atoms: N_17  and  C_18
REMARK                            x       y       z     vdW  Elec       q    Type
REMARK                         _______ _______ _______ _____ _____    ______ ____
ROOT
ATOM      1  C   UNL     1      -0.112  12.524  21.543  0.00  0.00    +0.000 C 
ATOM      2  C   UNL     1       0.531  11.082  21.622  0.00  0.00    +0.000 C 
ATOM      3  C   UNL     1       0.985  10.566  20.292  0.00  0.00    +0.000 A 
ATOM      4  C   UNL     1       0.979  11.390  19.202  0.00  0.00    +0.000 A 
ATOM      5  N   UNL     1       1.242  10.655  18.088  0.00  0.00    +0.000 N 
ATOM      6  C   UNL     1       1.566   9.368  18.452  0.00  0.00    +0.000 A 
ATOM      7  C   UNL     1       1.934   8.285  17.656  0.00  0.00    +0.000 A 
ATOM      8  C   UNL     1       2.245   7.089  18.302  0.00  0.00    +0.000 A 
ATOM      9  C   UNL     1       2.181   6.990  19.691  0.00  0.00    +0.000 A 
ATOM     10  C   UNL     1       1.760   8.074  20.471  0.00  0.00    +0.000 A 
ATOM     11  C   UNL     1       1.446   9.290  19.842  0.00  0.00    +0.000 A 
ATOM     12  C   UNL     1       0.617  12.806  19.204  0.00  0.00    +0.000 C 
ATOM     13  N   UNL     1       1.606  13.750  19.750  0.00  0.00    +0.000 N 
ATOM     14  C   UNL     1       2.966  13.702  19.242  0.00  0.00    +0.000 C 
ATOM     15  C   UNL     1       1.042  15.045  19.840  0.00  0.00    +0.000 A 
ATOM     16  C   UNL     1       1.486  16.034  20.708  0.00  0.00    +0.000 A 
ATOM     17  C   UNL     1       0.800  17.257  20.777  0.00  0.00    +0.000 A 
ATOM     18  C   UNL     1      -0.215  17.547  19.860  0.00  0.00    +0.000 A 
ATOM     19  C   UNL     1      -0.729  16.523  19.082  0.00  0.00    +0.000 A 
ATOM     20  C   UNL     1      -0.235  15.246  19.314  0.00  0.00    +0.000 A 
ATOM     21  C   UNL     1      -1.136  14.183  19.903  0.00  0.00    +0.000 C 
ATOM     22  O   UNL     1      -2.265  14.478  20.275  0.00  0.00    +0.000 OA
ATOM     23  N   UNL     1      -0.511  12.925  20.117  0.00  0.00    +0.000 N 
ATOM     24  H   UNL     1       1.193  10.982  17.134  0.00  0.00    +0.000 HD
ENDROOT
BRANCH   1  25
ATOM     25  C   UNL     1      -1.015  12.619  22.777  0.00  0.00    +0.000 C 
ATOM     26  O   UNL     1      -0.825  13.488  23.648  0.00  0.00    +0.000 OA
BRANCH  25  28
ATOM     27  C   UNL     1      -3.205  12.228  23.419  0.00  0.00    +0.000 C 
ATOM     28  O   UNL     1      -2.014  11.717  22.823  0.00  0.00    +0.000 OA
ENDBRANCH  25  28
ENDBRANCH   1  25
TORSDOF 2
ENDMDL
MODEL 4
REMARK VINA RESULT:      -6.3      2.923      4.622
REMARK  Name = 
REMARK  4 active torsions:
REMARK  status: ('A' for Active; 'I' for Inactive)
REMARK    1  A    between atoms: C_1  and  O_2
REMARK    2  A    between atoms: O_2  and  C_3
REMARK    3  A    between atoms: C_3  and  C_5
REMARK    4  A    between atoms: N_17  and  C_18
REMARK                            x       y       z     vdW  Elec       q    Type
REMARK                         _______ _______ _______ _____ _____    ______ ____
ROOT
ATOM      1  C   UNL     1      -0.734  12.193  20.231  0.00  0.00    +0.000 C 
ATOM      2  C   UNL     1       0.688  12.590  19.664  0.00  0.00    +0.000 C 
ATOM      3  C   UNL     1       0.809  14.049  19.349  0.00  0.00    +0.000 A 
ATOM      4  C   UNL     1      -0.186  14.912  19.715  0.00  0.00    +0.000 A 
ATOM      5  N   UNL     1       0.055  16.129  19.158  0.00  0.00    +0.000 N 
ATOM      6  C   UNL     1       1.283  16.118  18.540  0.00  0.00    +0.000 A 
ATOM      7  C   UNL     1       1.951  17.141  17.870  0.00  0.00    +0.000 A 
ATOM      8  C   UNL     1       3.218  16.856  17.360  0.00  0.00    +0.000 A 
ATOM      9  C   UNL     1       3.783  15.592  17.517  0.00  0.00    +0.000 A 
ATOM     10  C   UNL     1       3.076  14.561  18.149  0.00  0.00    +0.000 A 
ATOM     11  C   UNL     1       1.800  14.826  18.673  0.00  0.00    +0.000 A 
ATOM     12  C   UNL     1      -1.386  14.560  20.471  0.00  0.00    +0.000 C 
ATOM     13  N   UNL     1      -1.226  14.334  21.918  0.00  0.00    +0.000 N 
ATOM     14  C   UNL     1      -0.559  15.352  22.709  0.00  0.00    +0.000 C 
ATOM     15  C   UNL     1      -2.432  13.836  22.467  0.00  0.00    +0.000 A 
ATOM     16  C   UNL     1      -2.511  13.092  23.637  0.00  0.00    +0.000 A 
ATOM     17  C   UNL     1      -3.750  12.575  24.048  0.00  0.00    +0.000 A 
ATOM     18  C   UNL     1      -4.923  12.948  23.385  0.00  0.00    +0.000 A 
ATOM     19  C   UNL     1      -4.827  13.587  22.160  0.00  0.00    +0.000 A 
ATOM     20  C   UNL     1      -3.552  13.762  21.638  0.00  0.00    +0.000 A 
ATOM     21  C   UNL     1      -3.139  13.017  20.389  0.00  0.00    +0.000 C 
ATOM     22  O   UNL     1      -3.889  12.179  19.902  0.00  0.00    +0.000 OA
ATOM     23  N   UNL     1      -1.804  13.259  19.966  0.00  0.00    +0.000 N 
ATOM     24  H   UNL     1      -0.570  16.922  19.171  0.00  0.00    +0.000 HD
ENDROOT
BRANCH   1  25
ATOM     25  C   UNL     1      -0.874  10.699  19.924  0.00  0.00    +0.000 C 
ATOM     26  O   UNL     1      -1.380  10.307  18.856  0.00  0.00    +0.000 OA
BRANCH  25  28
ATOM     27  C   UNL     1      -0.587  10.374  22.199  0.00  0.00    +0.000 C 
ATOM     28  O   UNL     1      -0.400   9.873  20.875  0.00  0.00    +0.000 OA
ENDBRANCH  25  28
ENDBRANCH   1  25
TORSDOF 2
ENDMDL
MODEL 5
REMARK VINA RESULT:      -6.3      8.619     10.470
REMARK  Name = 
REMARK  4 active torsions:
REMARK  status: ('A' for Active; 'I' for Inactive)
REMARK    1  A    between atoms: C_1  and  O_2
REMARK    2  A    between atoms: O_2  and  C_3
REMARK    3  A    between atoms: C_3  and  C_5
REMARK    4  A    between atoms: N_17  and  C_18
REMARK                            x       y       z     vdW  Elec       q    Type
REMARK                         _______ _______ _______ _____ _____    ______ ____
ROOT
ATOM      1  C   UNL     1       7.654  13.637  23.186  0.00  0.00    +0.000 C 
ATOM      2  C   UNL     1       8.994  13.022  22.614  0.00  0.00    +0.000 C 
ATOM      3  C   UNL     1       9.149  13.220  21.138  0.00  0.00    +0.000 A 
ATOM      4  C   UNL     1       8.271  14.018  20.460  0.00  0.00    +0.000 A 
ATOM      5  N   UNL     1       8.494  13.888  19.124  0.00  0.00    +0.000 N 
ATOM      6  C   UNL     1       9.612  13.115  18.917  0.00  0.00    +0.000 A 
ATOM      7  C   UNL     1      10.229  12.744  17.723  0.00  0.00    +0.000 A 
ATOM      8  C   UNL     1      11.386  11.971  17.811  0.00  0.00    +0.000 A 
ATOM      9  C   UNL     1      11.895  11.584  19.049  0.00  0.00    +0.000 A 
ATOM     10  C   UNL     1      11.235  11.924  20.237  0.00  0.00    +0.000 A 
ATOM     11  C   UNL     1      10.069  12.706  20.173  0.00  0.00    +0.000 A 
ATOM     12  C   UNL     1       7.181  14.787  21.056  0.00  0.00    +0.000 C 
ATOM     13  N   UNL     1       7.544  16.019  21.777  0.00  0.00    +0.000 N 
ATOM     14  C   UNL     1       8.380  16.997  21.103  0.00  0.00    +0.000 C 
ATOM     15  C   UNL     1       6.408  16.547  22.436  0.00  0.00    +0.000 A 
ATOM     16  C   UNL     1       6.464  17.382  23.544  0.00  0.00    +0.000 A 
ATOM     17  C   UNL     1       5.274  17.782  24.173  0.00  0.00    +0.000 A 
ATOM     18  C   UNL     1       4.037  17.488  23.590  0.00  0.00    +0.000 A 
ATOM     19  C   UNL     1       3.984  16.564  22.560  0.00  0.00    +0.000 A 
ATOM     20  C   UNL     1       5.173  15.937  22.213  0.00  0.00    +0.000 A 
ATOM     21  C   UNL     1       5.350  14.457  22.470  0.00  0.00    +0.000 C 
ATOM     22  O   UNL     1       4.489  13.837  23.082  0.00  0.00    +0.000 OA
ATOM     23  N   UNL     1       6.618  13.936  22.095  0.00  0.00    +0.000 N 
ATOM     24  H   UNL     1       7.925  14.276  18.386  0.00  0.00    +0.000 HD
ENDROOT
BRANCH   1  25
ATOM     25  C   UNL     1       7.383  12.856  24.476  0.00  0.00    +0.000 C 
ATOM     26  O   UNL     1       7.541  13.384  25.592  0.00  0.00    +0.000 OA
BRANCH  25  28
ATOM     27  C   UNL     1       5.917  11.218  25.203  0.00  0.00    +0.000 C 
ATOM     28  O   UNL     1       6.955  11.592  24.298  0.00  0.00    +0.000 OA
ENDBRANCH  25  28
ENDBRANCH   1  25
TORSDOF 2
ENDMDL
MODEL 6
REMARK VINA RESULT:      -6.3     10.799     12.976
REMARK  Name = 
REMARK  4 active torsions:
REMARK  status: ('A' for Active; 'I' for Inactive)
REMARK    1  A    between atoms: C_1  and  O_2
REMARK    2  A    between atoms: O_2  and  C_3
REMARK    3  A    between atoms: C_3  and  C_5
REMARK    4  A    between atoms: N_17  and  C_18
REMARK                            x       y       z     vdW  Elec       q    Type
REMARK                         _______ _______ _______ _____ _____    ______ ____
ROOT
ATOM      1  C   UNL     1       9.507  12.885  20.249  0.00  0.00    +0.000 C 
ATOM      2  C   UNL     1       8.585  12.197  21.334  0.00  0.00    +0.000 C 
ATOM      3  C   UNL     1       8.526  12.957  22.623  0.00  0.00    +0.000 A 
ATOM      4  C   UNL     1       9.090  14.199  22.710  0.00  0.00    +0.000 A 
ATOM      5  N   UNL     1       9.082  14.600  24.010  0.00  0.00    +0.000 N 
ATOM      6  C   UNL     1       8.384  13.689  24.768  0.00  0.00    +0.000 A 
ATOM      7  C   UNL     1       8.095  13.703  26.131  0.00  0.00    +0.000 A 
ATOM      8  C   UNL     1       7.330  12.652  26.637  0.00  0.00    +0.000 A 
ATOM      9  C   UNL     1       6.881  11.630  25.803  0.00  0.00    +0.000 A 
ATOM     10  C   UNL     1       7.223  11.607  24.445  0.00  0.00    +0.000 A 
ATOM     11  C   UNL     1       7.991  12.657  23.913  0.00  0.00    +0.000 A 
ATOM     12  C   UNL     1       9.722  14.929  21.613  0.00  0.00    +0.000 C 
ATOM     13  N   UNL     1       8.830  15.545  20.615  0.00  0.00    +0.000 N 
ATOM     14  C   UNL     1       7.757  16.406  21.081  0.00  0.00    +0.000 C 
ATOM     15  C   UNL     1       9.591  16.058  19.538  0.00  0.00    +0.000 A 
ATOM     16  C   UNL     1       9.093  16.266  18.257  0.00  0.00    +0.000 A 
ATOM     17  C   UNL     1       9.956  16.700  17.239  0.00  0.00    +0.000 A 
ATOM     18  C   UNL     1      11.265  17.087  17.543  0.00  0.00    +0.000 A 
ATOM     19  C   UNL     1      11.787  16.769  18.786  0.00  0.00    +0.000 A 
ATOM     20  C   UNL     1      10.982  16.021  19.635  0.00  0.00    +0.000 A 
ATOM     21  C   UNL     1      11.370  14.603  19.990  0.00  0.00    +0.000 C 
ATOM     22  O   UNL     1      12.333  14.079  19.442  0.00  0.00    +0.000 OA
ATOM     23  N   UNL     1      10.456  13.933  20.846  0.00  0.00    +0.000 N 
ATOM     24  H   UNL     1       9.531  15.425  24.380  0.00  0.00    +0.000 HD
ENDROOT
BRANCH   1  25
ATOM     25  C   UNL     1       9.920  11.748  19.309  0.00  0.00    +0.000 C 
ATOM     26  O   UNL     1      10.237  10.629  19.752  0.00  0.00    +0.000 OA
BRANCH  25  28
ATOM     27  C   UNL     1       8.660  12.647  17.585  0.00  0.00    +0.000 C 
ATOM     28  O   UNL     1       9.891  12.054  17.998  0.00  0.00    +0.000 OA
ENDBRANCH  25  28
ENDBRANCH   1  25
TORSDOF 2
ENDMDL
MODEL 7
REMARK VINA RESULT:      -6.2      1.880      2.619
REMARK  Name = 
REMARK  4 active torsions:
REMARK  status: ('A' for Active; 'I' for Inactive)
REMARK    1  A    between atoms: C_1  and  O_2
REMARK    2  A    between atoms: O_2  and  C_3
REMARK    3  A    between atoms: C_3  and  C_5
REMARK    4  A    between atoms: N_17  and  C_18
REMARK                            x       y       z     vdW  Elec       q    Type
REMARK                         _______ _______ _______ _____ _____    ______ ____
ROOT
ATOM      1  C   UNL     1      -2.278  13.208  22.014  0.00  0.00    +0.000 C 
ATOM      2  C   UNL     1      -1.763  12.552  20.670  0.00  0.00    +0.000 C 
ATOM      3  C   UNL     1      -2.844  12.385  19.646  0.00  0.00    +0.000 A 
ATOM      4  C   UNL     1      -4.077  12.934  19.858  0.00  0.00    +0.000 A 
ATOM      5  N   UNL     1      -4.932  12.489  18.899  0.00  0.00    +0.000 N 
ATOM      6  C   UNL     1      -4.236  11.758  17.965  0.00  0.00    +0.000 A 
ATOM      7  C   UNL     1      -4.689  11.140  16.801  0.00  0.00    +0.000 A 
ATOM      8  C   UNL     1      -3.744  10.485  16.011  0.00  0.00    +0.000 A 
ATOM      9  C   UNL     1      -2.402  10.451  16.383  0.00  0.00    +0.000 A 
ATOM     10  C   UNL     1      -1.973  11.035  17.582  0.00  0.00    +0.000 A 
ATOM     11  C   UNL     1      -2.906  11.704  18.391  0.00  0.00    +0.000 A 
ATOM     12  C   UNL     1      -4.459  13.759  21.002  0.00  0.00    +0.000 C 
ATOM     13  N   UNL     1      -3.979  15.151  21.015  0.00  0.00    +0.000 N 
ATOM     14  C   UNL     1      -4.220  15.980  19.847  0.00  0.00    +0.000 C 
ATOM     15  C   UNL     1      -4.283  15.757  22.258  0.00  0.00    +0.000 A 
ATOM     16  C   UNL     1      -3.599  16.844  22.788  0.00  0.00    +0.000 A 
ATOM     17  C   UNL     1      -3.930  17.315  24.069  0.00  0.00    +0.000 A 
ATOM     18  C   UNL     1      -5.049  16.810  24.737  0.00  0.00    +0.000 A 
ATOM     19  C   UNL     1      -5.651  15.656  24.261  0.00  0.00    +0.000 A 
ATOM     20  C   UNL     1      -5.053  15.037  23.172  0.00  0.00    +0.000 A 
ATOM     21  C   UNL     1      -4.403  13.681  23.337  0.00  0.00    +0.000 C 
ATOM     22  O   UNL     1      -4.308  13.182  24.452  0.00  0.00    +0.000 OA
ATOM     23  N   UNL     1      -3.805  13.161  22.158  0.00  0.00    +0.000 N 
ATOM     24  H   UNL     1      -5.929  12.646  18.872  0.00  0.00    +0.000 HD
ENDROOT
BRANCH   1  25
ATOM     25  C   UNL     1      -1.273  12.758  23.079  0.00  0.00    +0.000 C 
ATOM     26  O   UNL     1      -0.926  11.566  23.173  0.00  0.00    +0.000 OA
BRANCH  25  28
ATOM     27  C   UNL     1      -0.553  14.958  23.162  0.00  0.00    +0.000 C 
ATOM     28  O   UNL     1      -0.798  13.741  23.867  0.00  0.00    +0.000 OA
ENDBRANCH  25  28
ENDBRANCH   1  25
TORSDOF 2
ENDMDL
MODEL 8
REMARK VINA RESULT:      -6.2      3.170      4.866
REMARK  Name = 
REMARK  4 active torsions:
REMARK  status: ('A' for Active; 'I' for Inactive)
REMARK    1  A    between atoms: C_1  and  O_2
REMARK    2  A    between atoms: O_2  and  C_3
REMARK    3  A    between atoms: C_3  and  C_5
REMARK    4  A    between atoms: N_17  and  C_18
REMARK                            x       y       z     vdW  Elec       q    Type
REMARK                         _______ _______ _______ _____ _____    ______ ____
ROOT
ATOM      1  C   UNL     1      -0.305  11.917  20.091  0.00  0.00    +0.000 C 
ATOM      2  C   UNL     1       1.157  12.283  19.612  0.00  0.00    +0.000 C 
ATOM      3  C   UNL     1       1.333  13.741  19.321  0.00  0.00    +0.000 A 
ATOM      4  C   UNL     1       0.341  14.626  19.637  0.00  0.00    +0.000 A 
ATOM      5  N   UNL     1       0.645  15.841  19.108  0.00  0.00    +0.000 N 
ATOM      6  C   UNL     1       1.907  15.804  18.563  0.00  0.00    +0.000 A 
ATOM      7  C   UNL     1       2.639  16.816  17.945  0.00  0.00    +0.000 A 
ATOM      8  C   UNL     1       3.926  16.503  17.508  0.00  0.00    +0.000 A 
ATOM      9  C   UNL     1       4.449  15.223  17.684  0.00  0.00    +0.000 A 
ATOM     10  C   UNL     1       3.680  14.205  18.263  0.00  0.00    +0.000 A 
ATOM     11  C   UNL     1       2.382  14.499  18.713  0.00  0.00    +0.000 A 
ATOM     12  C   UNL     1      -0.910  14.297  20.317  0.00  0.00    +0.000 C 
ATOM     13  N   UNL     1      -0.842  14.054  21.768  0.00  0.00    +0.000 N 
ATOM     14  C   UNL     1      -0.198  15.048  22.608  0.00  0.00    +0.000 C 
ATOM     15  C   UNL     1      -2.091  13.583  22.239  0.00  0.00    +0.000 A 
ATOM     16  C   UNL     1      -2.258  12.831  23.395  0.00  0.00    +0.000 A 
ATOM     17  C   UNL     1      -3.532  12.342  23.727  0.00  0.00    +0.000 A 
ATOM     18  C   UNL     1      -4.654  12.751  22.999  0.00  0.00    +0.000 A 
ATOM     19  C   UNL     1      -4.470  13.399  21.789  0.00  0.00    +0.000 A 
ATOM     20  C   UNL     1      -3.162  13.546  21.345  0.00  0.00    +0.000 A 
ATOM     21  C   UNL     1      -2.694  12.802  20.114  0.00  0.00    +0.000 C 
ATOM     22  O   UNL     1      -3.434  11.988  19.575  0.00  0.00    +0.000 OA
ATOM     23  N   UNL     1      -1.331  13.013  19.774  0.00  0.00    +0.000 N 
ATOM     24  H   UNL     1       0.041  16.650  19.092  0.00  0.00    +0.000 HD
ENDROOT
BRANCH   1  25
ATOM     25  C   UNL     1      -0.465  10.430  19.759  0.00  0.00    +0.000 C 
ATOM     26  O   UNL     1      -0.823   9.613  20.628  0.00  0.00    +0.000 OA
BRANCH  25  28
ATOM     27  C   UNL     1      -1.378  10.072  17.662  0.00  0.00    +0.000 C 
ATOM     28  O   UNL     1      -0.209  10.100  18.480  0.00  0.00    +0.000 OA
ENDBRANCH  25  28
ENDBRANCH   1  25
TORSDOF 2
ENDMDL
MODEL 9
REMARK VINA RESULT:      -6.2      9.495     10.535
REMARK  Name = 
REMARK  4 active torsions:
REMARK  status: ('A' for Active; 'I' for Inactive)
REMARK    1  A    between atoms: C_1  and  O_2
REMARK    2  A    between atoms: O_2  and  C_3
REMARK    3  A    between atoms: C_3  and  C_5
REMARK    4  A    between atoms: N_17  and  C_18
REMARK                            x       y       z     vdW  Elec       q    Type
REMARK                         _______ _______ _______ _____ _____    ______ ____
ROOT
ATOM      1  C   UNL     1       7.244  12.679  23.943  0.00  0.00    +0.000 C 
ATOM      2  C   UNL     1       8.122  11.811  22.955  0.00  0.00    +0.000 C 
ATOM      3  C   UNL     1       8.508  12.548  21.710  0.00  0.00    +0.000 A 
ATOM      4  C   UNL     1       8.247  13.885  21.599  0.00  0.00    +0.000 A 
ATOM      5  N   UNL     1       8.506  14.284  20.324  0.00  0.00    +0.000 N 
ATOM      6  C   UNL     1       9.076  13.246  19.624  0.00  0.00    +0.000 A 
ATOM      7  C   UNL     1       9.530  13.205  18.307  0.00  0.00    +0.000 A 
ATOM      8  C   UNL     1      10.102  12.013  17.862  0.00  0.00    +0.000 A 
ATOM      9  C   UNL     1      10.207  10.911  18.707  0.00  0.00    +0.000 A 
ATOM     10  C   UNL     1       9.700  10.954  20.012  0.00  0.00    +0.000 A 
ATOM     11  C   UNL     1       9.122  12.145  20.484  0.00  0.00    +0.000 A 
ATOM     12  C   UNL     1       7.659  14.729  22.636  0.00  0.00    +0.000 C 
ATOM     13  N   UNL     1       8.532  15.124  23.755  0.00  0.00    +0.000 N 
ATOM     14  C   UNL     1       9.818  15.727  23.453  0.00  0.00    +0.000 C 
ATOM     15  C   UNL     1       7.774  15.786  24.751  0.00  0.00    +0.000 A 
ATOM     16  C   UNL     1       8.140  15.868  26.088  0.00  0.00    +0.000 A 
ATOM     17  C   UNL     1       7.272  16.476  27.009  0.00  0.00    +0.000 A 
ATOM     18  C   UNL     1       6.130  17.148  26.563  0.00  0.00    +0.000 A 
ATOM     19  C   UNL     1       5.711  16.963  25.255  0.00  0.00    +0.000 A 
ATOM     20  C   UNL     1       6.432  16.061  24.484  0.00  0.00    +0.000 A 
ATOM     21  C   UNL     1       5.788  14.768  24.036  0.00  0.00    +0.000 C 
ATOM     22  O   UNL     1       4.673  14.468  24.444  0.00  0.00    +0.000 OA
ATOM     23  N   UNL     1       6.632  13.916  23.274  0.00  0.00    +0.000 N 
ATOM     24  H   UNL     1       8.301  15.191  19.932  0.00  0.00    +0.000 HD
ENDROOT
BRANCH   1  25
ATOM     25  C   UNL     1       6.477  11.656  24.787  0.00  0.00    +0.000 C 
ATOM     26  O   UNL     1       5.433  11.127  24.363  0.00  0.00    +0.000 OA
BRANCH  25  28
ATOM     27  C   UNL     1       6.968  12.468  26.899  0.00  0.00    +0.000 C 
ATOM     28  O   UNL     1       7.027  11.376  25.983  0.00  0.00    +0.000 OA
ENDBRANCH  25  28
ENDBRANCH   1  25
TORSDOF 2
ENDMDL
