MODEL 1
REMARK VINA RESULT:      -8.8      0.000      0.000
REMARK  Name = 
REMARK  7 active torsions:
REMARK  status: ('A' for Active; 'I' for Inactive)
REMARK    1  A    between atoms: C_1  and  C_2
REMARK    2  A    between atoms: C_4  and  C_5
REMARK    3  A    between atoms: C_4  and  C_6
REMARK    4  A    between atoms: C_15  and  C_16
REMARK    5  A    between atoms: C_21  and  C_22
REMARK    6  A    between atoms: C_22  and  C_23
REMARK    7  A    between atoms: C_22  and  C_24
REMARK                            x       y       z     vdW  Elec       q    Type
REMARK                         _______ _______ _______ _____ _____    ______ ____
ROOT
ATOM      1  C   UNL     1      -1.320  13.969  19.917  0.00  0.00    +0.000 C 
ATOM      2  C   UNL     1      -1.778  13.338  21.200  0.00  0.00    +0.000 C 
ATOM      3  C   UNL     1      -2.294  14.132  22.155  0.00  0.00    +0.000 C 
ATOM      4  C   UNL     1      -2.392  13.793  23.617  0.00  0.00    +0.000 C 
ATOM      5  C   UNL     1      -1.461  14.749  24.388  0.00  0.00    +0.000 C 
ATOM      6  C   UNL     1      -3.830  13.966  24.121  0.00  0.00    +0.000 C 
ATOM      7  N   UNL     1      -1.964  12.425  23.898  0.00  0.00    +0.000 N 
ATOM      8  C   UNL     1      -1.310  11.656  22.935  0.00  0.00    +0.000 A 
ATOM      9  C   UNL     1      -0.647  10.499  23.351  0.00  0.00    +0.000 A 
ATOM     10  C   UNL     1       0.016   9.684  22.433  0.00  0.00    +0.000 A 
ATOM     11  C   UNL     1      -0.102   9.915  21.057  0.00  0.00    +0.000 A 
ATOM     12  C   UNL     1      -0.941  10.972  20.625  0.00  0.00    +0.000 A 
ATOM     13  C   UNL     1      -1.386  11.948  21.554  0.00  0.00    +0.000 A 
ATOM     14  C   UNL     1      -1.331  10.892  19.189  0.00  0.00    +0.000 C 
ATOM     15  C   UNL     1      -2.611  10.924  18.756  0.00  0.00    +0.000 C 
ATOM     16  O   UNL     1      -0.305  10.590  18.300  0.00  0.00    +0.000 OA
ATOM     17  C   UNL     1       0.566   9.598  18.688  0.00  0.00    +0.000 A 
ATOM     18  C   UNL     1       1.340   9.036  17.668  0.00  0.00    +0.000 A 
ATOM     19  C   UNL     1       2.235   8.019  17.974  0.00  0.00    +0.000 A 
ATOM     20  C   UNL     1       2.343   7.585  19.288  0.00  0.00    +0.000 A 
ATOM     21  F   UNL     1       3.216   6.613  19.587  0.00  0.00    +0.000 F 
ATOM     22  C   UNL     1       1.578   8.150  20.309  0.00  0.00    +0.000 A 
ATOM     23  C   UNL     1       0.668   9.178  20.032  0.00  0.00    +0.000 A 
ATOM     24  H   UNL     1      -1.696  12.245  24.858  0.00  0.00    +0.000 HD
ENDROOT
BRANCH  15  25
ATOM     25  C   UNL     1      -3.001  10.688  17.345  0.00  0.00    +0.000 A 
ATOM     26  C   UNL     1      -2.102   9.972  16.530  0.00  0.00    +0.000 A 
ATOM     27  C   UNL     1      -2.371   9.748  15.177  0.00  0.00    +0.000 A 
ATOM     28  C   UNL     1      -3.541  10.239  14.614  0.00  0.00    +0.000 A 
ATOM     29  C   UNL     1      -4.451  10.932  15.410  0.00  0.00    +0.000 A 
ATOM     30  C   UNL     1      -4.211  11.155  16.783  0.00  0.00    +0.000 A 
BRANCH  30  31
ATOM     31  C   UNL     1      -5.261  11.897  17.595  0.00  0.00    +0.000 C 
ATOM     32  C   UNL     1      -6.026  12.906  16.733  0.00  0.00    +0.000 C 
ATOM     33  C   UNL     1      -6.229  10.949  18.306  0.00  0.00    +0.000 C 
ENDBRANCH  30  31
ENDBRANCH  15  25
TORSDOF 2
ENDMDL
MODEL 2
REMARK VINA RESULT:      -8.5      3.102      5.909
REMARK  Name = 
REMARK  7 active torsions:
REMARK  status: ('A' for Active; 'I' for Inactive)
REMARK    1  A    between atoms: C_1  and  C_2
REMARK    2  A    between atoms: C_4  and  C_5
REMARK    3  A    between atoms: C_4  and  C_6
REMARK    4  A    between atoms: C_15  and  C_16
REMARK    5  A    between atoms: C_21  and  C_22
REMARK    6  A    between atoms: C_22  and  C_23
REMARK    7  A    between atoms: C_22  and  C_24
REMARK                            x       y       z     vdW  Elec       q    Type
REMARK                         _______ _______ _______ _____ _____    ______ ____
ROOT
ATOM      1  C   UNL     1      -3.180  12.257  23.113  0.00  0.00    +0.000 C 
ATOM      2  C   UNL     1      -4.352  13.091  22.683  0.00  0.00    +0.000 C 
ATOM      3  C   UNL     1      -5.171  13.580  23.632  0.00  0.00    +0.000 C 
ATOM      4  C   UNL     1      -6.588  14.038  23.414  0.00  0.00    +0.000 C 
ATOM      5  C   UNL     1      -7.519  13.075  24.176  0.00  0.00    +0.000 C 
ATOM      6  C   UNL     1      -6.787  15.463  23.943  0.00  0.00    +0.000 C 
ATOM      7  N   UNL     1      -6.969  14.009  22.004  0.00  0.00    +0.000 N 
ATOM      8  C   UNL     1      -6.169  13.382  21.049  0.00  0.00    +0.000 A 
ATOM      9  C   UNL     1      -6.727  13.106  19.797  0.00  0.00    +0.000 A 
ATOM     10  C   UNL     1      -5.974  12.490  18.798  0.00  0.00    +0.000 A 
ATOM     11  C   UNL     1      -4.600  12.280  18.965  0.00  0.00    +0.000 A 
ATOM     12  C   UNL     1      -3.992  12.744  20.158  0.00  0.00    +0.000 A 
ATOM     13  C   UNL     1      -4.798  13.117  21.265  0.00  0.00    +0.000 A 
ATOM     14  C   UNL     1      -2.508  12.856  20.082  0.00  0.00    +0.000 C 
ATOM     15  C   UNL     1      -1.824  13.982  20.380  0.00  0.00    +0.000 C 
ATOM     16  O   UNL     1      -1.850  11.777  19.499  0.00  0.00    +0.000 OA
ATOM     17  C   UNL     1      -2.421  11.259  18.358  0.00  0.00    +0.000 A 
ATOM     18  C   UNL     1      -1.587  10.458  17.573  0.00  0.00    +0.000 A 
ATOM     19  C   UNL     1      -2.082   9.906  16.399  0.00  0.00    +0.000 A 
ATOM     20  C   UNL     1      -3.397  10.161  16.033  0.00  0.00    +0.000 A 
ATOM     21  F   UNL     1      -3.880   9.618  14.907  0.00  0.00    +0.000 F 
ATOM     22  C   UNL     1      -4.234  10.953  16.820  0.00  0.00    +0.000 A 
ATOM     23  C   UNL     1      -3.763  11.522  18.010  0.00  0.00    +0.000 A 
ATOM     24  H   UNL     1      -7.966  13.983  21.827  0.00  0.00    +0.000 HD
ENDROOT
BRANCH  15  25
ATOM     25  C   UNL     1      -0.366  14.135  20.153  0.00  0.00    +0.000 A 
ATOM     26  C   UNL     1       0.468  13.062  20.520  0.00  0.00    +0.000 A 
ATOM     27  C   UNL     1       1.857  13.144  20.384  0.00  0.00    +0.000 A 
ATOM     28  C   UNL     1       2.436  14.302  19.885  0.00  0.00    +0.000 A 
ATOM     29  C   UNL     1       1.625  15.367  19.498  0.00  0.00    +0.000 A 
ATOM     30  C   UNL     1       0.218  15.301  19.608  0.00  0.00    +0.000 A 
BRANCH  30  31
ATOM     31  C   UNL     1      -0.605  16.492  19.142  0.00  0.00    +0.000 C 
ATOM     32  C   UNL     1      -0.709  17.562  20.233  0.00  0.00    +0.000 C 
ATOM     33  C   UNL     1      -0.076  17.097  17.840  0.00  0.00    +0.000 C 
ENDBRANCH  30  31
ENDBRANCH  15  25
TORSDOF 2
ENDMDL
MODEL 3
REMARK VINA RESULT:      -8.2      2.653      5.950
REMARK  Name = 
REMARK  7 active torsions:
REMARK  status: ('A' for Active; 'I' for Inactive)
REMARK    1  A    between atoms: C_1  and  C_2
REMARK    2  A    between atoms: C_4  and  C_5
REMARK    3  A    between atoms: C_4  and  C_6
REMARK    4  A    between atoms: C_15  and  C_16
REMARK    5  A    between atoms: C_21  and  C_22
REMARK    6  A    between atoms: C_22  and  C_23
REMARK    7  A    between atoms: C_22  and  C_24
REMARK                            x       y       z     vdW  Elec       q    Type
REMARK                         _______ _______ _______ _____ _____    ______ ____
ROOT
ATOM      1  C   UNL     1      -2.317  11.493  16.808  0.00  0.00    +0.000 C 
ATOM      2  C   UNL     1      -3.316  11.528  17.927  0.00  0.00    +0.000 C 
ATOM      3  C   UNL     1      -4.616  11.348  17.631  0.00  0.00    +0.000 C 
ATOM      4  C   UNL     1      -5.777  11.773  18.489  0.00  0.00    +0.000 C 
ATOM      5  C   UNL     1      -6.540  12.881  17.737  0.00  0.00    +0.000 C 
ATOM      6  C   UNL     1      -6.720  10.593  18.750  0.00  0.00    +0.000 C 
ATOM      7  N   UNL     1      -5.346  12.316  19.774  0.00  0.00    +0.000 N 
ATOM      8  C   UNL     1      -4.007  12.621  20.021  0.00  0.00    +0.000 A 
ATOM      9  C   UNL     1      -3.705  13.424  21.124  0.00  0.00    +0.000 A 
ATOM     10  C   UNL     1      -2.385  13.756  21.429  0.00  0.00    +0.000 A 
ATOM     11  C   UNL     1      -1.322  13.162  20.737  0.00  0.00    +0.000 A 
ATOM     12  C   UNL     1      -1.623  12.191  19.750  0.00  0.00    +0.000 A 
ATOM     13  C   UNL     1      -2.952  12.063  19.266  0.00  0.00    +0.000 A 
ATOM     14  C   UNL     1      -0.468  11.332  19.367  0.00  0.00    +0.000 C 
ATOM     15  C   UNL     1      -0.496   9.981  19.393  0.00  0.00    +0.000 C 
ATOM     16  O   UNL     1       0.735  11.997  19.152  0.00  0.00    +0.000 OA
ATOM     17  C   UNL     1       1.059  12.980  20.059  0.00  0.00    +0.000 A 
ATOM     18  C   UNL     1       2.400  13.372  20.076  0.00  0.00    +0.000 A 
ATOM     19  C   UNL     1       2.813  14.350  20.971  0.00  0.00    +0.000 A 
ATOM     20  C   UNL     1       1.881  14.920  21.828  0.00  0.00    +0.000 A 
ATOM     21  F   UNL     1       2.275  15.873  22.683  0.00  0.00    +0.000 F 
ATOM     22  C   UNL     1       0.539  14.537  21.807  0.00  0.00    +0.000 A 
ATOM     23  C   UNL     1       0.094  13.554  20.914  0.00  0.00    +0.000 A 
ATOM     24  H   UNL     1      -6.024  12.905  20.243  0.00  0.00    +0.000 HD
ENDROOT
BRANCH  15  25
ATOM     25  C   UNL     1       0.700   9.135  19.163  0.00  0.00    +0.000 A 
ATOM     26  C   UNL     1       1.209   9.067  17.851  0.00  0.00    +0.000 A 
ATOM     27  C   UNL     1       2.304   8.256  17.540  0.00  0.00    +0.000 A 
ATOM     28  C   UNL     1       2.905   7.495  18.532  0.00  0.00    +0.000 A 
ATOM     29  C   UNL     1       2.428   7.565  19.840  0.00  0.00    +0.000 A 
ATOM     30  C   UNL     1       1.335   8.391  20.184  0.00  0.00    +0.000 A 
BRANCH  30  31
ATOM     31  C   UNL     1       0.884   8.437  21.635  0.00  0.00    +0.000 C 
ATOM     32  C   UNL     1       1.355   9.720  22.327  0.00  0.00    +0.000 C 
ATOM     33  C   UNL     1      -0.629   8.265  21.785  0.00  0.00    +0.000 C 
ENDBRANCH  30  31
ENDBRANCH  15  25
TORSDOF 2
ENDMDL
MODEL 4
REMARK VINA RESULT:      -8.1      9.070     11.590
REMARK  Name = 
REMARK  7 active torsions:
REMARK  status: ('A' for Active; 'I' for Inactive)
REMARK    1  A    between atoms: C_1  and  C_2
REMARK    2  A    between atoms: C_4  and  C_5
REMARK    3  A    between atoms: C_4  and  C_6
REMARK    4  A    between atoms: C_15  and  C_16
REMARK    5  A    between atoms: C_21  and  C_22
REMARK    6  A    between atoms: C_22  and  C_23
REMARK    7  A    between atoms: C_22  and  C_24
REMARK                            x       y       z     vdW  Elec       q    Type
REMARK                         _______ _______ _______ _____ _____    ______ ____
ROOT
ATOM      1  C   UNL     1       8.431  11.996  22.352  0.00  0.00    +0.000 C 
ATOM      2  C   UNL     1       8.253  13.091  23.363  0.00  0.00    +0.000 C 
ATOM      3  C   UNL     1       8.585  12.841  24.642  0.00  0.00    +0.000 C 
ATOM      4  C   UNL     1       8.090  13.603  25.841  0.00  0.00    +0.000 C 
ATOM      5  C   UNL     1       7.211  12.652  26.677  0.00  0.00    +0.000 C 
ATOM      6  C   UNL     1       9.264  14.094  26.696  0.00  0.00    +0.000 C 
ATOM      7  N   UNL     1       7.275  14.756  25.466  0.00  0.00    +0.000 N 
ATOM      8  C   UNL     1       6.828  14.934  24.157  0.00  0.00    +0.000 A 
ATOM      9  C   UNL     1       5.804  15.857  23.928  0.00  0.00    +0.000 A 
ATOM     10  C   UNL     1       5.321  16.086  22.640  0.00  0.00    +0.000 A 
ATOM     11  C   UNL     1       5.955  15.520  21.528  0.00  0.00    +0.000 A 
ATOM     12  C   UNL     1       7.121  14.742  21.745  0.00  0.00    +0.000 A 
ATOM     13  C   UNL     1       7.441  14.298  23.055  0.00  0.00    +0.000 A 
ATOM     14  C   UNL     1       7.949  14.531  20.524  0.00  0.00    +0.000 C 
ATOM     15  C   UNL     1       9.266  14.821  20.452  0.00  0.00    +0.000 C 
ATOM     16  O   UNL     1       7.249  14.185  19.372  0.00  0.00    +0.000 OA
ATOM     17  C   UNL     1       6.086  14.881  19.133  0.00  0.00    +0.000 A 
ATOM     18  C   UNL     1       5.599  14.816  17.825  0.00  0.00    +0.000 A 
ATOM     19  C   UNL     1       4.437  15.501  17.496  0.00  0.00    +0.000 A 
ATOM     20  C   UNL     1       3.782  16.233  18.478  0.00  0.00    +0.000 A 
ATOM     21  F   UNL     1       2.653  16.884  18.166  0.00  0.00    +0.000 F 
ATOM     22  C   UNL     1       4.262  16.292  19.787  0.00  0.00    +0.000 A 
ATOM     23  C   UNL     1       5.431  15.610  20.148  0.00  0.00    +0.000 A 
ATOM     24  H   UNL     1       6.659  15.103  26.192  0.00  0.00    +0.000 HD
ENDROOT
BRANCH  15  25
ATOM     25  C   UNL     1      10.048  14.756  19.193  0.00  0.00    +0.000 A 
ATOM     26  C   UNL     1      10.044  15.893  18.363  0.00  0.00    +0.000 A 
ATOM     27  C   UNL     1      10.715  15.898  17.137  0.00  0.00    +0.000 A 
ATOM     28  C   UNL     1      11.397  14.765  16.717  0.00  0.00    +0.000 A 
ATOM     29  C   UNL     1      11.430  13.637  17.536  0.00  0.00    +0.000 A 
ATOM     30  C   UNL     1      10.775  13.614  18.787  0.00  0.00    +0.000 A 
BRANCH  30  31
ATOM     31  C   UNL     1      10.874  12.357  19.637  0.00  0.00    +0.000 C 
ATOM     32  C   UNL     1       9.997  11.232  19.079  0.00  0.00    +0.000 C 
ATOM     33  C   UNL     1      12.318  11.881  19.813  0.00  0.00    +0.000 C 
ENDBRANCH  30  31
ENDBRANCH  15  25
TORSDOF 2
ENDMDL
MODEL 5
REMARK VINA RESULT:      -8.0      3.746      7.314
REMARK  Name = 
REMARK  7 active torsions:
REMARK  status: ('A' for Active; 'I' for Inactive)
REMARK    1  A    between atoms: C_1  and  C_2
REMARK    2  A    between atoms: C_4  and  C_5
REMARK    3  A    between atoms: C_4  and  C_6
REMARK    4  A    between atoms: C_15  and  C_16
REMARK    5  A    between atoms: C_21  and  C_22
REMARK    6  A    between atoms: C_22  and  C_23
REMARK    7  A    between atoms: C_22  and  C_24
REMARK                            x       y       z     vdW  Elec       q    Type
REMARK                         _______ _______ _______ _____ _____    ______ ____
ROOT
ATOM      1  C   UNL     1       1.070   9.793  17.505  0.00  0.00    +0.000 C 
ATOM      2  C   UNL     1       1.656   8.976  18.619  0.00  0.00    +0.000 C 
ATOM      3  C   UNL     1       2.282   7.826  18.309  0.00  0.00    +0.000 C 
ATOM      4  C   UNL     1       2.533   6.683  19.255  0.00  0.00    +0.000 C 
ATOM      5  C   UNL     1       1.702   5.479  18.773  0.00  0.00    +0.000 C 
ATOM      6  C   UNL     1       4.019   6.305  19.267  0.00  0.00    +0.000 C 
ATOM      7  N   UNL     1       2.122   6.995  20.621  0.00  0.00    +0.000 N 
ATOM      8  C   UNL     1       1.360   8.127  20.910  0.00  0.00    +0.000 A 
ATOM      9  C   UNL     1       0.733   8.201  22.157  0.00  0.00    +0.000 A 
ATOM     10  C   UNL     1      -0.034   9.312  22.508  0.00  0.00    +0.000 A 
ATOM     11  C   UNL     1      -0.064  10.447  21.689  0.00  0.00    +0.000 A 
ATOM     12  C   UNL     1       0.736  10.450  20.518  0.00  0.00    +0.000 A 
ATOM     13  C   UNL     1       1.290   9.235  20.037  0.00  0.00    +0.000 A 
ATOM     14  C   UNL     1       0.968  11.805  19.942  0.00  0.00    +0.000 C 
ATOM     15  C   UNL     1       2.193  12.306  19.674  0.00  0.00    +0.000 C 
ATOM     16  O   UNL     1      -0.152  12.626  19.860  0.00  0.00    +0.000 OA
ATOM     17  C   UNL     1      -0.987  12.631  20.954  0.00  0.00    +0.000 A 
ATOM     18  C   UNL     1      -1.873  13.709  21.037  0.00  0.00    +0.000 A 
ATOM     19  C   UNL     1      -2.741  13.796  22.117  0.00  0.00    +0.000 A 
ATOM     20  C   UNL     1      -2.712  12.805  23.090  0.00  0.00    +0.000 A 
ATOM     21  F   UNL     1      -3.558  12.881  24.127  0.00  0.00    +0.000 F 
ATOM     22  C   UNL     1      -1.835  11.723  23.005  0.00  0.00    +0.000 A 
ATOM     23  C   UNL     1      -0.948  11.608  21.926  0.00  0.00    +0.000 A 
ATOM     24  H   UNL     1       1.958   6.192  21.216  0.00  0.00    +0.000 HD
ENDROOT
BRANCH  15  25
ATOM     25  C   UNL     1       2.426  13.708  19.249  0.00  0.00    +0.000 A 
ATOM     26  C   UNL     1       2.576  13.956  17.871  0.00  0.00    +0.000 A 
ATOM     27  C   UNL     1       2.846  15.241  17.391  0.00  0.00    +0.000 A 
ATOM     28  C   UNL     1       2.976  16.298  18.280  0.00  0.00    +0.000 A 
ATOM     29  C   UNL     1       2.810  16.075  19.645  0.00  0.00    +0.000 A 
ATOM     30  C   UNL     1       2.518  14.790  20.154  0.00  0.00    +0.000 A 
BRANCH  30  31
ATOM     31  C   UNL     1       2.325  14.627  21.654  0.00  0.00    +0.000 C 
ATOM     32  C   UNL     1       3.594  15.003  22.425  0.00  0.00    +0.000 C 
ATOM     33  C   UNL     1       1.121  15.410  22.178  0.00  0.00    +0.000 C 
ENDBRANCH  30  31
ENDBRANCH  15  25
TORSDOF 2
ENDMDL
MODEL 6
REMARK VINA RESULT:      -8.0      2.779      6.102
REMARK  Name = 
REMARK  7 active torsions:
REMARK  status: ('A' for Active; 'I' for Inactive)
REMARK    1  A    between atoms: C_1  and  C_2
REMARK    2  A    between atoms: C_4  and  C_5
REMARK    3  A    between atoms: C_4  and  C_6
REMARK    4  A    between atoms: C_15  and  C_16
REMARK    5  A    between atoms: C_21  and  C_22
REMARK    6  A    between atoms: C_22  and  C_23
REMARK    7  A    between atoms: C_22  and  C_24
REMARK                            x       y       z     vdW  Elec       q    Type
REMARK                         _______ _______ _______ _____ _____    ______ ____
ROOT
ATOM      1  C   UNL     1      -3.629  11.459  17.278  0.00  0.00    +0.000 C 
ATOM      2  C   UNL     1      -4.361  11.713  18.564  0.00  0.00    +0.000 C 
ATOM      3  C   UNL     1      -5.670  11.409  18.626  0.00  0.00    +0.000 C 
ATOM      4  C   UNL     1      -6.654  11.972  19.616  0.00  0.00    +0.000 C 
ATOM      5  C   UNL     1      -7.666  12.837  18.839  0.00  0.00    +0.000 C 
ATOM      6  C   UNL     1      -7.398  10.846  20.343  0.00  0.00    +0.000 C 
ATOM      7  N   UNL     1      -6.009  12.822  20.614  0.00  0.00    +0.000 N 
ATOM      8  C   UNL     1      -4.685  13.236  20.470  0.00  0.00    +0.000 A 
ATOM      9  C   UNL     1      -4.231  14.289  21.268  0.00  0.00    +0.000 A 
ATOM     10  C   UNL     1      -2.915  14.742  21.176  0.00  0.00    +0.000 A 
ATOM     11  C   UNL     1      -1.975  14.051  20.403  0.00  0.00    +0.000 A 
ATOM     12  C   UNL     1      -2.387  12.862  19.750  0.00  0.00    +0.000 A 
ATOM     13  C   UNL     1      -3.769  12.564  19.630  0.00  0.00    +0.000 A 
ATOM     14  C   UNL     1      -1.263  11.989  19.307  0.00  0.00    +0.000 C 
ATOM     15  C   UNL     1      -1.154  10.683  19.634  0.00  0.00    +0.000 C 
ATOM     16  O   UNL     1      -0.206  12.638  18.677  0.00  0.00    +0.000 OA
ATOM     17  C   UNL     1       0.209  13.821  19.245  0.00  0.00    +0.000 A 
ATOM     18  C   UNL     1       1.477  14.265  18.862  0.00  0.00    +0.000 A 
ATOM     19  C   UNL     1       1.977  15.444  19.400  0.00  0.00    +0.000 A 
ATOM     20  C   UNL     1       1.201  16.158  20.303  0.00  0.00    +0.000 A 
ATOM     21  F   UNL     1       1.677  17.303  20.813  0.00  0.00    +0.000 F 
ATOM     22  C   UNL     1      -0.069  15.721  20.680  0.00  0.00    +0.000 A 
ATOM     23  C   UNL     1      -0.600  14.536  20.154  0.00  0.00    +0.000 A 
ATOM     24  H   UNL     1      -6.624  13.474  21.087  0.00  0.00    +0.000 HD
ENDROOT
BRANCH  15  25
ATOM     25  C   UNL     1       0.041   9.861  19.323  0.00  0.00    +0.000 A 
ATOM     26  C   UNL     1       0.393   9.709  17.968  0.00  0.00    +0.000 A 
ATOM     27  C   UNL     1       1.476   8.911  17.585  0.00  0.00    +0.000 A 
ATOM     28  C   UNL     1       2.221   8.249  18.550  0.00  0.00    +0.000 A 
ATOM     29  C   UNL     1       1.900   8.404  19.897  0.00  0.00    +0.000 A 
ATOM     30  C   UNL     1       0.822   9.219  20.310  0.00  0.00    +0.000 A 
BRANCH  30  31
ATOM     31  C   UNL     1       0.546   9.362  21.799  0.00  0.00    +0.000 C 
ATOM     32  C   UNL     1      -0.582   8.429  22.250  0.00  0.00    +0.000 C 
ATOM     33  C   UNL     1       1.799   9.147  22.650  0.00  0.00    +0.000 C 
ENDBRANCH  30  31
ENDBRANCH  15  25
TORSDOF 2
ENDMDL
MODEL 7
REMARK VINA RESULT:      -7.8      2.879      5.007
REMARK  Name = 
REMARK  7 active torsions:
REMARK  status: ('A' for Active; 'I' for Inactive)
REMARK    1  A    between atoms: C_1  and  C_2
REMARK    2  A    between atoms: C_4  and  C_5
REMARK    3  A    between atoms: C_4  and  C_6
REMARK    4  A    between atoms: C_15  and  C_16
REMARK    5  A    between atoms: C_21  and  C_22
REMARK    6  A    between atoms: C_22  and  C_23
REMARK    7  A    between atoms: C_22  and  C_24
REMARK                            x       y       z     vdW  Elec       q    Type
REMARK                         _______ _______ _______ _____ _____    ______ ____
ROOT
ATOM      1  C   UNL     1      -4.167  13.162  20.191  0.00  0.00    +0.000 C 
ATOM      2  C   UNL     1      -4.201  13.108  21.691  0.00  0.00    +0.000 C 
ATOM      3  C   UNL     1      -5.392  12.961  22.300  0.00  0.00    +0.000 C 
ATOM      4  C   UNL     1      -5.695  13.318  23.729  0.00  0.00    +0.000 C 
ATOM      5  C   UNL     1      -6.696  14.490  23.722  0.00  0.00    +0.000 C 
ATOM      6  C   UNL     1      -6.313  12.126  24.469  0.00  0.00    +0.000 C 
ATOM      7  N   UNL     1      -4.504  13.749  24.457  0.00  0.00    +0.000 N 
ATOM      8  C   UNL     1      -3.308  14.025  23.793  0.00  0.00    +0.000 A 
ATOM      9  C   UNL     1      -2.318  14.731  24.482  0.00  0.00    +0.000 A 
ATOM     10  C   UNL     1      -1.098  15.028  23.876  0.00  0.00    +0.000 A 
ATOM     11  C   UNL     1      -0.772  14.489  22.625  0.00  0.00    +0.000 A 
ATOM     12  C   UNL     1      -1.697  13.606  22.014  0.00  0.00    +0.000 A 
ATOM     13  C   UNL     1      -3.027  13.527  22.502  0.00  0.00    +0.000 A 
ATOM     14  C   UNL     1      -1.116  12.775  20.922  0.00  0.00    +0.000 C 
ATOM     15  C   UNL     1      -1.200  11.428  20.878  0.00  0.00    +0.000 C 
ATOM     16  O   UNL     1      -0.301  13.450  20.018  0.00  0.00    +0.000 OA
ATOM     17  C   UNL     1       0.590  14.352  20.554  0.00  0.00    +0.000 A 
ATOM     18  C   UNL     1       1.644  14.733  19.720  0.00  0.00    +0.000 A 
ATOM     19  C   UNL     1       2.594  15.630  20.189  0.00  0.00    +0.000 A 
ATOM     20  C   UNL     1       2.473  16.131  21.478  0.00  0.00    +0.000 A 
ATOM     21  F   UNL     1       3.382  17.007  21.928  0.00  0.00    +0.000 F 
ATOM     22  C   UNL     1       1.416  15.759  22.310  0.00  0.00    +0.000 A 
ATOM     23  C   UNL     1       0.442  14.857  21.863  0.00  0.00    +0.000 A 
ATOM     24  H   UNL     1      -4.682  14.301  25.288  0.00  0.00    +0.000 HD
ENDROOT
BRANCH  15  25
ATOM     25  C   UNL     1      -0.489  10.598  19.876  0.00  0.00    +0.000 A 
ATOM     26  C   UNL     1       0.794  10.125  20.212  0.00  0.00    +0.000 A 
ATOM     27  C   UNL     1       1.552   9.377  19.306  0.00  0.00    +0.000 A 
ATOM     28  C   UNL     1       1.042   9.093  18.047  0.00  0.00    +0.000 A 
ATOM     29  C   UNL     1      -0.235   9.535  17.705  0.00  0.00    +0.000 A 
ATOM     30  C   UNL     1      -1.027  10.277  18.609  0.00  0.00    +0.000 A 
BRANCH  30  31
ATOM     31  C   UNL     1      -2.421  10.704  18.175  0.00  0.00    +0.000 C 
ATOM     32  C   UNL     1      -2.364  11.723  17.033  0.00  0.00    +0.000 C 
ATOM     33  C   UNL     1      -3.307   9.515  17.797  0.00  0.00    +0.000 C 
ENDBRANCH  30  31
ENDBRANCH  15  25
TORSDOF 2
ENDMDL
MODEL 8
REMARK VINA RESULT:      -7.8      2.599      6.030
REMARK  Name = 
REMARK  7 active torsions:
REMARK  status: ('A' for Active; 'I' for Inactive)
REMARK    1  A    between atoms: C_1  and  C_2
REMARK    2  A    between atoms: C_4  and  C_5
REMARK    3  A    between atoms: C_4  and  C_6
REMARK    4  A    between atoms: C_15  and  C_16
REMARK    5  A    between atoms: C_21  and  C_22
REMARK    6  A    between atoms: C_22  and  C_23
REMARK    7  A    between atoms: C_22  and  C_24
REMARK                            x       y       z     vdW  Elec       q    Type
REMARK                         _______ _______ _______ _____ _____    ______ ____
ROOT
ATOM      1  C   UNL     1      -3.855  12.518  20.997  0.00  0.00    +0.000 C 
ATOM      2  C   UNL     1      -4.229  12.624  19.547  0.00  0.00    +0.000 C 
ATOM      3  C   UNL     1      -5.475  13.026  19.236  0.00  0.00    +0.000 C 
ATOM      4  C   UNL     1      -6.172  12.782  17.925  0.00  0.00    +0.000 C 
ATOM      5  C   UNL     1      -7.359  11.835  18.190  0.00  0.00    +0.000 C 
ATOM      6  C   UNL     1      -6.691  14.097  17.331  0.00  0.00    +0.000 C 
ATOM      7  N   UNL     1      -5.298  12.143  16.944  0.00  0.00    +0.000 N 
ATOM      8  C   UNL     1      -4.061  11.613  17.310  0.00  0.00    +0.000 A 
ATOM      9  C   UNL     1      -3.425  10.744  16.420  0.00  0.00    +0.000 A 
ATOM     10  C   UNL     1      -2.182  10.189  16.725  0.00  0.00    +0.000 A 
ATOM     11  C   UNL     1      -1.469  10.612  17.853  0.00  0.00    +0.000 A 
ATOM     12  C   UNL     1      -2.025  11.643  18.650  0.00  0.00    +0.000 A 
ATOM     13  C   UNL     1      -3.389  12.003  18.490  0.00  0.00    +0.000 A 
ATOM     14  C   UNL     1      -1.048  12.306  19.559  0.00  0.00    +0.000 C 
ATOM     15  C   UNL     1      -0.845  13.641  19.597  0.00  0.00    +0.000 C 
ATOM     16  O   UNL     1      -0.197  11.454  20.256  0.00  0.00    +0.000 OA
ATOM     17  C   UNL     1       0.340  10.408  19.540  0.00  0.00    +0.000 A 
ATOM     18  C   UNL     1       1.462   9.797  20.108  0.00  0.00    +0.000 A 
ATOM     19  C   UNL     1       2.073   8.743  19.443  0.00  0.00    +0.000 A 
ATOM     20  C   UNL     1       1.553   8.316  18.228  0.00  0.00    +0.000 A 
ATOM     21  F   UNL     1       2.133   7.290  17.591  0.00  0.00    +0.000 F 
ATOM     22  C   UNL     1       0.428   8.919  17.663  0.00  0.00    +0.000 A 
ATOM     23  C   UNL     1      -0.210   9.984  18.312  0.00  0.00    +0.000 A 
ATOM     24  H   UNL     1      -5.774  11.665  16.188  0.00  0.00    +0.000 HD
ENDROOT
BRANCH  15  25
ATOM     25  C   UNL     1       0.235  14.279  20.388  0.00  0.00    +0.000 A 
ATOM     26  C   UNL     1      -0.042  14.602  21.731  0.00  0.00    +0.000 A 
ATOM     27  C   UNL     1       0.904  15.249  22.531  0.00  0.00    +0.000 A 
ATOM     28  C   UNL     1       2.141  15.590  22.002  0.00  0.00    +0.000 A 
ATOM     29  C   UNL     1       2.440  15.260  20.681  0.00  0.00    +0.000 A 
ATOM     30  C   UNL     1       1.508  14.590  19.858  0.00  0.00    +0.000 A 
BRANCH  30  31
ATOM     31  C   UNL     1       1.913  14.240  18.434  0.00  0.00    +0.000 C 
ATOM     32  C   UNL     1       2.880  15.278  17.856  0.00  0.00    +0.000 C 
ATOM     33  C   UNL     1       2.501  12.831  18.323  0.00  0.00    +0.000 C 
ENDBRANCH  30  31
ENDBRANCH  15  25
TORSDOF 2
ENDMDL
MODEL 9
REMARK VINA RESULT:      -7.8      3.036      5.379
REMARK  Name = 
REMARK  7 active torsions:
REMARK  status: ('A' for Active; 'I' for Inactive)
REMARK    1  A    between atoms: C_1  and  C_2
REMARK    2  A    between atoms: C_4  and  C_5
REMARK    3  A    between atoms: C_4  and  C_6
REMARK    4  A    between atoms: C_15  and  C_16
REMARK    5  A    between atoms: C_21  and  C_22
REMARK    6  A    between atoms: C_22  and  C_23
REMARK    7  A    between atoms: C_22  and  C_24
REMARK                            x       y       z     vdW  Elec       q    Type
REMARK                         _______ _______ _______ _____ _____    ______ ____
ROOT
ATOM      1  C   UNL     1      -4.804  12.916  19.789  0.00  0.00    +0.000 C 
ATOM      2  C   UNL     1      -4.798  13.103  21.279  0.00  0.00    +0.000 C 
ATOM      3  C   UNL     1      -5.938  12.873  21.956  0.00  0.00    +0.000 C 
ATOM      4  C   UNL     1      -6.266  13.408  23.324  0.00  0.00    +0.000 C 
ATOM      5  C   UNL     1      -7.442  14.393  23.178  0.00  0.00    +0.000 C 
ATOM      6  C   UNL     1      -6.669  12.270  24.270  0.00  0.00    +0.000 C 
ATOM      7  N   UNL     1      -5.145  14.130  23.919  0.00  0.00    +0.000 N 
ATOM      8  C   UNL     1      -4.022  14.476  23.167  0.00  0.00    +0.000 A 
ATOM      9  C   UNL     1      -3.144  15.430  23.690  0.00  0.00    +0.000 A 
ATOM     10  C   UNL     1      -2.000  15.810  22.990  0.00  0.00    +0.000 A 
ATOM     11  C   UNL     1      -1.617  15.132  21.826  0.00  0.00    +0.000 A 
ATOM     12  C   UNL     1      -2.400  14.029  21.404  0.00  0.00    +0.000 A 
ATOM     13  C   UNL     1      -3.691  13.824  21.958  0.00  0.00    +0.000 A 
ATOM     14  C   UNL     1      -1.715  13.132  20.431  0.00  0.00    +0.000 C 
ATOM     15  C   UNL     1      -1.584  11.798  20.604  0.00  0.00    +0.000 C 
ATOM     16  O   UNL     1      -1.038  13.768  19.396  0.00  0.00    +0.000 OA
ATOM     17  C   UNL     1      -0.293  14.872  19.743  0.00  0.00    +0.000 A 
ATOM     18  C   UNL     1       0.670  15.271  18.811  0.00  0.00    +0.000 A 
ATOM     19  C   UNL     1       1.474  16.369  19.090  0.00  0.00    +0.000 A 
ATOM     20  C   UNL     1       1.299  17.048  20.288  0.00  0.00    +0.000 A 
ATOM     21  F   UNL     1       2.065  18.116  20.553  0.00  0.00    +0.000 F 
ATOM     22  C   UNL     1       0.333  16.657  21.216  0.00  0.00    +0.000 A 
ATOM     23  C   UNL     1      -0.493  15.554  20.961  0.00  0.00    +0.000 A 
ATOM     24  H   UNL     1      -5.392  14.775  24.660  0.00  0.00    +0.000 HD
ENDROOT
BRANCH  15  25
ATOM     25  C   UNL     1      -0.769  10.936  19.713  0.00  0.00    +0.000 A 
ATOM     26  C   UNL     1       0.529  10.597  20.143  0.00  0.00    +0.000 A 
ATOM     27  C   UNL     1       1.379   9.829  19.341  0.00  0.00    +0.000 A 
ATOM     28  C   UNL     1       0.949   9.392  18.097  0.00  0.00    +0.000 A 
ATOM     29  C   UNL     1      -0.339   9.701  17.665  0.00  0.00    +0.000 A 
ATOM     30  C   UNL     1      -1.224  10.460  18.463  0.00  0.00    +0.000 A 
BRANCH  30  31
ATOM     31  C   UNL     1      -2.623  10.738  17.937  0.00  0.00    +0.000 C 
ATOM     32  C   UNL     1      -2.582  11.385  16.549  0.00  0.00    +0.000 C 
ATOM     33  C   UNL     1      -3.503   9.486  17.924  0.00  0.00    +0.000 C 
ENDBRANCH  30  31
ENDBRANCH  15  25
TORSDOF 2
ENDMDL
