MODEL 1
REMARK VINA RESULT:      -7.7      0.000      0.000
REMARK  Name = 
REMARK  10 active torsions:
REMARK  status: ('A' for Active; 'I' for Inactive)
REMARK    1  A    between atoms: N_1  and  C_2
REMARK    2  A    between atoms: C_7  and  N_8
REMARK    3  A    between atoms: C_9  and  C_11
REMARK    4  A    between atoms: C_11  and  C_12
REMARK    5  A    between atoms: C_12  and  C_13
REMARK    6  A    between atoms: C_13  and  C_14
REMARK    7  A    between atoms: C_14  and  C_15
REMARK    8  A    between atoms: C_15  and  C_16
REMARK    9  A    between atoms: C_16  and  C_17
REMARK   10  A    between atoms: C_19  and  C_20
REMARK                            x       y       z     vdW  Elec       q    Type
REMARK                         _______ _______ _______ _____ _____    ______ ____
ROOT
ATOM      1  C   UNL     1       2.785   2.432  19.710  0.00  0.00    +0.000 C 
ENDROOT
BRANCH   1   2
ATOM      2  C   UNL     1       4.285   2.277  19.507  0.00  0.00    +0.000 C 
BRANCH   2   4
ATOM      3  N   UNL     1       5.716   4.224  19.250  0.00  0.00    +0.000 N 
ATOM      4  C   UNL     1       4.787   3.405  18.629  0.00  0.00    +0.000 C 
ATOM      5  O   UNL     1       4.404   3.478  17.465  0.00  0.00    +0.000 OA
ATOM      6  H   UNL     1       6.073   3.926  20.146  0.00  0.00    +0.000 HD
BRANCH   3  12
ATOM      7  C   UNL     1       7.504   5.899  19.304  0.00  0.00    +0.000 A 
ATOM      8  C   UNL     1       8.176   6.962  18.673  0.00  0.00    +0.000 A 
ATOM      9  C   UNL     1       7.670   7.554  17.515  0.00  0.00    +0.000 A 
ATOM     10  C   UNL     1       6.503   7.065  16.947  0.00  0.00    +0.000 A 
ATOM     11  C   UNL     1       5.852   5.977  17.528  0.00  0.00    +0.000 A 
ATOM     12  C   UNL     1       6.349   5.362  18.684  0.00  0.00    +0.000 A 
BRANCH   7  13
ATOM     13  N   UNL     1       8.144   5.273  20.398  0.00  0.00    +0.000 N 
ATOM     14  H   UNL     1       7.957   5.744  21.280  0.00  0.00    +0.000 HD
ATOM     15  H   UNL     1       7.981   4.280  20.477  0.00  0.00    +0.000 HD
ENDBRANCH   7  13
ENDBRANCH   3  12
ENDBRANCH   2   4
ENDBRANCH   1   2
BRANCH   1  16
ATOM     16  C   UNL     1       2.441   3.231  20.965  0.00  0.00    +0.000 C 
BRANCH  16  17
ATOM     17  C   UNL     1       1.322   4.224  20.651  0.00  0.00    +0.000 C 
BRANCH  17  18
ATOM     18  C   UNL     1       1.640   5.082  19.432  0.00  0.00    +0.000 C 
BRANCH  18  19
ATOM     19  C   UNL     1       2.649   6.174  19.788  0.00  0.00    +0.000 C 
BRANCH  19  20
ATOM     20  C   UNL     1       2.294   7.453  19.137  0.00  0.00    +0.000 A 
ATOM     21  N   UNL     1       1.549   8.436  19.576  0.00  0.00    +0.000 NA
ATOM     22  C   UNL     1       1.563   9.317  18.512  0.00  0.00    +0.000 A 
ATOM     23  N   UNL     1       2.298   8.898  17.468  0.00  0.00    +0.000 NA
ATOM     24  O   UNL     1       2.781   7.657  17.880  0.00  0.00    +0.000 OA
BRANCH  22  25
ATOM     25  C   UNL     1       0.829  10.577  18.543  0.00  0.00    +0.000 A 
ATOM     26  C   UNL     1       1.515  11.796  18.622  0.00  0.00    +0.000 A 
ATOM     27  C   UNL     1       0.817  13.006  18.664  0.00  0.00    +0.000 A 
ATOM     28  C   UNL     1      -0.576  13.006  18.630  0.00  0.00    +0.000 A 
ATOM     29  C   UNL     1      -1.272  11.802  18.550  0.00  0.00    +0.000 A 
ATOM     30  C   UNL     1      -0.575  10.593  18.507  0.00  0.00    +0.000 A 
ENDBRANCH  22  25
ENDBRANCH  19  20
ENDBRANCH  18  19
ENDBRANCH  17  18
ENDBRANCH  16  17
ENDBRANCH   1  16
TORSDOF 10
ENDMDL
MODEL 2
REMARK VINA RESULT:      -7.7      4.734      7.641
REMARK  Name = 
REMARK  10 active torsions:
REMARK  status: ('A' for Active; 'I' for Inactive)
REMARK    1  A    between atoms: N_1  and  C_2
REMARK    2  A    between atoms: C_7  and  N_8
REMARK    3  A    between atoms: C_9  and  C_11
REMARK    4  A    between atoms: C_11  and  C_12
REMARK    5  A    between atoms: C_12  and  C_13
REMARK    6  A    between atoms: C_13  and  C_14
REMARK    7  A    between atoms: C_14  and  C_15
REMARK    8  A    between atoms: C_15  and  C_16
REMARK    9  A    between atoms: C_16  and  C_17
REMARK   10  A    between atoms: C_19  and  C_20
REMARK                            x       y       z     vdW  Elec       q    Type
REMARK                         _______ _______ _______ _____ _____    ______ ____
ROOT
ATOM      1  C   UNL     1       7.680   4.867  18.067  0.00  0.00    +0.000 C 
ENDROOT
BRANCH   1   2
ATOM      2  C   UNL     1       7.258   4.729  16.611  0.00  0.00    +0.000 C 
BRANCH   2   4
ATOM      3  N   UNL     1       5.256   3.992  17.776  0.00  0.00    +0.000 N 
ATOM      4  C   UNL     1       5.787   4.370  16.553  0.00  0.00    +0.000 C 
ATOM      5  O   UNL     1       5.178   4.494  15.495  0.00  0.00    +0.000 OA
ATOM      6  H   UNL     1       5.834   4.120  18.593  0.00  0.00    +0.000 HD
BRANCH   3  12
ATOM      7  C   UNL     1       2.897   4.571  18.096  0.00  0.00    +0.000 A 
ATOM      8  C   UNL     1       1.564   4.147  18.243  0.00  0.00    +0.000 A 
ATOM      9  C   UNL     1       1.247   2.800  18.422  0.00  0.00    +0.000 A 
ATOM     10  C   UNL     1       2.257   1.851  18.418  0.00  0.00    +0.000 A 
ATOM     11  C   UNL     1       3.579   2.245  18.220  0.00  0.00    +0.000 A 
ATOM     12  C   UNL     1       3.917   3.591  18.027  0.00  0.00    +0.000 A 
BRANCH   7  13
ATOM     13  N   UNL     1       3.126   5.933  17.794  0.00  0.00    +0.000 N 
ATOM     14  H   UNL     1       3.970   6.073  17.244  0.00  0.00    +0.000 HD
ATOM     15  H   UNL     1       2.341   6.417  17.383  0.00  0.00    +0.000 HD
ENDBRANCH   7  13
ENDBRANCH   3  12
ENDBRANCH   2   4
ENDBRANCH   1   2
BRANCH   1  16
ATOM     16  C   UNL     1       7.908   6.320  18.478  0.00  0.00    +0.000 C 
BRANCH  16  17
ATOM     17  C   UNL     1       7.227   7.250  17.473  0.00  0.00    +0.000 C 
BRANCH  17  18
ATOM     18  C   UNL     1       7.734   8.683  17.582  0.00  0.00    +0.000 C 
BRANCH  18  19
ATOM     19  C   UNL     1       8.704   8.826  18.755  0.00  0.00    +0.000 C 
BRANCH  19  20
ATOM     20  C   UNL     1       9.144  10.230  18.908  0.00  0.00    +0.000 A 
ATOM     21  N   UNL     1       9.387  11.134  17.993  0.00  0.00    +0.000 NA
ATOM     22  C   UNL     1       9.795  12.217  18.748  0.00  0.00    +0.000 A 
ATOM     23  N   UNL     1       9.790  11.991  20.072  0.00  0.00    +0.000 NA
ATOM     24  O   UNL     1       9.362  10.668  20.180  0.00  0.00    +0.000 OA
BRANCH  22  25
ATOM     25  C   UNL     1      10.199  13.477  18.134  0.00  0.00    +0.000 A 
ATOM     26  C   UNL     1      11.398  13.564  17.414  0.00  0.00    +0.000 A 
ATOM     27  C   UNL     1      11.796  14.771  16.833  0.00  0.00    +0.000 A 
ATOM     28  C   UNL     1      10.997  15.905  16.971  0.00  0.00    +0.000 A 
ATOM     29  C   UNL     1       9.802  15.834  17.682  0.00  0.00    +0.000 A 
ATOM     30  C   UNL     1       9.404  14.627  18.262  0.00  0.00    +0.000 A 
ENDBRANCH  22  25
ENDBRANCH  19  20
ENDBRANCH  18  19
ENDBRANCH  17  18
ENDBRANCH  16  17
ENDBRANCH   1  16
TORSDOF 10
ENDMDL
MODEL 3
REMARK VINA RESULT:      -7.7      5.623      8.351
REMARK  Name = 
REMARK  10 active torsions:
REMARK  status: ('A' for Active; 'I' for Inactive)
REMARK    1  A    between atoms: N_1  and  C_2
REMARK    2  A    between atoms: C_7  and  N_8
REMARK    3  A    between atoms: C_9  and  C_11
REMARK    4  A    between atoms: C_11  and  C_12
REMARK    5  A    between atoms: C_12  and  C_13
REMARK    6  A    between atoms: C_13  and  C_14
REMARK    7  A    between atoms: C_14  and  C_15
REMARK    8  A    between atoms: C_15  and  C_16
REMARK    9  A    between atoms: C_16  and  C_17
REMARK   10  A    between atoms: C_19  and  C_20
REMARK                            x       y       z     vdW  Elec       q    Type
REMARK                         _______ _______ _______ _____ _____    ______ ____
ROOT
ATOM      1  C   UNL     1       7.939   6.671  18.465  0.00  0.00    +0.000 C 
ENDROOT
BRANCH   1   2
ATOM      2  C   UNL     1       7.626   5.217  18.138  0.00  0.00    +0.000 C 
BRANCH   2   4
ATOM      3  N   UNL     1       5.476   4.124  17.841  0.00  0.00    +0.000 N 
ATOM      4  C   UNL     1       6.266   4.863  18.706  0.00  0.00    +0.000 C 
ATOM      5  O   UNL     1       5.994   5.181  19.860  0.00  0.00    +0.000 OA
ATOM      6  H   UNL     1       5.908   3.777  16.998  0.00  0.00    +0.000 HD
BRANCH   3  12
ATOM      7  C   UNL     1       3.953   2.588  18.993  0.00  0.00    +0.000 A 
ATOM      8  C   UNL     1       2.635   2.210  19.306  0.00  0.00    +0.000 A 
ATOM      9  C   UNL     1       1.541   2.802  18.672  0.00  0.00    +0.000 A 
ATOM     10  C   UNL     1       1.749   3.809  17.741  0.00  0.00    +0.000 A 
ATOM     11  C   UNL     1       3.046   4.234  17.457  0.00  0.00    +0.000 A 
ATOM     12  C   UNL     1       4.157   3.660  18.091  0.00  0.00    +0.000 A 
BRANCH   7  13
ATOM     13  N   UNL     1       4.998   2.033  19.766  0.00  0.00    +0.000 N 
ATOM     14  H   UNL     1       5.058   1.022  19.672  0.00  0.00    +0.000 HD
ATOM     15  H   UNL     1       5.902   2.463  19.635  0.00  0.00    +0.000 HD
ENDBRANCH   7  13
ENDBRANCH   3  12
ENDBRANCH   2   4
ENDBRANCH   1   2
BRANCH   1  16
ATOM     16  C   UNL     1       7.423   7.637  17.402  0.00  0.00    +0.000 C 
BRANCH  16  17
ATOM     17  C   UNL     1       7.798   9.069  17.784  0.00  0.00    +0.000 C 
BRANCH  17  18
ATOM     18  C   UNL     1       9.069   9.126  18.624  0.00  0.00    +0.000 C 
BRANCH  18  19
ATOM     19  C   UNL     1       9.065  10.361  19.525  0.00  0.00    +0.000 C 
BRANCH  19  20
ATOM     20  C   UNL     1       9.821  11.471  18.903  0.00  0.00    +0.000 A 
ATOM     21  N   UNL     1       9.943  12.717  19.286  0.00  0.00    +0.000 NA
ATOM     22  C   UNL     1      10.728  13.258  18.287  0.00  0.00    +0.000 A 
ATOM     23  N   UNL     1      11.083  12.378  17.336  0.00  0.00    +0.000 NA
ATOM     24  O   UNL     1      10.477  11.190  17.742  0.00  0.00    +0.000 OA
BRANCH  22  25
ATOM     25  C   UNL     1      11.112  14.665  18.285  0.00  0.00    +0.000 A 
ATOM     26  C   UNL     1      11.015  15.426  17.112  0.00  0.00    +0.000 A 
ATOM     27  C   UNL     1      11.393  16.771  17.101  0.00  0.00    +0.000 A 
ATOM     28  C   UNL     1      11.874  17.368  18.265  0.00  0.00    +0.000 A 
ATOM     29  C   UNL     1      11.975  16.625  19.439  0.00  0.00    +0.000 A 
ATOM     30  C   UNL     1      11.596  15.280  19.450  0.00  0.00    +0.000 A 
ENDBRANCH  22  25
ENDBRANCH  19  20
ENDBRANCH  18  19
ENDBRANCH  17  18
ENDBRANCH  16  17
ENDBRANCH   1  16
TORSDOF 10
ENDMDL
MODEL 4
REMARK VINA RESULT:      -7.7      2.009      2.933
REMARK  Name = 
REMARK  10 active torsions:
REMARK  status: ('A' for Active; 'I' for Inactive)
REMARK    1  A    between atoms: N_1  and  C_2
REMARK    2  A    between atoms: C_7  and  N_8
REMARK    3  A    between atoms: C_9  and  C_11
REMARK    4  A    between atoms: C_11  and  C_12
REMARK    5  A    between atoms: C_12  and  C_13
REMARK    6  A    between atoms: C_13  and  C_14
REMARK    7  A    between atoms: C_14  and  C_15
REMARK    8  A    between atoms: C_15  and  C_16
REMARK    9  A    between atoms: C_16  and  C_17
REMARK   10  A    between atoms: C_19  and  C_20
REMARK                            x       y       z     vdW  Elec       q    Type
REMARK                         _______ _______ _______ _____ _____    ______ ____
ROOT
ATOM      1  C   UNL     1       2.807   3.385  17.447  0.00  0.00    +0.000 C 
ENDROOT
BRANCH   1   2
ATOM      2  C   UNL     1       3.935   2.712  16.679  0.00  0.00    +0.000 C 
BRANCH   2   4
ATOM      3  N   UNL     1       5.252   4.485  17.692  0.00  0.00    +0.000 N 
ATOM      4  C   UNL     1       5.110   3.665  16.584  0.00  0.00    +0.000 C 
ATOM      5  O   UNL     1       5.856   3.606  15.612  0.00  0.00    +0.000 OA
ATOM      6  H   UNL     1       4.673   4.287  18.495  0.00  0.00    +0.000 HD
BRANCH   3  12
ATOM      7  C   UNL     1       6.294   6.596  17.010  0.00  0.00    +0.000 A 
ATOM      8  C   UNL     1       7.220   7.621  17.276  0.00  0.00    +0.000 A 
ATOM      9  C   UNL     1       8.148   7.510  18.312  0.00  0.00    +0.000 A 
ATOM     10  C   UNL     1       8.138   6.386  19.124  0.00  0.00    +0.000 A 
ATOM     11  C   UNL     1       7.194   5.383  18.910  0.00  0.00    +0.000 A 
ATOM     12  C   UNL     1       6.247   5.481  17.882  0.00  0.00    +0.000 A 
BRANCH   7  13
ATOM     13  N   UNL     1       5.308   6.837  16.027  0.00  0.00    +0.000 N 
ATOM     14  H   UNL     1       5.703   6.929  15.094  0.00  0.00    +0.000 HD
ATOM     15  H   UNL     1       4.533   6.190  16.031  0.00  0.00    +0.000 HD
ENDBRANCH   7  13
ENDBRANCH   3  12
ENDBRANCH   2   4
ENDBRANCH   1   2
BRANCH   1  16
ATOM     16  C   UNL     1       1.862   2.382  18.103  0.00  0.00    +0.000 C 
BRANCH  16  17
ATOM     17  C   UNL     1       1.155   3.042  19.288  0.00  0.00    +0.000 C 
BRANCH  17  18
ATOM     18  C   UNL     1       1.575   2.433  20.620  0.00  0.00    +0.000 C 
BRANCH  18  19
ATOM     19  C   UNL     1       2.037   3.522  21.589  0.00  0.00    +0.000 C 
BRANCH  19  20
ATOM     20  C   UNL     1       2.304   4.788  20.871  0.00  0.00    +0.000 A 
ATOM     21  N   UNL     1       1.556   5.857  20.755  0.00  0.00    +0.000 NA
ATOM     22  C   UNL     1       2.325   6.669  19.944  0.00  0.00    +0.000 A 
ATOM     23  N   UNL     1       3.501   6.127  19.588  0.00  0.00    +0.000 NA
ATOM     24  O   UNL     1       3.487   4.874  20.200  0.00  0.00    +0.000 OA
BRANCH  22  25
ATOM     25  C   UNL     1       1.870   7.989  19.520  0.00  0.00    +0.000 A 
ATOM     26  C   UNL     1       1.192   8.827  20.415  0.00  0.00    +0.000 A 
ATOM     27  C   UNL     1       0.744  10.087  20.012  0.00  0.00    +0.000 A 
ATOM     28  C   UNL     1       0.968  10.520  18.706  0.00  0.00    +0.000 A 
ATOM     29  C   UNL     1       1.641   9.698  17.805  0.00  0.00    +0.000 A 
ATOM     30  C   UNL     1       2.090   8.438  18.209  0.00  0.00    +0.000 A 
ENDBRANCH  22  25
ENDBRANCH  19  20
ENDBRANCH  18  19
ENDBRANCH  17  18
ENDBRANCH  16  17
ENDBRANCH   1  16
TORSDOF 10
ENDMDL
MODEL 5
REMARK VINA RESULT:      -7.7      4.997      7.905
REMARK  Name = 
REMARK  10 active torsions:
REMARK  status: ('A' for Active; 'I' for Inactive)
REMARK    1  A    between atoms: N_1  and  C_2
REMARK    2  A    between atoms: C_7  and  N_8
REMARK    3  A    between atoms: C_9  and  C_11
REMARK    4  A    between atoms: C_11  and  C_12
REMARK    5  A    between atoms: C_12  and  C_13
REMARK    6  A    between atoms: C_13  and  C_14
REMARK    7  A    between atoms: C_14  and  C_15
REMARK    8  A    between atoms: C_15  and  C_16
REMARK    9  A    between atoms: C_16  and  C_17
REMARK   10  A    between atoms: C_19  and  C_20
REMARK                            x       y       z     vdW  Elec       q    Type
REMARK                         _______ _______ _______ _____ _____    ______ ____
ROOT
ATOM      1  C   UNL     1       7.629   5.141  18.270  0.00  0.00    +0.000 C 
ENDROOT
BRANCH   1   2
ATOM      2  C   UNL     1       6.738   5.002  17.043  0.00  0.00    +0.000 C 
BRANCH   2   4
ATOM      3  N   UNL     1       5.171   4.623  18.861  0.00  0.00    +0.000 N 
ATOM      4  C   UNL     1       5.339   4.624  17.485  0.00  0.00    +0.000 C 
ATOM      5  O   UNL     1       4.475   4.418  16.639  0.00  0.00    +0.000 OA
ATOM      6  H   UNL     1       5.921   4.998  19.421  0.00  0.00    +0.000 HD
BRANCH   3  12
ATOM      7  C   UNL     1       3.764   2.969  19.998  0.00  0.00    +0.000 A 
ATOM      8  C   UNL     1       2.630   2.690  20.781  0.00  0.00    +0.000 A 
ATOM      9  C   UNL     1       1.674   3.671  21.049  0.00  0.00    +0.000 A 
ATOM     10  C   UNL     1       1.859   4.959  20.568  0.00  0.00    +0.000 A 
ATOM     11  C   UNL     1       3.004   5.268  19.834  0.00  0.00    +0.000 A 
ATOM     12  C   UNL     1       3.980   4.300  19.564  0.00  0.00    +0.000 A 
BRANCH   7  13
ATOM     13  N   UNL     1       4.746   1.959  19.877  0.00  0.00    +0.000 N 
ATOM     14  H   UNL     1       5.257   1.807  20.744  0.00  0.00    +0.000 HD
ATOM     15  H   UNL     1       4.416   1.086  19.494  0.00  0.00    +0.000 HD
ENDBRANCH   7  13
ENDBRANCH   3  12
ENDBRANCH   2   4
ENDBRANCH   1   2
BRANCH   1  16
ATOM     16  C   UNL     1       7.871   6.598  18.658  0.00  0.00    +0.000 C 
BRANCH  16  17
ATOM     17  C   UNL     1       7.752   7.486  17.419  0.00  0.00    +0.000 C 
BRANCH  17  18
ATOM     18  C   UNL     1       7.640   8.963  17.777  0.00  0.00    +0.000 C 
BRANCH  18  19
ATOM     19  C   UNL     1       8.897   9.438  18.506  0.00  0.00    +0.000 C 
BRANCH  19  20
ATOM     20  C   UNL     1       9.153  10.869  18.238  0.00  0.00    +0.000 A 
ATOM     21  N   UNL     1      10.193  11.604  18.544  0.00  0.00    +0.000 NA
ATOM     22  C   UNL     1       9.825  12.849  18.070  0.00  0.00    +0.000 A 
ATOM     23  N   UNL     1       8.616  12.874  17.486  0.00  0.00    +0.000 NA
ATOM     24  O   UNL     1       8.165  11.560  17.601  0.00  0.00    +0.000 OA
BRANCH  22  25
ATOM     25  C   UNL     1      10.690  14.015  18.215  0.00  0.00    +0.000 A 
ATOM     26  C   UNL     1      10.925  14.572  19.478  0.00  0.00    +0.000 A 
ATOM     27  C   UNL     1      11.743  15.696  19.622  0.00  0.00    +0.000 A 
ATOM     28  C   UNL     1      12.332  16.275  18.499  0.00  0.00    +0.000 A 
ATOM     29  C   UNL     1      12.109  15.731  17.236  0.00  0.00    +0.000 A 
ATOM     30  C   UNL     1      11.292  14.607  17.093  0.00  0.00    +0.000 A 
ENDBRANCH  22  25
ENDBRANCH  19  20
ENDBRANCH  18  19
ENDBRANCH  17  18
ENDBRANCH  16  17
ENDBRANCH   1  16
TORSDOF 10
ENDMDL
MODEL 6
REMARK VINA RESULT:      -7.7      2.283      2.676
REMARK  Name = 
REMARK  10 active torsions:
REMARK  status: ('A' for Active; 'I' for Inactive)
REMARK    1  A    between atoms: N_1  and  C_2
REMARK    2  A    between atoms: C_7  and  N_8
REMARK    3  A    between atoms: C_9  and  C_11
REMARK    4  A    between atoms: C_11  and  C_12
REMARK    5  A    between atoms: C_12  and  C_13
REMARK    6  A    between atoms: C_13  and  C_14
REMARK    7  A    between atoms: C_14  and  C_15
REMARK    8  A    between atoms: C_15  and  C_16
REMARK    9  A    between atoms: C_16  and  C_17
REMARK   10  A    between atoms: C_19  and  C_20
REMARK                            x       y       z     vdW  Elec       q    Type
REMARK                         _______ _______ _______ _____ _____    ______ ____
ROOT
ATOM      1  C   UNL     1       1.161   3.004  18.614  0.00  0.00    +0.000 C 
ENDROOT
BRANCH   1   2
ATOM      2  C   UNL     1       2.087   1.818  18.848  0.00  0.00    +0.000 C 
BRANCH   2   4
ATOM      3  N   UNL     1       3.676   3.378  17.873  0.00  0.00    +0.000 N 
ATOM      4  C   UNL     1       3.381   2.042  18.090  0.00  0.00    +0.000 C 
ATOM      5  O   UNL     1       4.078   1.077  17.791  0.00  0.00    +0.000 OA
ATOM      6  H   UNL     1       3.103   4.063  18.343  0.00  0.00    +0.000 HD
BRANCH   3  12
ATOM      7  C   UNL     1       5.897   4.412  17.925  0.00  0.00    +0.000 A 
ATOM      8  C   UNL     1       7.050   4.821  17.231  0.00  0.00    +0.000 A 
ATOM      9  C   UNL     1       7.096   4.815  15.836  0.00  0.00    +0.000 A 
ATOM     10  C   UNL     1       6.002   4.364  15.114  0.00  0.00    +0.000 A 
ATOM     11  C   UNL     1       4.869   3.905  15.786  0.00  0.00    +0.000 A 
ATOM     12  C   UNL     1       4.807   3.891  17.185  0.00  0.00    +0.000 A 
BRANCH   7  13
ATOM     13  N   UNL     1       5.972   4.327  19.334  0.00  0.00    +0.000 N 
ATOM     14  H   UNL     1       6.097   3.372  19.660  0.00  0.00    +0.000 HD
ATOM     15  H   UNL     1       6.643   4.947  19.764  0.00  0.00    +0.000 HD
ENDBRANCH   7  13
ENDBRANCH   3  12
ENDBRANCH   2   4
ENDBRANCH   1   2
BRANCH   1  16
ATOM     16  C   UNL     1       0.708   3.662  19.915  0.00  0.00    +0.000 C 
BRANCH  16  17
ATOM     17  C   UNL     1       1.838   3.599  20.942  0.00  0.00    +0.000 C 
BRANCH  17  18
ATOM     18  C   UNL     1       2.382   4.981  21.285  0.00  0.00    +0.000 C 
BRANCH  18  19
ATOM     19  C   UNL     1       2.669   5.778  20.012  0.00  0.00    +0.000 C 
BRANCH  19  20
ATOM     20  C   UNL     1       2.021   7.107  20.065  0.00  0.00    +0.000 A 
ATOM     21  N   UNL     1       1.317   7.656  21.023  0.00  0.00    +0.000 NA
ATOM     22  C   UNL     1       0.958   8.869  20.468  0.00  0.00    +0.000 A 
ATOM     23  N   UNL     1       1.433   9.063  19.226  0.00  0.00    +0.000 NA
ATOM     24  O   UNL     1       2.136   7.889  18.955  0.00  0.00    +0.000 OA
BRANCH  22  25
ATOM     25  C   UNL     1       0.128   9.831  21.186  0.00  0.00    +0.000 A 
ATOM     26  C   UNL     1      -0.324  10.993  20.549  0.00  0.00    +0.000 A 
ATOM     27  C   UNL     1      -1.110  11.923  21.235  0.00  0.00    +0.000 A 
ATOM     28  C   UNL     1      -1.448  11.699  22.568  0.00  0.00    +0.000 A 
ATOM     29  C   UNL     1      -1.008  10.546  23.214  0.00  0.00    +0.000 A 
ATOM     30  C   UNL     1      -0.224   9.616  22.528  0.00  0.00    +0.000 A 
ENDBRANCH  22  25
ENDBRANCH  19  20
ENDBRANCH  18  19
ENDBRANCH  17  18
ENDBRANCH  16  17
ENDBRANCH   1  16
TORSDOF 10
ENDMDL
MODEL 7
REMARK VINA RESULT:      -7.5      1.507      2.174
REMARK  Name = 
REMARK  10 active torsions:
REMARK  status: ('A' for Active; 'I' for Inactive)
REMARK    1  A    between atoms: N_1  and  C_2
REMARK    2  A    between atoms: C_7  and  N_8
REMARK    3  A    between atoms: C_9  and  C_11
REMARK    4  A    between atoms: C_11  and  C_12
REMARK    5  A    between atoms: C_12  and  C_13
REMARK    6  A    between atoms: C_13  and  C_14
REMARK    7  A    between atoms: C_14  and  C_15
REMARK    8  A    between atoms: C_15  and  C_16
REMARK    9  A    between atoms: C_16  and  C_17
REMARK   10  A    between atoms: C_19  and  C_20
REMARK                            x       y       z     vdW  Elec       q    Type
REMARK                         _______ _______ _______ _____ _____    ______ ____
ROOT
ATOM      1  C   UNL     1       2.799   2.427  17.648  0.00  0.00    +0.000 C 
ENDROOT
BRANCH   1   2
ATOM      2  C   UNL     1       4.199   2.603  18.220  0.00  0.00    +0.000 C 
BRANCH   2   4
ATOM      3  N   UNL     1       5.618   4.558  18.485  0.00  0.00    +0.000 N 
ATOM      4  C   UNL     1       4.837   3.831  17.601  0.00  0.00    +0.000 C 
ATOM      5  O   UNL     1       4.679   4.053  16.404  0.00  0.00    +0.000 OA
ATOM      6  H   UNL     1       5.804   4.147  19.387  0.00  0.00    +0.000 HD
BRANCH   3  12
ATOM      7  C   UNL     1       7.469   6.092  18.961  0.00  0.00    +0.000 A 
ATOM      8  C   UNL     1       8.215   7.227  18.595  0.00  0.00    +0.000 A 
ATOM      9  C   UNL     1       7.794   8.071  17.567  0.00  0.00    +0.000 A 
ATOM     10  C   UNL     1       6.637   7.771  16.863  0.00  0.00    +0.000 A 
ATOM     11  C   UNL     1       5.913   6.622  17.175  0.00  0.00    +0.000 A 
ATOM     12  C   UNL     1       6.325   5.755  18.196  0.00  0.00    +0.000 A 
BRANCH   7  13
ATOM     13  N   UNL     1       8.025   5.221  19.925  0.00  0.00    +0.000 N 
ATOM     14  H   UNL     1       7.315   4.725  20.458  0.00  0.00    +0.000 HD
ATOM     15  H   UNL     1       8.723   4.583  19.571  0.00  0.00    +0.000 HD
ENDBRANCH   7  13
ENDBRANCH   3  12
ENDBRANCH   2   4
ENDBRANCH   1   2
BRANCH   1  16
ATOM     16  C   UNL     1       1.815   1.858  18.668  0.00  0.00    +0.000 C 
BRANCH  16  17
ATOM     17  C   UNL     1       0.923   2.980  19.201  0.00  0.00    +0.000 C 
BRANCH  17  18
ATOM     18  C   UNL     1       0.914   3.033  20.724  0.00  0.00    +0.000 C 
BRANCH  18  19
ATOM     19  C   UNL     1       2.162   3.745  21.247  0.00  0.00    +0.000 C 
BRANCH  19  20
ATOM     20  C   UNL     1       2.250   5.119  20.708  0.00  0.00    +0.000 A 
ATOM     21  N   UNL     1       1.442   6.136  20.874  0.00  0.00    +0.000 NA
ATOM     22  C   UNL     1       2.033   7.114  20.097  0.00  0.00    +0.000 A 
ATOM     23  N   UNL     1       3.164   6.718  19.490  0.00  0.00    +0.000 NA
ATOM     24  O   UNL     1       3.308   5.390  19.891  0.00  0.00    +0.000 OA
BRANCH  22  25
ATOM     25  C   UNL     1       1.452   8.445  19.960  0.00  0.00    +0.000 A 
ATOM     26  C   UNL     1       1.462   9.099  18.721  0.00  0.00    +0.000 A 
ATOM     27  C   UNL     1       0.917  10.379  18.585  0.00  0.00    +0.000 A 
ATOM     28  C   UNL     1       0.360  11.018  19.691  0.00  0.00    +0.000 A 
ATOM     29  C   UNL     1       0.341  10.380  20.929  0.00  0.00    +0.000 A 
ATOM     30  C   UNL     1       0.885   9.100  21.065  0.00  0.00    +0.000 A 
ENDBRANCH  22  25
ENDBRANCH  19  20
ENDBRANCH  18  19
ENDBRANCH  17  18
ENDBRANCH  16  17
ENDBRANCH   1  16
TORSDOF 10
ENDMDL
MODEL 8
REMARK VINA RESULT:      -7.5      5.553      8.115
REMARK  Name = 
REMARK  10 active torsions:
REMARK  status: ('A' for Active; 'I' for Inactive)
REMARK    1  A    between atoms: N_1  and  C_2
REMARK    2  A    between atoms: C_7  and  N_8
REMARK    3  A    between atoms: C_9  and  C_11
REMARK    4  A    between atoms: C_11  and  C_12
REMARK    5  A    between atoms: C_12  and  C_13
REMARK    6  A    between atoms: C_13  and  C_14
REMARK    7  A    between atoms: C_14  and  C_15
REMARK    8  A    between atoms: C_15  and  C_16
REMARK    9  A    between atoms: C_16  and  C_17
REMARK   10  A    between atoms: C_19  and  C_20
REMARK                            x       y       z     vdW  Elec       q    Type
REMARK                         _______ _______ _______ _____ _____    ______ ____
ROOT
ATOM      1  C   UNL     1       7.132   6.061  17.236  0.00  0.00    +0.000 C 
ENDROOT
BRANCH   1   2
ATOM      2  C   UNL     1       6.763   5.174  18.417  0.00  0.00    +0.000 C 
BRANCH   2   4
ATOM      3  N   UNL     1       4.726   4.296  19.411  0.00  0.00    +0.000 N 
ATOM      4  C   UNL     1       5.350   4.659  18.228  0.00  0.00    +0.000 C 
ATOM      5  O   UNL     1       4.855   4.657  17.105  0.00  0.00    +0.000 OA
ATOM      6  H   UNL     1       5.193   4.532  20.274  0.00  0.00    +0.000 HD
BRANCH   3  12
ATOM      7  C   UNL     1       2.423   4.531  20.215  0.00  0.00    +0.000 A 
ATOM      8  C   UNL     1       1.105   4.040  20.249  0.00  0.00    +0.000 A 
ATOM      9  C   UNL     1       0.785   2.786  19.728  0.00  0.00    +0.000 A 
ATOM     10  C   UNL     1       1.772   2.018  19.130  0.00  0.00    +0.000 A 
ATOM     11  C   UNL     1       3.074   2.510  19.039  0.00  0.00    +0.000 A 
ATOM     12  C   UNL     1       3.413   3.771  19.546  0.00  0.00    +0.000 A 
BRANCH   7  13
ATOM     13  N   UNL     1       2.643   5.858  20.648  0.00  0.00    +0.000 N 
ATOM     14  H   UNL     1       3.480   5.948  21.218  0.00  0.00    +0.000 HD
ATOM     15  H   UNL     1       2.626   6.554  19.917  0.00  0.00    +0.000 HD
ENDBRANCH   7  13
ENDBRANCH   3  12
ENDBRANCH   2   4
ENDBRANCH   1   2
BRANCH   1  16
ATOM     16  C   UNL     1       6.927   7.545  17.529  0.00  0.00    +0.000 C 
BRANCH  16  17
ATOM     17  C   UNL     1       8.196   8.125  18.153  0.00  0.00    +0.000 C 
BRANCH  17  18
ATOM     18  C   UNL     1       8.366   9.607  17.840  0.00  0.00    +0.000 C 
BRANCH  18  19
ATOM     19  C   UNL     1       9.200  10.295  18.921  0.00  0.00    +0.000 C 
BRANCH  19  20
ATOM     20  C   UNL     1       9.787  11.554  18.414  0.00  0.00    +0.000 A 
ATOM     21  N   UNL     1       9.424  12.793  18.634  0.00  0.00    +0.000 NA
ATOM     22  C   UNL     1      10.321  13.505  17.862  0.00  0.00    +0.000 A 
ATOM     23  N   UNL     1      11.207  12.737  17.206  0.00  0.00    +0.000 NA
ATOM     24  O   UNL     1      10.849  11.438  17.568  0.00  0.00    +0.000 OA
BRANCH  22  25
ATOM     25  C   UNL     1      10.281  14.962  17.778  0.00  0.00    +0.000 A 
ATOM     26  C   UNL     1       9.135  15.664  18.174  0.00  0.00    +0.000 A 
ATOM     27  C   UNL     1       9.086  17.057  18.085  0.00  0.00    +0.000 A 
ATOM     28  C   UNL     1      10.185  17.762  17.596  0.00  0.00    +0.000 A 
ATOM     29  C   UNL     1      11.332  17.078  17.201  0.00  0.00    +0.000 A 
ATOM     30  C   UNL     1      11.381  15.685  17.290  0.00  0.00    +0.000 A 
ENDBRANCH  22  25
ENDBRANCH  19  20
ENDBRANCH  18  19
ENDBRANCH  17  18
ENDBRANCH  16  17
ENDBRANCH   1  16
TORSDOF 10
ENDMDL
MODEL 9
REMARK VINA RESULT:      -7.4      2.229      2.641
REMARK  Name = 
REMARK  10 active torsions:
REMARK  status: ('A' for Active; 'I' for Inactive)
REMARK    1  A    between atoms: N_1  and  C_2
REMARK    2  A    between atoms: C_7  and  N_8
REMARK    3  A    between atoms: C_9  and  C_11
REMARK    4  A    between atoms: C_11  and  C_12
REMARK    5  A    between atoms: C_12  and  C_13
REMARK    6  A    between atoms: C_13  and  C_14
REMARK    7  A    between atoms: C_14  and  C_15
REMARK    8  A    between atoms: C_15  and  C_16
REMARK    9  A    between atoms: C_16  and  C_17
REMARK   10  A    between atoms: C_19  and  C_20
REMARK                            x       y       z     vdW  Elec       q    Type
REMARK                         _______ _______ _______ _____ _____    ______ ____
ROOT
ATOM      1  C   UNL     1       1.898   2.610  20.040  0.00  0.00    +0.000 C 
ENDROOT
BRANCH   1   2
ATOM      2  C   UNL     1       1.811   2.242  18.565  0.00  0.00    +0.000 C 
BRANCH   2   4
ATOM      3  N   UNL     1       3.547   3.647  17.608  0.00  0.00    +0.000 N 
ATOM      4  C   UNL     1       3.189   2.352  17.944  0.00  0.00    +0.000 C 
ATOM      5  O   UNL     1       3.886   1.346  17.843  0.00  0.00    +0.000 OA
ATOM      6  H   UNL     1       2.946   4.393  17.925  0.00  0.00    +0.000 HD
BRANCH   3  12
ATOM      7  C   UNL     1       5.898   4.308  17.814  0.00  0.00    +0.000 A 
ATOM      8  C   UNL     1       7.121   4.611  17.190  0.00  0.00    +0.000 A 
ATOM      9  C   UNL     1       7.211   4.764  15.805  0.00  0.00    +0.000 A 
ATOM     10  C   UNL     1       6.083   4.578  15.020  0.00  0.00    +0.000 A 
ATOM     11  C   UNL     1       4.873   4.224  15.616  0.00  0.00    +0.000 A 
ATOM     12  C   UNL     1       4.765   4.055  17.003  0.00  0.00    +0.000 A 
BRANCH   7  13
ATOM     13  N   UNL     1       5.915   4.046  19.203  0.00  0.00    +0.000 N 
ATOM     14  H   UNL     1       6.577   4.635  19.703  0.00  0.00    +0.000 HD
ATOM     15  H   UNL     1       5.011   4.058  19.651  0.00  0.00    +0.000 HD
ENDBRANCH   7  13
ENDBRANCH   3  12
ENDBRANCH   2   4
ENDBRANCH   1   2
BRANCH   1  16
ATOM     16  C   UNL     1       0.964   3.757  20.416  0.00  0.00    +0.000 C 
BRANCH  16  17
ATOM     17  C   UNL     1       1.754   5.065  20.471  0.00  0.00    +0.000 C 
BRANCH  17  18
ATOM     18  C   UNL     1       1.778   5.779  19.125  0.00  0.00    +0.000 C 
BRANCH  18  19
ATOM     19  C   UNL     1       2.694   7.002  19.179  0.00  0.00    +0.000 C 
BRANCH  19  20
ATOM     20  C   UNL     1       1.916   8.235  19.426  0.00  0.00    +0.000 A 
ATOM     21  N   UNL     1       1.163   8.558  20.448  0.00  0.00    +0.000 NA
ATOM     22  C   UNL     1       0.681   9.799  20.079  0.00  0.00    +0.000 A 
ATOM     23  N   UNL     1       1.128  10.226  18.887  0.00  0.00    +0.000 NA
ATOM     24  O   UNL     1       1.946   9.185  18.449  0.00  0.00    +0.000 OA
BRANCH  22  25
ATOM     25  C   UNL     1      -0.240  10.551  20.926  0.00  0.00    +0.000 A 
ATOM     26  C   UNL     1      -0.314  10.289  22.300  0.00  0.00    +0.000 A 
ATOM     27  C   UNL     1      -1.202  10.999  23.114  0.00  0.00    +0.000 A 
ATOM     28  C   UNL     1      -2.025  11.976  22.558  0.00  0.00    +0.000 A 
ATOM     29  C   UNL     1      -1.961  12.248  21.194  0.00  0.00    +0.000 A 
ATOM     30  C   UNL     1      -1.073  11.540  20.380  0.00  0.00    +0.000 A 
ENDBRANCH  22  25
ENDBRANCH  19  20
ENDBRANCH  18  19
ENDBRANCH  17  18
ENDBRANCH  16  17
ENDBRANCH   1  16
TORSDOF 10
ENDMDL
