MODEL 1
REMARK VINA RESULT:      -7.9      0.000      0.000
REMARK  Name = 
REMARK  9 active torsions:
REMARK  status: ('A' for Active; 'I' for Inactive)
REMARK    1  A    between atoms: C_1  and  O_2
REMARK    2  A    between atoms: O_2  and  C_3
REMARK    3  A    between atoms: C_8  and  O_9
REMARK    4  A    between atoms: O_9  and  C_10
REMARK    5  A    between atoms: N_12  and  N_13
REMARK    6  A    between atoms: N_13  and  C_14
REMARK    7  A    between atoms: C_14  and  N_16
REMARK    8  A    between atoms: N_16  and  C_17
REMARK    9  A    between atoms: C_20  and  N_21
REMARK                            x       y       z     vdW  Elec       q    Type
REMARK                         _______ _______ _______ _____ _____    ______ ____
ROOT
ATOM      1  N   UNL     1       2.854   5.164  20.757  0.00  0.00    +0.000 N 
ATOM      2  H   UNL     1       3.658   5.117  21.371  0.00  0.00    +0.000 HD
ENDROOT
BRANCH   1  10
ATOM      3  C   UNL     1       0.240  10.814  19.599  0.00  0.00    +0.000 A 
ATOM      4  C   UNL     1       1.015  10.289  18.542  0.00  0.00    +0.000 A 
ATOM      5  C   UNL     1       1.607   9.046  18.689  0.00  0.00    +0.000 A 
ATOM      6  C   UNL     1       1.395   8.349  19.862  0.00  0.00    +0.000 A 
ATOM      7  C   UNL     1       0.631   8.816  20.914  0.00  0.00    +0.000 A 
ATOM      8  C   UNL     1       0.030  10.067  20.789  0.00  0.00    +0.000 A 
ATOM      9  C   UNL     1       2.131   7.102  19.809  0.00  0.00    +0.000 C 
ATOM     10  N   UNL     1       2.061   6.254  20.780  0.00  0.00    +0.000 NA
ATOM     11  C   UNL     1       2.941   7.057  18.535  0.00  0.00    +0.000 C 
ATOM     12  C   UNL     1       2.455   8.280  17.724  0.00  0.00    +0.000 C 
BRANCH   3  14
ATOM     13  C   UNL     1      -1.268  12.097  18.283  0.00  0.00    +0.000 C 
ATOM     14  O   UNL     1      -0.289  12.051  19.316  0.00  0.00    +0.000 OA
ENDBRANCH   3  14
BRANCH   8  15
ATOM     15  O   UNL     1      -0.780  10.599  21.756  0.00  0.00    +0.000 OA
ATOM     16  C   UNL     1      -0.573  10.190  23.104  0.00  0.00    +0.000 C 
ENDBRANCH   8  15
ENDBRANCH   1  10
BRANCH   1  17
ATOM     17  C   UNL     1       2.455   4.012  20.107  0.00  0.00    +0.000 C 
ATOM     18  S   UNL     1       0.881   3.486  19.908  0.00  0.00    +0.000 S 
BRANCH  17  19
ATOM     19  N   UNL     1       3.480   3.290  19.540  0.00  0.00    +0.000 N 
ATOM     20  H   UNL     1       3.838   2.532  20.113  0.00  0.00    +0.000 HD
BRANCH  19  21
ATOM     21  C   UNL     1       4.307   3.718  18.482  0.00  0.00    +0.000 A 
ATOM     22  C   UNL     1       3.901   3.649  17.140  0.00  0.00    +0.000 A 
ATOM     23  C   UNL     1       4.731   4.112  16.118  0.00  0.00    +0.000 A 
ATOM     24  C   UNL     1       5.982   4.648  16.444  0.00  0.00    +0.000 A 
ATOM     25  C   UNL     1       6.391   4.741  17.782  0.00  0.00    +0.000 A 
ATOM     26  C   UNL     1       5.540   4.294  18.798  0.00  0.00    +0.000 A 
BRANCH  24  27
ATOM     27  N   UNL     1       6.867   5.124  15.372  0.00  0.00    +0.000 N 
ATOM     28  O   UNL     1       7.692   6.005  15.655  0.00  0.00    +0.000 OA
ATOM     29  O   UNL     1       6.730   4.621  14.249  0.00  0.00    +0.000 OA
ENDBRANCH  24  27
ENDBRANCH  19  21
ENDBRANCH  17  19
ENDBRANCH   1  17
TORSDOF 7
ENDMDL
MODEL 2
REMARK VINA RESULT:      -7.8      0.528      1.072
REMARK  Name = 
REMARK  9 active torsions:
REMARK  status: ('A' for Active; 'I' for Inactive)
REMARK    1  A    between atoms: C_1  and  O_2
REMARK    2  A    between atoms: O_2  and  C_3
REMARK    3  A    between atoms: C_8  and  O_9
REMARK    4  A    between atoms: O_9  and  C_10
REMARK    5  A    between atoms: N_12  and  N_13
REMARK    6  A    between atoms: N_13  and  C_14
REMARK    7  A    between atoms: C_14  and  N_16
REMARK    8  A    between atoms: N_16  and  C_17
REMARK    9  A    between atoms: C_20  and  N_21
REMARK                            x       y       z     vdW  Elec       q    Type
REMARK                         _______ _______ _______ _____ _____    ______ ____
ROOT
ATOM      1  N   UNL     1       2.753   5.344  20.880  0.00  0.00    +0.000 N 
ATOM      2  H   UNL     1       3.521   5.327  21.541  0.00  0.00    +0.000 HD
ENDROOT
BRANCH   1  10
ATOM      3  C   UNL     1       0.255  10.934  19.269  0.00  0.00    +0.000 A 
ATOM      4  C   UNL     1       1.087  10.350  18.290  0.00  0.00    +0.000 A 
ATOM      5  C   UNL     1       1.661   9.114  18.538  0.00  0.00    +0.000 A 
ATOM      6  C   UNL     1       1.373   8.481  19.731  0.00  0.00    +0.000 A 
ATOM      7  C   UNL     1       0.551   9.007  20.709  0.00  0.00    +0.000 A 
ATOM      8  C   UNL     1      -0.032  10.253  20.482  0.00  0.00    +0.000 A 
ATOM      9  C   UNL     1       2.103   7.230  19.789  0.00  0.00    +0.000 C 
ATOM     10  N   UNL     1       1.968   6.436  20.798  0.00  0.00    +0.000 NA
ATOM     11  C   UNL     1       2.987   7.115  18.571  0.00  0.00    +0.000 C 
ATOM     12  C   UNL     1       2.559   8.294  17.668  0.00  0.00    +0.000 C 
BRANCH   3  14
ATOM     13  C   UNL     1       0.651  13.258  18.964  0.00  0.00    +0.000 C 
ATOM     14  O   UNL     1      -0.247  12.156  18.889  0.00  0.00    +0.000 OA
ENDBRANCH   3  14
BRANCH   8  15
ATOM     15  O   UNL     1      -0.895  10.838  21.368  0.00  0.00    +0.000 OA
ATOM     16  C   UNL     1      -0.641  10.675  22.760  0.00  0.00    +0.000 C 
ENDBRANCH   8  15
ENDBRANCH   1  10
BRANCH   1  17
ATOM     17  C   UNL     1       2.384   4.158  20.273  0.00  0.00    +0.000 C 
ATOM     18  S   UNL     1       0.821   3.600  20.068  0.00  0.00    +0.000 S 
BRANCH  17  19
ATOM     19  N   UNL     1       3.429   3.428  19.757  0.00  0.00    +0.000 N 
ATOM     20  H   UNL     1       3.768   2.682  20.357  0.00  0.00    +0.000 HD
BRANCH  19  21
ATOM     21  C   UNL     1       4.293   3.838  18.721  0.00  0.00    +0.000 A 
ATOM     22  C   UNL     1       5.564   4.374  18.976  0.00  0.00    +0.000 A 
ATOM     23  C   UNL     1       6.409   4.739  17.926  0.00  0.00    +0.000 A 
ATOM     24  C   UNL     1       5.974   4.567  16.608  0.00  0.00    +0.000 A 
ATOM     25  C   UNL     1       4.714   4.013  16.339  0.00  0.00    +0.000 A 
ATOM     26  C   UNL     1       3.886   3.631  17.401  0.00  0.00    +0.000 A 
BRANCH  24  27
ATOM     27  N   UNL     1       6.852   4.962  15.499  0.00  0.00    +0.000 N 
ATOM     28  O   UNL     1       7.606   5.931  15.677  0.00  0.00    +0.000 OA
ATOM     29  O   UNL     1       6.780   4.309  14.450  0.00  0.00    +0.000 OA
ENDBRANCH  24  27
ENDBRANCH  19  21
ENDBRANCH  17  19
ENDBRANCH   1  17
TORSDOF 7
ENDMDL
MODEL 3
REMARK VINA RESULT:      -7.5      1.671      3.089
REMARK  Name = 
REMARK  9 active torsions:
REMARK  status: ('A' for Active; 'I' for Inactive)
REMARK    1  A    between atoms: C_1  and  O_2
REMARK    2  A    between atoms: O_2  and  C_3
REMARK    3  A    between atoms: C_8  and  O_9
REMARK    4  A    between atoms: O_9  and  C_10
REMARK    5  A    between atoms: N_12  and  N_13
REMARK    6  A    between atoms: N_13  and  C_14
REMARK    7  A    between atoms: C_14  and  N_16
REMARK    8  A    between atoms: N_16  and  C_17
REMARK    9  A    between atoms: C_20  and  N_21
REMARK                            x       y       z     vdW  Elec       q    Type
REMARK                         _______ _______ _______ _____ _____    ______ ____
ROOT
ATOM      1  N   UNL     1       2.362   7.209  20.477  0.00  0.00    +0.000 N 
ATOM      2  H   UNL     1       2.869   7.310  21.348  0.00  0.00    +0.000 HD
ENDROOT
BRANCH   1  10
ATOM      3  C   UNL     1      -1.820  11.929  19.908  0.00  0.00    +0.000 A 
ATOM      4  C   UNL     1      -1.464  11.606  21.236  0.00  0.00    +0.000 A 
ATOM      5  C   UNL     1      -0.536  10.604  21.464  0.00  0.00    +0.000 A 
ATOM      6  C   UNL     1       0.032   9.971  20.375  0.00  0.00    +0.000 A 
ATOM      7  C   UNL     1      -0.273  10.267  19.061  0.00  0.00    +0.000 A 
ATOM      8  C   UNL     1      -1.209  11.269  18.810  0.00  0.00    +0.000 A 
ATOM      9  C   UNL     1       0.940   8.945  20.847  0.00  0.00    +0.000 C 
ATOM     10  N   UNL     1       1.624   8.237  20.012  0.00  0.00    +0.000 NA
ATOM     11  C   UNL     1       0.866   8.871  22.354  0.00  0.00    +0.000 C 
ATOM     12  C   UNL     1       0.006  10.091  22.760  0.00  0.00    +0.000 C 
BRANCH   3  14
ATOM     13  C   UNL     1      -3.764  12.943  20.827  0.00  0.00    +0.000 C 
ATOM     14  O   UNL     1      -2.747  12.942  19.831  0.00  0.00    +0.000 OA
ENDBRANCH   3  14
BRANCH   8  15
ATOM     15  O   UNL     1      -1.547  11.665  17.544  0.00  0.00    +0.000 OA
ATOM     16  C   UNL     1      -2.667  11.043  16.922  0.00  0.00    +0.000 C 
ENDBRANCH   8  15
ENDBRANCH   1  10
BRANCH   1  17
ATOM     17  C   UNL     1       2.239   5.945  19.930  0.00  0.00    +0.000 C 
ATOM     18  S   UNL     1       2.036   4.519  20.778  0.00  0.00    +0.000 S 
BRANCH  17  19
ATOM     19  N   UNL     1       2.235   5.914  18.555  0.00  0.00    +0.000 N 
ATOM     20  H   UNL     1       1.317   5.821  18.131  0.00  0.00    +0.000 HD
BRANCH  19  21
ATOM     21  C   UNL     1       3.338   5.608  17.731  0.00  0.00    +0.000 A 
ATOM     22  C   UNL     1       3.611   4.300  17.302  0.00  0.00    +0.000 A 
ATOM     23  C   UNL     1       4.692   4.036  16.459  0.00  0.00    +0.000 A 
ATOM     24  C   UNL     1       5.508   5.093  16.043  0.00  0.00    +0.000 A 
ATOM     25  C   UNL     1       5.234   6.408  16.447  0.00  0.00    +0.000 A 
ATOM     26  C   UNL     1       4.134   6.662  17.275  0.00  0.00    +0.000 A 
BRANCH  24  27
ATOM     27  N   UNL     1       6.655   4.821  15.167  0.00  0.00    +0.000 N 
ATOM     28  O   UNL     1       6.539   3.912  14.332  0.00  0.00    +0.000 OA
ATOM     29  O   UNL     1       7.671   5.511  15.321  0.00  0.00    +0.000 OA
ENDBRANCH  24  27
ENDBRANCH  19  21
ENDBRANCH  17  19
ENDBRANCH   1  17
TORSDOF 7
ENDMDL
MODEL 4
REMARK VINA RESULT:      -7.4      1.449      1.917
REMARK  Name = 
REMARK  9 active torsions:
REMARK  status: ('A' for Active; 'I' for Inactive)
REMARK    1  A    between atoms: C_1  and  O_2
REMARK    2  A    between atoms: O_2  and  C_3
REMARK    3  A    between atoms: C_8  and  O_9
REMARK    4  A    between atoms: O_9  and  C_10
REMARK    5  A    between atoms: N_12  and  N_13
REMARK    6  A    between atoms: N_13  and  C_14
REMARK    7  A    between atoms: C_14  and  N_16
REMARK    8  A    between atoms: N_16  and  C_17
REMARK    9  A    between atoms: C_20  and  N_21
REMARK                            x       y       z     vdW  Elec       q    Type
REMARK                         _______ _______ _______ _____ _____    ______ ____
ROOT
ATOM      1  N   UNL     1       2.452   4.803  19.263  0.00  0.00    +0.000 N 
ATOM      2  H   UNL     1       2.045   4.520  18.380  0.00  0.00    +0.000 HD
ENDROOT
BRANCH   1  10
ATOM      3  C   UNL     1       1.051  10.771  20.850  0.00  0.00    +0.000 A 
ATOM      4  C   UNL     1       1.335  10.570  19.482  0.00  0.00    +0.000 A 
ATOM      5  C   UNL     1       1.628   9.294  19.031  0.00  0.00    +0.000 A 
ATOM      6  C   UNL     1       1.605   8.253  19.938  0.00  0.00    +0.000 A 
ATOM      7  C   UNL     1       1.315   8.400  21.281  0.00  0.00    +0.000 A 
ATOM      8  C   UNL     1       1.023   9.678  21.756  0.00  0.00    +0.000 A 
ATOM      9  C   UNL     1       1.972   7.027  19.257  0.00  0.00    +0.000 C 
ATOM     10  N   UNL     1       1.986   5.901  19.890  0.00  0.00    +0.000 NA
ATOM     11  C   UNL     1       2.341   7.344  17.828  0.00  0.00    +0.000 C 
ATOM     12  C   UNL     1       1.948   8.828  17.646  0.00  0.00    +0.000 C 
BRANCH   3  14
ATOM     13  C   UNL     1       1.765  13.037  20.785  0.00  0.00    +0.000 C 
ATOM     14  O   UNL     1       0.776  12.083  21.156  0.00  0.00    +0.000 OA
ENDBRANCH   3  14
BRANCH   8  15
ATOM     15  O   UNL     1       0.681   9.921  23.059  0.00  0.00    +0.000 OA
ATOM     16  C   UNL     1      -0.702   9.947  23.398  0.00  0.00    +0.000 C 
ENDBRANCH   8  15
ENDBRANCH   1  10
BRANCH   1  17
ATOM     17  C   UNL     1       3.632   4.206  19.664  0.00  0.00    +0.000 C 
ATOM     18  S   UNL     1       3.777   2.739  20.453  0.00  0.00    +0.000 S 
BRANCH  17  19
ATOM     19  N   UNL     1       4.771   4.894  19.313  0.00  0.00    +0.000 N 
ATOM     20  H   UNL     1       5.030   5.644  19.946  0.00  0.00    +0.000 HD
BRANCH  19  21
ATOM     21  C   UNL     1       5.354   4.929  18.030  0.00  0.00    +0.000 A 
ATOM     22  C   UNL     1       6.430   5.775  17.720  0.00  0.00    +0.000 A 
ATOM     23  C   UNL     1       7.006   5.761  16.449  0.00  0.00    +0.000 A 
ATOM     24  C   UNL     1       6.498   4.892  15.478  0.00  0.00    +0.000 A 
ATOM     25  C   UNL     1       5.436   4.026  15.780  0.00  0.00    +0.000 A 
ATOM     26  C   UNL     1       4.882   4.035  17.065  0.00  0.00    +0.000 A 
BRANCH  24  27
ATOM     27  N   UNL     1       7.090   4.882  14.134  0.00  0.00    +0.000 N 
ATOM     28  O   UNL     1       6.596   4.117  13.292  0.00  0.00    +0.000 OA
ATOM     29  O   UNL     1       8.051   5.634  13.925  0.00  0.00    +0.000 OA
ENDBRANCH  24  27
ENDBRANCH  19  21
ENDBRANCH  17  19
ENDBRANCH   1  17
TORSDOF 7
ENDMDL
MODEL 5
REMARK VINA RESULT:      -7.4      1.359      1.508
REMARK  Name = 
REMARK  9 active torsions:
REMARK  status: ('A' for Active; 'I' for Inactive)
REMARK    1  A    between atoms: C_1  and  O_2
REMARK    2  A    between atoms: O_2  and  C_3
REMARK    3  A    between atoms: C_8  and  O_9
REMARK    4  A    between atoms: O_9  and  C_10
REMARK    5  A    between atoms: N_12  and  N_13
REMARK    6  A    between atoms: N_13  and  C_14
REMARK    7  A    between atoms: C_14  and  N_16
REMARK    8  A    between atoms: N_16  and  C_17
REMARK    9  A    between atoms: C_20  and  N_21
REMARK                            x       y       z     vdW  Elec       q    Type
REMARK                         _______ _______ _______ _____ _____    ______ ____
ROOT
ATOM      1  N   UNL     1       2.407   4.976  19.318  0.00  0.00    +0.000 N 
ATOM      2  H   UNL     1       2.135   4.775  18.363  0.00  0.00    +0.000 HD
ENDROOT
BRANCH   1  10
ATOM      3  C   UNL     1       0.982  10.944  20.881  0.00  0.00    +0.000 A 
ATOM      4  C   UNL     1       1.318  10.748  19.523  0.00  0.00    +0.000 A 
ATOM      5  C   UNL     1       1.621   9.473  19.078  0.00  0.00    +0.000 A 
ATOM      6  C   UNL     1       1.555   8.427  19.977  0.00  0.00    +0.000 A 
ATOM      7  C   UNL     1       1.214   8.570  21.308  0.00  0.00    +0.000 A 
ATOM      8  C   UNL     1       0.911   9.846  21.779  0.00  0.00    +0.000 A 
ATOM      9  C   UNL     1       1.942   7.202  19.305  0.00  0.00    +0.000 C 
ATOM     10  N   UNL     1       1.923   6.073  19.932  0.00  0.00    +0.000 NA
ATOM     11  C   UNL     1       2.369   7.524  17.893  0.00  0.00    +0.000 C 
ATOM     12  C   UNL     1       1.993   9.012  17.704  0.00  0.00    +0.000 C 
BRANCH   3  14
ATOM     13  C   UNL     1       1.689  13.212  20.806  0.00  0.00    +0.000 C 
ATOM     14  O   UNL     1       0.703  12.256  21.182  0.00  0.00    +0.000 OA
ENDBRANCH   3  14
BRANCH   8  15
ATOM     15  O   UNL     1       0.520  10.085  23.069  0.00  0.00    +0.000 OA
ATOM     16  C   UNL     1      -0.875  10.146  23.347  0.00  0.00    +0.000 C 
ENDBRANCH   8  15
ENDBRANCH   1  10
BRANCH   1  17
ATOM     17  C   UNL     1       3.455   4.261  19.867  0.00  0.00    +0.000 C 
ATOM     18  S   UNL     1       3.326   2.885  20.807  0.00  0.00    +0.000 S 
BRANCH  17  19
ATOM     19  N   UNL     1       4.705   4.733  19.537  0.00  0.00    +0.000 N 
ATOM     20  H   UNL     1       5.104   5.388  20.202  0.00  0.00    +0.000 HD
BRANCH  19  21
ATOM     21  C   UNL     1       5.283   4.716  18.252  0.00  0.00    +0.000 A 
ATOM     22  C   UNL     1       4.779   3.916  17.215  0.00  0.00    +0.000 A 
ATOM     23  C   UNL     1       5.355   3.948  15.943  0.00  0.00    +0.000 A 
ATOM     24  C   UNL     1       6.448   4.788  15.710  0.00  0.00    +0.000 A 
ATOM     25  C   UNL     1       6.950   5.608  16.731  0.00  0.00    +0.000 A 
ATOM     26  C   UNL     1       6.349   5.583  17.995  0.00  0.00    +0.000 A 
BRANCH  24  27
ATOM     27  N   UNL     1       7.068   4.816  14.378  0.00  0.00    +0.000 N 
ATOM     28  O   UNL     1       7.996   5.618  14.191  0.00  0.00    +0.000 OA
ATOM     29  O   UNL     1       6.622   4.042  13.522  0.00  0.00    +0.000 OA
ENDBRANCH  24  27
ENDBRANCH  19  21
ENDBRANCH  17  19
ENDBRANCH   1  17
TORSDOF 7
ENDMDL
MODEL 6
REMARK VINA RESULT:      -7.4      1.645      3.099
REMARK  Name = 
REMARK  9 active torsions:
REMARK  status: ('A' for Active; 'I' for Inactive)
REMARK    1  A    between atoms: C_1  and  O_2
REMARK    2  A    between atoms: O_2  and  C_3
REMARK    3  A    between atoms: C_8  and  O_9
REMARK    4  A    between atoms: O_9  and  C_10
REMARK    5  A    between atoms: N_12  and  N_13
REMARK    6  A    between atoms: N_13  and  C_14
REMARK    7  A    between atoms: C_14  and  N_16
REMARK    8  A    between atoms: N_16  and  C_17
REMARK    9  A    between atoms: C_20  and  N_21
REMARK                            x       y       z     vdW  Elec       q    Type
REMARK                         _______ _______ _______ _____ _____    ______ ____
ROOT
ATOM      1  N   UNL     1       2.177   7.093  20.350  0.00  0.00    +0.000 N 
ATOM      2  H   UNL     1       2.710   7.132  21.211  0.00  0.00    +0.000 HD
ENDROOT
BRANCH   1  10
ATOM      3  C   UNL     1      -1.747  12.055  20.093  0.00  0.00    +0.000 A 
ATOM      4  C   UNL     1      -1.360  11.670  21.395  0.00  0.00    +0.000 A 
ATOM      5  C   UNL     1      -0.483  10.611  21.555  0.00  0.00    +0.000 A 
ATOM      6  C   UNL     1       0.007   9.983  20.426  0.00  0.00    +0.000 A 
ATOM      7  C   UNL     1      -0.331  10.338  19.134  0.00  0.00    +0.000 A 
ATOM      8  C   UNL     1      -1.217  11.399  18.951  0.00  0.00    +0.000 A 
ATOM      9  C   UNL     1       0.871   8.893  20.830  0.00  0.00    +0.000 C 
ATOM     10  N   UNL     1       1.482   8.175  19.947  0.00  0.00    +0.000 NA
ATOM     11  C   UNL     1       0.850   8.774  22.335  0.00  0.00    +0.000 C 
ATOM     12  C   UNL     1       0.078  10.026  22.812  0.00  0.00    +0.000 C 
BRANCH   3  14
ATOM     13  C   UNL     1      -2.167  14.308  20.728  0.00  0.00    +0.000 C 
ATOM     14  O   UNL     1      -2.617  13.121  20.083  0.00  0.00    +0.000 OA
ENDBRANCH   3  14
BRANCH   8  15
ATOM     15  O   UNL     1      -1.579  11.854  17.712  0.00  0.00    +0.000 OA
ATOM     16  C   UNL     1      -2.351  10.994  16.880  0.00  0.00    +0.000 C 
ENDBRANCH   8  15
ENDBRANCH   1  10
BRANCH   1  17
ATOM     17  C   UNL     1       1.976   5.861  19.756  0.00  0.00    +0.000 C 
ATOM     18  S   UNL     1       1.434   4.476  20.518  0.00  0.00    +0.000 S 
BRANCH  17  19
ATOM     19  N   UNL     1       2.206   5.834  18.400  0.00  0.00    +0.000 N 
ATOM     20  H   UNL     1       1.386   5.654  17.830  0.00  0.00    +0.000 HD
BRANCH  19  21
ATOM     21  C   UNL     1       3.455   5.639  17.776  0.00  0.00    +0.000 A 
ATOM     22  C   UNL     1       4.367   6.689  17.585  0.00  0.00    +0.000 A 
ATOM     23  C   UNL     1       5.610   6.456  16.994  0.00  0.00    +0.000 A 
ATOM     24  C   UNL     1       5.941   5.159  16.588  0.00  0.00    +0.000 A 
ATOM     25  C   UNL     1       5.047   4.097  16.791  0.00  0.00    +0.000 A 
ATOM     26  C   UNL     1       3.814   4.341  17.405  0.00  0.00    +0.000 A 
BRANCH  24  27
ATOM     27  N   UNL     1       7.242   4.909  15.952  0.00  0.00    +0.000 N 
ATOM     28  O   UNL     1       7.447   5.421  14.841  0.00  0.00    +0.000 OA
ATOM     29  O   UNL     1       8.051   4.197  16.560  0.00  0.00    +0.000 OA
ENDBRANCH  24  27
ENDBRANCH  19  21
ENDBRANCH  17  19
ENDBRANCH   1  17
TORSDOF 7
ENDMDL
MODEL 7
REMARK VINA RESULT:      -7.4      2.846      8.235
REMARK  Name = 
REMARK  9 active torsions:
REMARK  status: ('A' for Active; 'I' for Inactive)
REMARK    1  A    between atoms: C_1  and  O_2
REMARK    2  A    between atoms: O_2  and  C_3
REMARK    3  A    between atoms: C_8  and  O_9
REMARK    4  A    between atoms: O_9  and  C_10
REMARK    5  A    between atoms: N_12  and  N_13
REMARK    6  A    between atoms: N_13  and  C_14
REMARK    7  A    between atoms: C_14  and  N_16
REMARK    8  A    between atoms: N_16  and  C_17
REMARK    9  A    between atoms: C_20  and  N_21
REMARK                            x       y       z     vdW  Elec       q    Type
REMARK                         _______ _______ _______ _____ _____    ______ ____
ROOT
ATOM      1  N   UNL     1       1.493   7.535  20.873  0.00  0.00    +0.000 N 
ATOM      2  H   UNL     1       1.310   6.821  21.568  0.00  0.00    +0.000 HD
ENDROOT
BRANCH   1  10
ATOM      3  C   UNL     1       5.135   4.657  16.567  0.00  0.00    +0.000 A 
ATOM      4  C   UNL     1       4.066   3.877  17.058  0.00  0.00    +0.000 A 
ATOM      5  C   UNL     1       3.197   4.427  17.985  0.00  0.00    +0.000 A 
ATOM      6  C   UNL     1       3.393   5.736  18.377  0.00  0.00    +0.000 A 
ATOM      7  C   UNL     1       4.415   6.541  17.910  0.00  0.00    +0.000 A 
ATOM      8  C   UNL     1       5.304   6.005  16.980  0.00  0.00    +0.000 A 
ATOM      9  C   UNL     1       2.396   6.086  19.369  0.00  0.00    +0.000 C 
ATOM     10  N   UNL     1       2.349   7.278  19.864  0.00  0.00    +0.000 NA
ATOM     11  C   UNL     1       1.563   4.868  19.687  0.00  0.00    +0.000 C 
ATOM     12  C   UNL     1       1.998   3.817  18.640  0.00  0.00    +0.000 C 
BRANCH   3  14
ATOM     13  C   UNL     1       5.634   4.239  14.280  0.00  0.00    +0.000 C 
ATOM     14  O   UNL     1       5.914   3.986  15.653  0.00  0.00    +0.000 OA
ENDBRANCH   3  14
BRANCH   8  15
ATOM     15  O   UNL     1       6.321   6.733  16.425  0.00  0.00    +0.000 OA
ATOM     16  C   UNL     1       7.368   7.184  17.279  0.00  0.00    +0.000 C 
ENDBRANCH   8  15
ENDBRANCH   1  10
BRANCH   1  17
ATOM     17  C   UNL     1       1.061   8.824  21.123  0.00  0.00    +0.000 C 
ATOM     18  S   UNL     1       0.571   9.430  22.603  0.00  0.00    +0.000 S 
BRANCH  17  19
ATOM     19  N   UNL     1       1.105   9.665  20.036  0.00  0.00    +0.000 N 
ATOM     20  H   UNL     1       1.940  10.238  19.972  0.00  0.00    +0.000 HD
BRANCH  19  21
ATOM     21  C   UNL     1      -0.001  10.083  19.268  0.00  0.00    +0.000 A 
ATOM     22  C   UNL     1      -0.268   9.559  17.994  0.00  0.00    +0.000 A 
ATOM     23  C   UNL     1      -1.391   9.970  17.273  0.00  0.00    +0.000 A 
ATOM     24  C   UNL     1      -2.253  10.918  17.834  0.00  0.00    +0.000 A 
ATOM     25  C   UNL     1      -2.009  11.435  19.115  0.00  0.00    +0.000 A 
ATOM     26  C   UNL     1      -0.892  10.998  19.836  0.00  0.00    +0.000 A 
BRANCH  24  27
ATOM     27  N   UNL     1      -3.428  11.366  17.075  0.00  0.00    +0.000 N 
ATOM     28  O   UNL     1      -3.391  11.261  15.840  0.00  0.00    +0.000 OA
ATOM     29  O   UNL     1      -4.382  11.828  17.715  0.00  0.00    +0.000 OA
ENDBRANCH  24  27
ENDBRANCH  19  21
ENDBRANCH  17  19
ENDBRANCH   1  17
TORSDOF 7
ENDMDL
MODEL 8
REMARK VINA RESULT:      -7.4      1.291      1.588
REMARK  Name = 
REMARK  9 active torsions:
REMARK  status: ('A' for Active; 'I' for Inactive)
REMARK    1  A    between atoms: C_1  and  O_2
REMARK    2  A    between atoms: O_2  and  C_3
REMARK    3  A    between atoms: C_8  and  O_9
REMARK    4  A    between atoms: O_9  and  C_10
REMARK    5  A    between atoms: N_12  and  N_13
REMARK    6  A    between atoms: N_13  and  C_14
REMARK    7  A    between atoms: C_14  and  N_16
REMARK    8  A    between atoms: N_16  and  C_17
REMARK    9  A    between atoms: C_20  and  N_21
REMARK                            x       y       z     vdW  Elec       q    Type
REMARK                         _______ _______ _______ _____ _____    ______ ____
ROOT
ATOM      1  N   UNL     1       1.971   4.541  19.632  0.00  0.00    +0.000 N 
ATOM      2  H   UNL     1       1.944   4.417  18.627  0.00  0.00    +0.000 HD
ENDROOT
BRANCH   1  10
ATOM      3  C   UNL     1       1.206  10.706  20.851  0.00  0.00    +0.000 A 
ATOM      4  C   UNL     1       1.589  10.405  19.526  0.00  0.00    +0.000 A 
ATOM      5  C   UNL     1       1.756   9.082  19.154  0.00  0.00    +0.000 A 
ATOM      6  C   UNL     1       1.515   8.097  20.092  0.00  0.00    +0.000 A 
ATOM      7  C   UNL     1       1.122   8.346  21.393  0.00  0.00    +0.000 A 
ATOM      8  C   UNL     1       0.952   9.671  21.790  0.00  0.00    +0.000 A 
ATOM      9  C   UNL     1       1.784   6.803  19.497  0.00  0.00    +0.000 C 
ATOM     10  N   UNL     1       1.593   5.718  20.169  0.00  0.00    +0.000 NA
ATOM     11  C   UNL     1       2.323   7.001  18.101  0.00  0.00    +0.000 C 
ATOM     12  C   UNL     1       2.143   8.512  17.826  0.00  0.00    +0.000 C 
BRANCH   3  14
ATOM     13  C   UNL     1       1.691  12.919  20.130  0.00  0.00    +0.000 C 
ATOM     14  O   UNL     1       1.074  12.056  21.080  0.00  0.00    +0.000 OA
ENDBRANCH   3  14
BRANCH   8  15
ATOM     15  O   UNL     1       0.525  10.019  23.042  0.00  0.00    +0.000 OA
ATOM     16  C   UNL     1      -0.876  10.157  23.260  0.00  0.00    +0.000 C 
ENDBRANCH   8  15
ENDBRANCH   1  10
BRANCH   1  17
ATOM     17  C   UNL     1       2.631   3.594  20.394  0.00  0.00    +0.000 C 
ATOM     18  S   UNL     1       2.064   2.890  21.800  0.00  0.00    +0.000 S 
BRANCH  17  19
ATOM     19  N   UNL     1       3.839   3.185  19.879  0.00  0.00    +0.000 N 
ATOM     20  H   UNL     1       4.318   2.474  20.423  0.00  0.00    +0.000 HD
BRANCH  19  21
ATOM     21  C   UNL     1       4.625   3.894  18.948  0.00  0.00    +0.000 A 
ATOM     22  C   UNL     1       5.520   4.902  19.339  0.00  0.00    +0.000 A 
ATOM     23  C   UNL     1       6.308   5.562  18.395  0.00  0.00    +0.000 A 
ATOM     24  C   UNL     1       6.197   5.211  17.045  0.00  0.00    +0.000 A 
ATOM     25  C   UNL     1       5.322   4.191  16.644  0.00  0.00    +0.000 A 
ATOM     26  C   UNL     1       4.553   3.522  17.603  0.00  0.00    +0.000 A 
BRANCH  24  27
ATOM     27  N   UNL     1       7.013   5.911  16.045  0.00  0.00    +0.000 N 
ATOM     28  O   UNL     1       7.701   6.869  16.431  0.00  0.00    +0.000 OA
ATOM     29  O   UNL     1       6.960   5.507  14.877  0.00  0.00    +0.000 OA
ENDBRANCH  24  27
ENDBRANCH  19  21
ENDBRANCH  17  19
ENDBRANCH   1  17
TORSDOF 7
ENDMDL
MODEL 9
REMARK VINA RESULT:      -7.4      3.864      8.196
REMARK  Name = 
REMARK  9 active torsions:
REMARK  status: ('A' for Active; 'I' for Inactive)
REMARK    1  A    between atoms: C_1  and  O_2
REMARK    2  A    between atoms: O_2  and  C_3
REMARK    3  A    between atoms: C_8  and  O_9
REMARK    4  A    between atoms: O_9  and  C_10
REMARK    5  A    between atoms: N_12  and  N_13
REMARK    6  A    between atoms: N_13  and  C_14
REMARK    7  A    between atoms: C_14  and  N_16
REMARK    8  A    between atoms: N_16  and  C_17
REMARK    9  A    between atoms: C_20  and  N_21
REMARK                            x       y       z     vdW  Elec       q    Type
REMARK                         _______ _______ _______ _____ _____    ______ ____
ROOT
ATOM      1  N   UNL     1       1.562   9.475  21.148  0.00  0.00    +0.000 N 
ATOM      2  H   UNL     1       2.347  10.043  20.854  0.00  0.00    +0.000 HD
ENDROOT
BRANCH   1  10
ATOM      3  C   UNL     1       1.900   3.652  18.686  0.00  0.00    +0.000 A 
ATOM      4  C   UNL     1       2.430   4.674  17.870  0.00  0.00    +0.000 A 
ATOM      5  C   UNL     1       2.426   5.980  18.331  0.00  0.00    +0.000 A 
ATOM      6  C   UNL     1       1.925   6.232  19.593  0.00  0.00    +0.000 A 
ATOM      7  C   UNL     1       1.413   5.260  20.432  0.00  0.00    +0.000 A 
ATOM      8  C   UNL     1       1.403   3.940  19.984  0.00  0.00    +0.000 A 
ATOM      9  C   UNL     1       1.988   7.657  19.850  0.00  0.00    +0.000 C 
ATOM     10  N   UNL     1       1.609   8.138  20.986  0.00  0.00    +0.000 NA
ATOM     11  C   UNL     1       2.487   8.362  18.612  0.00  0.00    +0.000 C 
ATOM     12  C   UNL     1       2.932   7.221  17.668  0.00  0.00    +0.000 C 
BRANCH   3  14
ATOM     13  C   UNL     1       3.272   1.840  17.987  0.00  0.00    +0.000 C 
ATOM     14  O   UNL     1       1.972   2.408  18.104  0.00  0.00    +0.000 OA
ENDBRANCH   3  14
BRANCH   8  15
ATOM     15  O   UNL     1       0.958   2.901  20.756  0.00  0.00    +0.000 OA
ATOM     16  C   UNL     1       1.735   2.524  21.888  0.00  0.00    +0.000 C 
ENDBRANCH   8  15
ENDBRANCH   1  10
BRANCH   1  17
ATOM     17  C   UNL     1       0.375  10.109  21.465  0.00  0.00    +0.000 C 
ATOM     18  S   UNL     1      -0.614   9.756  22.766  0.00  0.00    +0.000 S 
BRANCH  17  19
ATOM     19  N   UNL     1       0.045  11.156  20.637  0.00  0.00    +0.000 N 
ATOM     20  H   UNL     1       0.304  12.075  20.984  0.00  0.00    +0.000 HD
BRANCH  19  21
ATOM     21  C   UNL     1      -0.918  11.126  19.608  0.00  0.00    +0.000 A 
ATOM     22  C   UNL     1      -0.781  10.302  18.480  0.00  0.00    +0.000 A 
ATOM     23  C   UNL     1      -1.770  10.270  17.495  0.00  0.00    +0.000 A 
ATOM     24  C   UNL     1      -2.906  11.074  17.640  0.00  0.00    +0.000 A 
ATOM     25  C   UNL     1      -3.065  11.886  18.773  0.00  0.00    +0.000 A 
ATOM     26  C   UNL     1      -2.076  11.892  19.764  0.00  0.00    +0.000 A 
BRANCH  24  27
ATOM     27  N   UNL     1      -3.943  11.057  16.601  0.00  0.00    +0.000 N 
ATOM     28  O   UNL     1      -5.070  11.477  16.904  0.00  0.00    +0.000 OA
ATOM     29  O   UNL     1      -3.631  10.617  15.486  0.00  0.00    +0.000 OA
ENDBRANCH  24  27
ENDBRANCH  19  21
ENDBRANCH  17  19
ENDBRANCH   1  17
TORSDOF 7
ENDMDL
