MODEL 1
REMARK VINA RESULT:      -7.6      0.000      0.000
REMARK  Name = 
REMARK  3 active torsions:
REMARK  status: ('A' for Active; 'I' for Inactive)
REMARK    1  A    between atoms: N_12  and  C_13
REMARK    2  A    between atoms: C_13  and  S_14
REMARK    3  A    between atoms: S_14  and  C_15
REMARK                            x       y       z     vdW  Elec       q    Type
REMARK                         _______ _______ _______ _____ _____    ______ ____
ROOT
ATOM      1  O   UNL     1       3.868   7.090  16.957  0.00  0.00    +0.000 OA
ATOM      2  C   UNL     1       3.360   6.961  18.070  0.00  0.00    +0.000 A 
ATOM      3  C   UNL     1       2.420   7.991  18.556  0.00  0.00    +0.000 A 
ATOM      4  C   UNL     1       2.135   9.116  17.771  0.00  0.00    +0.000 A 
ATOM      5  C   UNL     1       1.227  10.068  18.226  0.00  0.00    +0.000 A 
ATOM      6  C   UNL     1       0.627   9.904  19.472  0.00  0.00    +0.000 A 
ATOM      7  C   UNL     1       0.925   8.781  20.254  0.00  0.00    +0.000 A 
ATOM      8 CL   UNL     1       0.156   8.651  21.801  0.00  0.00    +0.000 Cl
ATOM      9  C   UNL     1       1.812   7.793  19.798  0.00  0.00    +0.000 A 
ATOM     10  N   UNL     1       2.052   6.627  20.550  0.00  0.00    +0.000 NA
ATOM     11  C   UNL     1       2.890   5.762  20.085  0.00  0.00    +0.000 A 
ATOM     12  N   UNL     1       3.588   5.884  18.906  0.00  0.00    +0.000 N 
ENDROOT
BRANCH  12  13
ATOM     13  C   UNL     1       4.440   4.793  18.459  0.00  0.00    +0.000 C 
BRANCH  13  14
ATOM     14  S   UNL     1       6.185   5.202  18.176  0.00  0.00    +0.000 S 
BRANCH  14  15
ATOM     15  C   UNL     1       6.408   4.798  16.495  0.00  0.00    +0.000 A 
ATOM     16  N   UNL     1       7.286   5.419  15.749  0.00  0.00    +0.000 NA
ATOM     17  C   UNL     1       7.173   4.982  14.439  0.00  0.00    +0.000 A 
ATOM     18  C   UNL     1       7.914   5.479  13.348  0.00  0.00    +0.000 A 
ATOM     19  C   UNL     1       7.701   4.952  12.072  0.00  0.00    +0.000 A 
ATOM     20  C   UNL     1       6.755   3.951  11.868  0.00  0.00    +0.000 A 
ATOM     21  C   UNL     1       6.000   3.450  12.935  0.00  0.00    +0.000 A 
ATOM     22  C   UNL     1       6.232   3.975  14.218  0.00  0.00    +0.000 A 
ATOM     23  S   UNL     1       5.485   3.581  15.718  0.00  0.00    +0.000 S 
ENDBRANCH  14  15
ENDBRANCH  13  14
ENDBRANCH  12  13
TORSDOF 3
ENDMDL
MODEL 2
REMARK VINA RESULT:      -7.4      4.280      8.492
REMARK  Name = 
REMARK  3 active torsions:
REMARK  status: ('A' for Active; 'I' for Inactive)
REMARK    1  A    between atoms: N_12  and  C_13
REMARK    2  A    between atoms: C_13  and  S_14
REMARK    3  A    between atoms: S_14  and  C_15
REMARK                            x       y       z     vdW  Elec       q    Type
REMARK                         _______ _______ _______ _____ _____    ______ ____
ROOT
ATOM      1  O   UNL     1       1.637   5.774  20.722  0.00  0.00    +0.000 OA
ATOM      2  C   UNL     1       2.228   6.279  19.769  0.00  0.00    +0.000 A 
ATOM      3  C   UNL     1       3.062   5.421  18.903  0.00  0.00    +0.000 A 
ATOM      4  C   UNL     1       3.203   4.056  19.184  0.00  0.00    +0.000 A 
ATOM      5  C   UNL     1       3.970   3.251  18.346  0.00  0.00    +0.000 A 
ATOM      6  C   UNL     1       4.612   3.818  17.248  0.00  0.00    +0.000 A 
ATOM      7  C   UNL     1       4.472   5.185  16.980  0.00  0.00    +0.000 A 
ATOM      8 CL   UNL     1       5.313   5.826  15.607  0.00  0.00    +0.000 Cl
ATOM      9  C   UNL     1       3.676   6.007  17.793  0.00  0.00    +0.000 A 
ATOM     10  N   UNL     1       3.474   7.365  17.480  0.00  0.00    +0.000 NA
ATOM     11  C   UNL     1       2.743   8.073  18.274  0.00  0.00    +0.000 A 
ATOM     12  N   UNL     1       2.142   7.614  19.424  0.00  0.00    +0.000 N 
ENDROOT
BRANCH  12  13
ATOM     13  C   UNL     1       1.276   8.501  20.183  0.00  0.00    +0.000 C 
BRANCH  13  14
ATOM     14  S   UNL     1       1.299  10.251  19.704  0.00  0.00    +0.000 S 
BRANCH  14  15
ATOM     15  C   UNL     1      -0.265  10.469  18.964  0.00  0.00    +0.000 A 
ATOM     16  N   UNL     1      -0.576   9.895  17.829  0.00  0.00    +0.000 NA
ATOM     17  C   UNL     1      -1.826  10.328  17.418  0.00  0.00    +0.000 A 
ATOM     18  C   UNL     1      -2.454   9.969  16.208  0.00  0.00    +0.000 A 
ATOM     19  C   UNL     1      -3.720  10.481  15.910  0.00  0.00    +0.000 A 
ATOM     20  C   UNL     1      -4.357  11.350  16.791  0.00  0.00    +0.000 A 
ATOM     21  C   UNL     1      -3.747  11.728  17.993  0.00  0.00    +0.000 A 
ATOM     22  C   UNL     1      -2.481  11.197  18.292  0.00  0.00    +0.000 A 
ATOM     23  S   UNL     1      -1.476  11.457  19.666  0.00  0.00    +0.000 S 
ENDBRANCH  14  15
ENDBRANCH  13  14
ENDBRANCH  12  13
TORSDOF 3
ENDMDL
MODEL 3
REMARK VINA RESULT:      -7.4      0.934      1.374
REMARK  Name = 
REMARK  3 active torsions:
REMARK  status: ('A' for Active; 'I' for Inactive)
REMARK    1  A    between atoms: N_12  and  C_13
REMARK    2  A    between atoms: C_13  and  S_14
REMARK    3  A    between atoms: S_14  and  C_15
REMARK                            x       y       z     vdW  Elec       q    Type
REMARK                         _______ _______ _______ _____ _____    ______ ____
ROOT
ATOM      1  O   UNL     1       3.495   6.947  17.073  0.00  0.00    +0.000 OA
ATOM      2  C   UNL     1       2.975   6.869  18.185  0.00  0.00    +0.000 A 
ATOM      3  C   UNL     1       2.244   8.035  18.721  0.00  0.00    +0.000 A 
ATOM      4  C   UNL     1       2.172   9.225  17.984  0.00  0.00    +0.000 A 
ATOM      5  C   UNL     1       1.457  10.309  18.486  0.00  0.00    +0.000 A 
ATOM      6  C   UNL     1       0.841  10.209  19.731  0.00  0.00    +0.000 A 
ATOM      7  C   UNL     1       0.927   9.019  20.464  0.00  0.00    +0.000 A 
ATOM      8 CL   UNL     1       0.151   8.971  22.012  0.00  0.00    +0.000 Cl
ATOM      9  C   UNL     1       1.613   7.903  19.960  0.00  0.00    +0.000 A 
ATOM     10  N   UNL     1       1.634   6.683  20.662  0.00  0.00    +0.000 NA
ATOM     11  C   UNL     1       2.295   5.697  20.155  0.00  0.00    +0.000 A 
ATOM     12  N   UNL     1       3.001   5.735  18.975  0.00  0.00    +0.000 N 
ENDROOT
BRANCH  12  13
ATOM     13  C   UNL     1       3.634   4.525  18.477  0.00  0.00    +0.000 C 
BRANCH  13  14
ATOM     14  S   UNL     1       5.446   4.481  18.543  0.00  0.00    +0.000 S 
BRANCH  14  15
ATOM     15  C   UNL     1       5.897   4.586  16.862  0.00  0.00    +0.000 A 
ATOM     16  N   UNL     1       5.277   3.894  15.939  0.00  0.00    +0.000 NA
ATOM     17  C   UNL     1       5.908   4.079  14.719  0.00  0.00    +0.000 A 
ATOM     18  C   UNL     1       5.555   3.438  13.515  0.00  0.00    +0.000 A 
ATOM     19  C   UNL     1       6.278   3.711  12.351  0.00  0.00    +0.000 A 
ATOM     20  C   UNL     1       7.350   4.598  12.375  0.00  0.00    +0.000 A 
ATOM     21  C   UNL     1       7.725   5.238  13.562  0.00  0.00    +0.000 A 
ATOM     22  C   UNL     1       6.983   4.969  14.725  0.00  0.00    +0.000 A 
ATOM     23  S   UNL     1       7.181   5.583  16.322  0.00  0.00    +0.000 S 
ENDBRANCH  14  15
ENDBRANCH  13  14
ENDBRANCH  12  13
TORSDOF 3
ENDMDL
MODEL 4
REMARK VINA RESULT:      -7.4      4.299      8.254
REMARK  Name = 
REMARK  3 active torsions:
REMARK  status: ('A' for Active; 'I' for Inactive)
REMARK    1  A    between atoms: N_12  and  C_13
REMARK    2  A    between atoms: C_13  and  S_14
REMARK    3  A    between atoms: S_14  and  C_15
REMARK                            x       y       z     vdW  Elec       q    Type
REMARK                         _______ _______ _______ _____ _____    ______ ____
ROOT
ATOM      1  O   UNL     1       3.710   7.272  17.145  0.00  0.00    +0.000 OA
ATOM      2  C   UNL     1       3.107   6.912  18.155  0.00  0.00    +0.000 A 
ATOM      3  C   UNL     1       3.366   5.567  18.707  0.00  0.00    +0.000 A 
ATOM      4  C   UNL     1       4.263   4.700  18.069  0.00  0.00    +0.000 A 
ATOM      5  C   UNL     1       4.520   3.445  18.612  0.00  0.00    +0.000 A 
ATOM      6  C   UNL     1       3.861   3.051  19.774  0.00  0.00    +0.000 A 
ATOM      7  C   UNL     1       2.959   3.921  20.400  0.00  0.00    +0.000 A 
ATOM      8 CL   UNL     1       2.163   3.359  21.832  0.00  0.00    +0.000 Cl
ATOM      9  C   UNL     1       2.712   5.204  19.887  0.00  0.00    +0.000 A 
ATOM     10  N   UNL     1       1.864   6.106  20.558  0.00  0.00    +0.000 NA
ATOM     11  C   UNL     1       1.665   7.266  20.029  0.00  0.00    +0.000 A 
ATOM     12  N   UNL     1       2.208   7.704  18.843  0.00  0.00    +0.000 N 
ENDROOT
BRANCH  12  13
ATOM     13  C   UNL     1       1.965   9.068  18.403  0.00  0.00    +0.000 C 
BRANCH  13  14
ATOM     14  S   UNL     1       1.103  10.149  19.579  0.00  0.00    +0.000 S 
BRANCH  14  15
ATOM     15  C   UNL     1      -0.441  10.404  18.809  0.00  0.00    +0.000 A 
ATOM     16  N   UNL     1      -0.737   9.847  17.662  0.00  0.00    +0.000 NA
ATOM     17  C   UNL     1      -1.971  10.307  17.229  0.00  0.00    +0.000 A 
ATOM     18  C   UNL     1      -2.580   9.973  16.002  0.00  0.00    +0.000 A 
ATOM     19  C   UNL     1      -3.829  10.510  15.683  0.00  0.00    +0.000 A 
ATOM     20  C   UNL     1      -4.469  11.381  16.560  0.00  0.00    +0.000 A 
ATOM     21  C   UNL     1      -3.879  11.735  17.778  0.00  0.00    +0.000 A 
ATOM     22  C   UNL     1      -2.629  11.178  18.098  0.00  0.00    +0.000 A 
ATOM     23  S   UNL     1      -1.649  11.406  19.496  0.00  0.00    +0.000 S 
ENDBRANCH  14  15
ENDBRANCH  13  14
ENDBRANCH  12  13
TORSDOF 3
ENDMDL
MODEL 5
REMARK VINA RESULT:      -7.3      3.072      7.909
REMARK  Name = 
REMARK  3 active torsions:
REMARK  status: ('A' for Active; 'I' for Inactive)
REMARK    1  A    between atoms: N_12  and  C_13
REMARK    2  A    between atoms: C_13  and  S_14
REMARK    3  A    between atoms: S_14  and  C_15
REMARK                            x       y       z     vdW  Elec       q    Type
REMARK                         _______ _______ _______ _____ _____    ______ ____
ROOT
ATOM      1  O   UNL     1       7.667   6.242  16.392  0.00  0.00    +0.000 OA
ATOM      2  C   UNL     1       6.935   5.365  15.934  0.00  0.00    +0.000 A 
ATOM      3  C   UNL     1       7.029   5.026  14.500  0.00  0.00    +0.000 A 
ATOM      4  C   UNL     1       7.918   5.716  13.666  0.00  0.00    +0.000 A 
ATOM      5  C   UNL     1       8.018   5.370  12.321  0.00  0.00    +0.000 A 
ATOM      6  C   UNL     1       7.212   4.355  11.811  0.00  0.00    +0.000 A 
ATOM      7  C   UNL     1       6.320   3.676  12.651  0.00  0.00    +0.000 A 
ATOM      8 CL   UNL     1       5.337   2.437  11.945  0.00  0.00    +0.000 Cl
ATOM      9  C   UNL     1       6.229   3.987  14.017  0.00  0.00    +0.000 A 
ATOM     10  N   UNL     1       5.388   3.254  14.876  0.00  0.00    +0.000 NA
ATOM     11  C   UNL     1       5.336   3.596  16.119  0.00  0.00    +0.000 A 
ATOM     12  N   UNL     1       6.032   4.638  16.687  0.00  0.00    +0.000 N 
ENDROOT
BRANCH  12  13
ATOM     13  C   UNL     1       5.944   4.863  18.121  0.00  0.00    +0.000 C 
BRANCH  13  14
ATOM     14  S   UNL     1       4.368   4.424  18.907  0.00  0.00    +0.000 S 
BRANCH  14  15
ATOM     15  C   UNL     1       3.519   5.946  18.945  0.00  0.00    +0.000 A 
ATOM     16  N   UNL     1       2.829   6.323  19.992  0.00  0.00    +0.000 NA
ATOM     17  C   UNL     1       2.169   7.508  19.711  0.00  0.00    +0.000 A 
ATOM     18  C   UNL     1       1.282   8.173  20.581  0.00  0.00    +0.000 A 
ATOM     19  C   UNL     1       0.677   9.364  20.172  0.00  0.00    +0.000 A 
ATOM     20  C   UNL     1       0.933   9.891  18.910  0.00  0.00    +0.000 A 
ATOM     21  C   UNL     1       1.803   9.243  18.025  0.00  0.00    +0.000 A 
ATOM     22  C   UNL     1       2.419   8.053  18.450  0.00  0.00    +0.000 A 
ATOM     23  S   UNL     1       3.522   7.027  17.616  0.00  0.00    +0.000 S 
ENDBRANCH  14  15
ENDBRANCH  13  14
ENDBRANCH  12  13
TORSDOF 3
ENDMDL
MODEL 6
REMARK VINA RESULT:      -7.2      1.757      2.438
REMARK  Name = 
REMARK  3 active torsions:
REMARK  status: ('A' for Active; 'I' for Inactive)
REMARK    1  A    between atoms: N_12  and  C_13
REMARK    2  A    between atoms: C_13  and  S_14
REMARK    3  A    between atoms: S_14  and  C_15
REMARK                            x       y       z     vdW  Elec       q    Type
REMARK                         _______ _______ _______ _____ _____    ______ ____
ROOT
ATOM      1  O   UNL     1       2.256   4.932  20.658  0.00  0.00    +0.000 OA
ATOM      2  C   UNL     1       2.399   5.813  19.811  0.00  0.00    +0.000 A 
ATOM      3  C   UNL     1       1.819   7.148  20.058  0.00  0.00    +0.000 A 
ATOM      4  C   UNL     1       1.088   7.398  21.227  0.00  0.00    +0.000 A 
ATOM      5  C   UNL     1       0.568   8.668  21.463  0.00  0.00    +0.000 A 
ATOM      6  C   UNL     1       0.759   9.674  20.519  0.00  0.00    +0.000 A 
ATOM      7  C   UNL     1       1.483   9.413  19.349  0.00  0.00    +0.000 A 
ATOM      8 CL   UNL     1       1.666  10.706  18.211  0.00  0.00    +0.000 Cl
ATOM      9  C   UNL     1       2.044   8.149  19.109  0.00  0.00    +0.000 A 
ATOM     10  N   UNL     1       2.836   7.908  17.970  0.00  0.00    +0.000 NA
ATOM     11  C   UNL     1       3.313   6.721  17.796  0.00  0.00    +0.000 A 
ATOM     12  N   UNL     1       3.103   5.649  18.634  0.00  0.00    +0.000 N 
ENDROOT
BRANCH  12  13
ATOM     13  C   UNL     1       3.769   4.386  18.362  0.00  0.00    +0.000 C 
BRANCH  13  14
ATOM     14  S   UNL     1       5.583   4.412  18.390  0.00  0.00    +0.000 S 
BRANCH  14  15
ATOM     15  C   UNL     1       5.995   4.521  16.700  0.00  0.00    +0.000 A 
ATOM     16  N   UNL     1       5.338   3.849  15.787  0.00  0.00    +0.000 NA
ATOM     17  C   UNL     1       5.943   4.030  14.554  0.00  0.00    +0.000 A 
ATOM     18  C   UNL     1       5.548   3.406  13.354  0.00  0.00    +0.000 A 
ATOM     19  C   UNL     1       6.247   3.672  12.175  0.00  0.00    +0.000 A 
ATOM     20  C   UNL     1       7.338   4.537  12.179  0.00  0.00    +0.000 A 
ATOM     21  C   UNL     1       7.755   5.160  13.361  0.00  0.00    +0.000 A 
ATOM     22  C   UNL     1       7.036   4.898  14.540  0.00  0.00    +0.000 A 
ATOM     23  S   UNL     1       7.286   5.495  16.136  0.00  0.00    +0.000 S 
ENDBRANCH  14  15
ENDBRANCH  13  14
ENDBRANCH  12  13
TORSDOF 3
ENDMDL
MODEL 7
REMARK VINA RESULT:      -7.1      4.257      9.393
REMARK  Name = 
REMARK  3 active torsions:
REMARK  status: ('A' for Active; 'I' for Inactive)
REMARK    1  A    between atoms: N_12  and  C_13
REMARK    2  A    between atoms: C_13  and  S_14
REMARK    3  A    between atoms: S_14  and  C_15
REMARK                            x       y       z     vdW  Elec       q    Type
REMARK                         _______ _______ _______ _____ _____    ______ ____
ROOT
ATOM      1  O   UNL     1       1.370   5.502  20.724  0.00  0.00    +0.000 OA
ATOM      2  C   UNL     1       2.125   5.704  19.774  0.00  0.00    +0.000 A 
ATOM      3  C   UNL     1       2.710   4.550  19.061  0.00  0.00    +0.000 A 
ATOM      4  C   UNL     1       2.434   3.243  19.484  0.00  0.00    +0.000 A 
ATOM      5  C   UNL     1       2.968   2.162  18.789  0.00  0.00    +0.000 A 
ATOM      6  C   UNL     1       3.796   2.391  17.692  0.00  0.00    +0.000 A 
ATOM      7  C   UNL     1       4.073   3.701  17.283  0.00  0.00    +0.000 A 
ATOM      8 CL   UNL     1       5.124   3.912  15.922  0.00  0.00    +0.000 Cl
ATOM      9  C   UNL     1       3.517   4.804  17.949  0.00  0.00    +0.000 A 
ATOM     10  N   UNL     1       3.734   6.117  17.491  0.00  0.00    +0.000 NA
ATOM     11  C   UNL     1       3.207   7.092  18.154  0.00  0.00    +0.000 A 
ATOM     12  N   UNL     1       2.448   6.959  19.295  0.00  0.00    +0.000 N 
ENDROOT
BRANCH  12  13
ATOM     13  C   UNL     1       1.846   8.137  19.896  0.00  0.00    +0.000 C 
BRANCH  13  14
ATOM     14  S   UNL     1       1.353   9.459  18.755  0.00  0.00    +0.000 S 
BRANCH  14  15
ATOM     15  C   UNL     1       0.262  10.417  19.720  0.00  0.00    +0.000 A 
ATOM     16  N   UNL     1       0.216  10.302  21.024  0.00  0.00    +0.000 NA
ATOM     17  C   UNL     1      -0.810  11.090  21.521  0.00  0.00    +0.000 A 
ATOM     18  C   UNL     1      -1.195  11.164  22.875  0.00  0.00    +0.000 A 
ATOM     19  C   UNL     1      -2.253  11.998  23.246  0.00  0.00    +0.000 A 
ATOM     20  C   UNL     1      -2.935  12.744  22.290  0.00  0.00    +0.000 A 
ATOM     21  C   UNL     1      -2.576  12.678  20.939  0.00  0.00    +0.000 A 
ATOM     22  C   UNL     1      -1.502  11.848  20.576  0.00  0.00    +0.000 A 
ATOM     23  S   UNL     1      -0.820  11.548  19.023  0.00  0.00    +0.000 S 
ENDBRANCH  14  15
ENDBRANCH  13  14
ENDBRANCH  12  13
TORSDOF 3
ENDMDL
MODEL 8
REMARK VINA RESULT:      -7.1      3.041      7.897
REMARK  Name = 
REMARK  3 active torsions:
REMARK  status: ('A' for Active; 'I' for Inactive)
REMARK    1  A    between atoms: N_12  and  C_13
REMARK    2  A    between atoms: C_13  and  S_14
REMARK    3  A    between atoms: S_14  and  C_15
REMARK                            x       y       z     vdW  Elec       q    Type
REMARK                         _______ _______ _______ _____ _____    ______ ____
ROOT
ATOM      1  O   UNL     1       4.613   3.205  16.418  0.00  0.00    +0.000 OA
ATOM      2  C   UNL     1       5.551   3.960  16.163  0.00  0.00    +0.000 A 
ATOM      3  C   UNL     1       6.044   4.051  14.774  0.00  0.00    +0.000 A 
ATOM      4  C   UNL     1       5.472   3.263  13.766  0.00  0.00    +0.000 A 
ATOM      5  C   UNL     1       5.926   3.377  12.455  0.00  0.00    +0.000 A 
ATOM      6  C   UNL     1       6.965   4.256  12.161  0.00  0.00    +0.000 A 
ATOM      7  C   UNL     1       7.537   5.033  13.177  0.00  0.00    +0.000 A 
ATOM      8 CL   UNL     1       8.837   6.093  12.743  0.00  0.00    +0.000 Cl
ATOM      9  C   UNL     1       7.071   4.959  14.499  0.00  0.00    +0.000 A 
ATOM     10  N   UNL     1       7.593   5.795  15.504  0.00  0.00    +0.000 NA
ATOM     11  C   UNL     1       7.134   5.669  16.703  0.00  0.00    +0.000 A 
ATOM     12  N   UNL     1       6.170   4.769  17.096  0.00  0.00    +0.000 N 
ENDROOT
BRANCH  12  13
ATOM     13  C   UNL     1       5.684   4.791  18.466  0.00  0.00    +0.000 C 
BRANCH  13  14
ATOM     14  S   UNL     1       3.915   4.456  18.696  0.00  0.00    +0.000 S 
BRANCH  14  15
ATOM     15  C   UNL     1       3.228   6.056  18.788  0.00  0.00    +0.000 A 
ATOM     16  N   UNL     1       2.585   6.469  19.851  0.00  0.00    +0.000 NA
ATOM     17  C   UNL     1       2.050   7.724  19.611  0.00  0.00    +0.000 A 
ATOM     18  C   UNL     1       1.240   8.449  20.508  0.00  0.00    +0.000 A 
ATOM     19  C   UNL     1       0.760   9.708  20.140  0.00  0.00    +0.000 A 
ATOM     20  C   UNL     1       1.064  10.245  18.892  0.00  0.00    +0.000 A 
ATOM     21  C   UNL     1       1.858   9.539  17.982  0.00  0.00    +0.000 A 
ATOM     22  C   UNL     1       2.349   8.279  18.366  0.00  0.00    +0.000 A 
ATOM     23  S   UNL     1       3.338   7.172  17.492  0.00  0.00    +0.000 S 
ENDBRANCH  14  15
ENDBRANCH  13  14
ENDBRANCH  12  13
TORSDOF 3
ENDMDL
MODEL 9
REMARK VINA RESULT:      -7.0      4.546      8.848
REMARK  Name = 
REMARK  3 active torsions:
REMARK  status: ('A' for Active; 'I' for Inactive)
REMARK    1  A    between atoms: N_12  and  C_13
REMARK    2  A    between atoms: C_13  and  S_14
REMARK    3  A    between atoms: S_14  and  C_15
REMARK                            x       y       z     vdW  Elec       q    Type
REMARK                         _______ _______ _______ _____ _____    ______ ____
ROOT
ATOM      1  O   UNL     1       1.749   7.239  20.671  0.00  0.00    +0.000 OA
ATOM      2  C   UNL     1       2.220   6.528  19.784  0.00  0.00    +0.000 A 
ATOM      3  C   UNL     1       2.179   5.060  19.941  0.00  0.00    +0.000 A 
ATOM      4  C   UNL     1       1.639   4.486  21.100  0.00  0.00    +0.000 A 
ATOM      5  C   UNL     1       1.580   3.101  21.226  0.00  0.00    +0.000 A 
ATOM      6  C   UNL     1       2.084   2.297  20.207  0.00  0.00    +0.000 A 
ATOM      7  C   UNL     1       2.630   2.879  19.057  0.00  0.00    +0.000 A 
ATOM      8 CL   UNL     1       3.254   1.818  17.837  0.00  0.00    +0.000 Cl
ATOM      9  C   UNL     1       2.668   4.273  18.895  0.00  0.00    +0.000 A 
ATOM     10  N   UNL     1       3.147   4.856  17.707  0.00  0.00    +0.000 NA
ATOM     11  C   UNL     1       3.170   6.144  17.623  0.00  0.00    +0.000 A 
ATOM     12  N   UNL     1       2.771   7.012  18.613  0.00  0.00    +0.000 N 
ENDROOT
BRANCH  12  13
ATOM     13  C   UNL     1       2.772   8.443  18.356  0.00  0.00    +0.000 C 
BRANCH  13  14
ATOM     14  S   UNL     1       1.196   9.163  17.818  0.00  0.00    +0.000 S 
BRANCH  14  15
ATOM     15  C   UNL     1       0.829  10.289  19.097  0.00  0.00    +0.000 A 
ATOM     16  N   UNL     1       0.110   9.941  20.135  0.00  0.00    +0.000 NA
ATOM     17  C   UNL     1      -0.121  11.051  20.931  0.00  0.00    +0.000 A 
ATOM     18  C   UNL     1      -0.913  11.066  22.097  0.00  0.00    +0.000 A 
ATOM     19  C   UNL     1      -1.069  12.257  22.810  0.00  0.00    +0.000 A 
ATOM     20  C   UNL     1      -0.461  13.430  22.371  0.00  0.00    +0.000 A 
ATOM     21  C   UNL     1       0.321  13.441  21.210  0.00  0.00    +0.000 A 
ATOM     22  C   UNL     1       0.485  12.235  20.508  0.00  0.00    +0.000 A 
ATOM     23  S   UNL     1       1.370  11.914  19.066  0.00  0.00    +0.000 S 
ENDBRANCH  14  15
ENDBRANCH  13  14
ENDBRANCH  12  13
TORSDOF 3
ENDMDL
