MODEL 1
REMARK VINA RESULT:      -8.7      0.000      0.000
REMARK  Name = 
REMARK  7 active torsions:
REMARK  status: ('A' for Active; 'I' for Inactive)
REMARK    1  A    between atoms: C_2  and  C_13
REMARK    2  A    between atoms: N_3  and  S_4
REMARK    3  A    between atoms: S_4  and  N_7
REMARK    4  A    between atoms: C_15  and  C_16
REMARK    5  A    between atoms: C_19  and  O_20
REMARK    6  A    between atoms: O_20  and  C_21
REMARK    7  A    between atoms: C_21  and  C_22
REMARK                            x       y       z     vdW  Elec       q    Type
REMARK                         _______ _______ _______ _____ _____    ______ ____
ROOT
ATOM      1  C   UNL     1      -0.118  10.542  21.266  0.00  0.00    +0.000 A 
ATOM      2  C   UNL     1       0.352  10.159  20.000  0.00  0.00    +0.000 A 
ATOM      3  C   UNL     1       1.045   8.950  19.766  0.00  0.00    +0.000 A 
ATOM      4  C   UNL     1       1.278   8.123  20.895  0.00  0.00    +0.000 A 
ATOM      5  C   UNL     1       0.776   8.480  22.156  0.00  0.00    +0.000 A 
ATOM      6  C   UNL     1       0.080   9.676  22.330  0.00  0.00    +0.000 A 
ATOM      7  F   UNL     1      -0.379   9.973  23.555  0.00  0.00    +0.000 F 
ENDROOT
BRANCH   1   9
ATOM      8  O   UNL     1      -1.480  12.241  20.424  0.00  0.00    +0.000 OA
ATOM      9  C   UNL     1      -0.807  11.849  21.368  0.00  0.00    +0.000 C 
ATOM     10  N   UNL     1      -0.676  12.561  22.563  0.00  0.00    +0.000 N 
ATOM     11  H   UNL     1       0.037  12.309  23.245  0.00  0.00    +0.000 HD
BRANCH  10  12
ATOM     12  S   UNL     1      -1.292  14.066  22.839  0.00  0.00    +0.000 S 
ATOM     13  O   UNL     1      -0.701  14.520  24.077  0.00  0.00    +0.000 OA
ATOM     14  O   UNL     1      -1.194  14.862  21.637  0.00  0.00    +0.000 OA
BRANCH  12  15
ATOM     15  N   UNL     1      -2.912  13.746  23.141  0.00  0.00    +0.000 NA
ATOM     16  C   UNL     1      -3.446  12.358  23.330  0.00  0.00    +0.000 C 
ATOM     17  C   UNL     1      -4.530  12.881  24.298  0.00  0.00    +0.000 C 
ATOM     18  F   UNL     1      -4.691  12.189  25.451  0.00  0.00    +0.000 F 
ATOM     19  F   UNL     1      -5.767  13.049  23.770  0.00  0.00    +0.000 F 
ATOM     20  C   UNL     1      -3.657  14.147  24.381  0.00  0.00    +0.000 C 
ENDBRANCH  12  15
ENDBRANCH  10  12
ENDBRANCH   1   9
BRANCH   3  21
ATOM     21  C   UNL     1       1.435   8.661  18.316  0.00  0.00    +0.000 C 
ATOM     22  C   UNL     1       2.262   9.593  17.475  0.00  0.00    +0.000 C 
ATOM     23  C   UNL     1       2.850   8.293  17.954  0.00  0.00    +0.000 C 
ENDBRANCH   3  21
BRANCH   4  24
ATOM     24  O   UNL     1       2.007   6.986  20.671  0.00  0.00    +0.000 OA
BRANCH  24  25
ATOM     25  C   UNL     1       1.353   5.718  20.628  0.00  0.00    +0.000 C 
BRANCH  25  26
ATOM     26  C   UNL     1       2.177   4.739  19.760  0.00  0.00    +0.000 C 
ATOM     27  C   UNL     1       2.101   3.291  20.312  0.00  0.00    +0.000 C 
ATOM     28  C   UNL     1       2.926   2.329  19.438  0.00  0.00    +0.000 C 
ATOM     29  C   UNL     1       2.373   2.347  18.005  0.00  0.00    +0.000 C 
ATOM     30  C   UNL     1       2.454   3.770  17.429  0.00  0.00    +0.000 C 
ATOM     31  C   UNL     1       3.922   4.226  17.416  0.00  0.00    +0.000 C 
ATOM     32  C   UNL     1       4.490   4.211  18.842  0.00  0.00    +0.000 C 
ATOM     33  C   UNL     1       4.393   2.789  19.420  0.00  0.00    +0.000 C 
ATOM     34  C   UNL     1       3.668   5.164  19.721  0.00  0.00    +0.000 C 
ATOM     35  C   UNL     1       1.632   4.726  18.311  0.00  0.00    +0.000 C 
ENDBRANCH  25  26
ENDBRANCH  24  25
ENDBRANCH   4  24
TORSDOF 7
ENDMDL
MODEL 2
REMARK VINA RESULT:      -8.7      1.437      1.684
REMARK  Name = 
REMARK  7 active torsions:
REMARK  status: ('A' for Active; 'I' for Inactive)
REMARK    1  A    between atoms: C_2  and  C_13
REMARK    2  A    between atoms: N_3  and  S_4
REMARK    3  A    between atoms: S_4  and  N_7
REMARK    4  A    between atoms: C_15  and  C_16
REMARK    5  A    between atoms: C_19  and  O_20
REMARK    6  A    between atoms: O_20  and  C_21
REMARK    7  A    between atoms: C_21  and  C_22
REMARK                            x       y       z     vdW  Elec       q    Type
REMARK                         _______ _______ _______ _____ _____    ______ ____
ROOT
ATOM      1  C   UNL     1      -0.050  10.765  21.692  0.00  0.00    +0.000 A 
ATOM      2  C   UNL     1       0.457  10.671  20.386  0.00  0.00    +0.000 A 
ATOM      3  C   UNL     1       1.139   9.532  19.902  0.00  0.00    +0.000 A 
ATOM      4  C   UNL     1       1.321   8.465  20.818  0.00  0.00    +0.000 A 
ATOM      5  C   UNL     1       0.782   8.535  22.112  0.00  0.00    +0.000 A 
ATOM      6  C   UNL     1       0.099   9.676  22.535  0.00  0.00    +0.000 A 
ATOM      7  F   UNL     1      -0.396   9.695  23.781  0.00  0.00    +0.000 F 
ENDROOT
BRANCH   1   9
ATOM      8  O   UNL     1      -0.039  13.017  22.308  0.00  0.00    +0.000 OA
ATOM      9  C   UNL     1      -0.722  12.030  22.070  0.00  0.00    +0.000 C 
ATOM     10  N   UNL     1      -2.118  12.038  22.106  0.00  0.00    +0.000 N 
ATOM     11  H   UNL     1      -2.645  11.167  22.096  0.00  0.00    +0.000 HD
BRANCH  10  12
ATOM     12  S   UNL     1      -3.044  13.316  22.584  0.00  0.00    +0.000 S 
ATOM     13  O   UNL     1      -2.741  13.531  23.981  0.00  0.00    +0.000 OA
ATOM     14  O   UNL     1      -2.923  14.392  21.627  0.00  0.00    +0.000 OA
BRANCH  12  15
ATOM     15  N   UNL     1      -4.599  12.692  22.498  0.00  0.00    +0.000 NA
ATOM     16  C   UNL     1      -5.748  13.258  23.278  0.00  0.00    +0.000 C 
ATOM     17  C   UNL     1      -6.736  12.860  22.159  0.00  0.00    +0.000 C 
ATOM     18  F   UNL     1      -7.628  13.805  21.780  0.00  0.00    +0.000 F 
ATOM     19  F   UNL     1      -7.442  11.722  22.367  0.00  0.00    +0.000 F 
ATOM     20  C   UNL     1      -5.479  12.721  21.282  0.00  0.00    +0.000 C 
ENDBRANCH  12  15
ENDBRANCH  10  12
ENDBRANCH   1   9
BRANCH   3  21
ATOM     21  C   UNL     1       1.573   9.572  18.436  0.00  0.00    +0.000 C 
ATOM     22  C   UNL     1       2.489   8.557  17.813  0.00  0.00    +0.000 C 
ATOM     23  C   UNL     1       1.031   8.578  17.442  0.00  0.00    +0.000 C 
ENDBRANCH   3  21
BRANCH   4  24
ATOM     24  O   UNL     1       2.040   7.392  20.361  0.00  0.00    +0.000 OA
BRANCH  24  25
ATOM     25  C   UNL     1       1.583   6.065  20.623  0.00  0.00    +0.000 C 
BRANCH  25  26
ATOM     26  C   UNL     1       2.356   5.065  19.733  0.00  0.00    +0.000 C 
ATOM     27  C   UNL     1       2.407   3.655  20.377  0.00  0.00    +0.000 C 
ATOM     28  C   UNL     1       3.180   2.672  19.480  0.00  0.00    +0.000 C 
ATOM     29  C   UNL     1       2.479   2.574  18.116  0.00  0.00    +0.000 C 
ATOM     30  C   UNL     1       2.432   3.958  17.449  0.00  0.00    +0.000 C 
ATOM     31  C   UNL     1       3.867   4.471  17.250  0.00  0.00    +0.000 C 
ATOM     32  C   UNL     1       4.582   4.572  18.605  0.00  0.00    +0.000 C 
ATOM     33  C   UNL     1       4.613   3.189  19.275  0.00  0.00    +0.000 C 
ATOM     34  C   UNL     1       3.813   5.547  19.508  0.00  0.00    +0.000 C 
ATOM     35  C   UNL     1       1.663   4.936  18.355  0.00  0.00    +0.000 C 
ENDBRANCH  25  26
ENDBRANCH  24  25
ENDBRANCH   4  24
TORSDOF 7
ENDMDL
MODEL 3
REMARK VINA RESULT:      -8.7      0.962      1.804
REMARK  Name = 
REMARK  7 active torsions:
REMARK  status: ('A' for Active; 'I' for Inactive)
REMARK    1  A    between atoms: C_2  and  C_13
REMARK    2  A    between atoms: N_3  and  S_4
REMARK    3  A    between atoms: S_4  and  N_7
REMARK    4  A    between atoms: C_15  and  C_16
REMARK    5  A    between atoms: C_19  and  O_20
REMARK    6  A    between atoms: O_20  and  C_21
REMARK    7  A    between atoms: C_21  and  C_22
REMARK                            x       y       z     vdW  Elec       q    Type
REMARK                         _______ _______ _______ _____ _____    ______ ____
ROOT
ATOM      1  C   UNL     1       0.140  10.473  21.282  0.00  0.00    +0.000 A 
ATOM      2  C   UNL     1       0.571  10.090  20.002  0.00  0.00    +0.000 A 
ATOM      3  C   UNL     1       1.204   8.855  19.738  0.00  0.00    +0.000 A 
ATOM      4  C   UNL     1       1.416   7.999  20.850  0.00  0.00    +0.000 A 
ATOM      5  C   UNL     1       0.951   8.358  22.125  0.00  0.00    +0.000 A 
ATOM      6  C   UNL     1       0.315   9.582  22.329  0.00  0.00    +0.000 A 
ATOM      7  F   UNL     1      -0.111   9.880  23.566  0.00  0.00    +0.000 F 
ENDROOT
BRANCH   1   9
ATOM      8  O   UNL     1       0.155  12.716  21.929  0.00  0.00    +0.000 OA
ATOM      9  C   UNL     1      -0.486  11.809  21.416  0.00  0.00    +0.000 C 
ATOM     10  N   UNL     1      -1.780  11.973  20.916  0.00  0.00    +0.000 N 
ATOM     11  H   UNL     1      -2.353  11.166  20.677  0.00  0.00    +0.000 HD
BRANCH  10  12
ATOM     12  S   UNL     1      -2.676  13.352  21.046  0.00  0.00    +0.000 S 
ATOM     13  O   UNL     1      -1.780  14.443  20.736  0.00  0.00    +0.000 OA
ATOM     14  O   UNL     1      -3.922  13.193  20.332  0.00  0.00    +0.000 OA
BRANCH  12  15
ATOM     15  N   UNL     1      -3.003  13.421  22.690  0.00  0.00    +0.000 NA
ATOM     16  C   UNL     1      -4.327  13.859  23.239  0.00  0.00    +0.000 C 
ATOM     17  C   UNL     1      -4.161  12.922  24.455  0.00  0.00    +0.000 C 
ATOM     18  F   UNL     1      -5.233  12.161  24.779  0.00  0.00    +0.000 F 
ATOM     19  F   UNL     1      -3.740  13.507  25.603  0.00  0.00    +0.000 F 
ATOM     20  C   UNL     1      -3.072  12.237  23.610  0.00  0.00    +0.000 C 
ENDBRANCH  12  15
ENDBRANCH  10  12
ENDBRANCH   1   9
BRANCH   3  21
ATOM     21  C   UNL     1       1.556   8.571  18.277  0.00  0.00    +0.000 C 
ATOM     22  C   UNL     1       2.373   9.501  17.424  0.00  0.00    +0.000 C 
ATOM     23  C   UNL     1       2.959   8.192  17.881  0.00  0.00    +0.000 C 
ENDBRANCH   3  21
BRANCH   4  24
ATOM     24  O   UNL     1       2.088   6.833  20.596  0.00  0.00    +0.000 OA
BRANCH  24  25
ATOM     25  C   UNL     1       1.364   5.612  20.451  0.00  0.00    +0.000 C 
BRANCH  25  26
ATOM     26  C   UNL     1       2.193   4.615  19.610  0.00  0.00    +0.000 C 
ATOM     27  C   UNL     1       3.709   4.934  19.684  0.00  0.00    +0.000 C 
ATOM     28  C   UNL     1       4.521   3.934  18.842  0.00  0.00    +0.000 C 
ATOM     29  C   UNL     1       4.283   2.513  19.376  0.00  0.00    +0.000 C 
ATOM     30  C   UNL     1       2.788   2.165  19.296  0.00  0.00    +0.000 C 
ATOM     31  C   UNL     1       2.330   2.244  17.831  0.00  0.00    +0.000 C 
ATOM     32  C   UNL     1       2.564   3.659  17.282  0.00  0.00    +0.000 C 
ATOM     33  C   UNL     1       4.058   4.008  17.378  0.00  0.00    +0.000 C 
ATOM     34  C   UNL     1       1.761   4.662  18.121  0.00  0.00    +0.000 C 
ATOM     35  C   UNL     1       1.983   3.174  20.136  0.00  0.00    +0.000 C 
ENDBRANCH  25  26
ENDBRANCH  24  25
ENDBRANCH   4  24
TORSDOF 7
ENDMDL
MODEL 4
REMARK VINA RESULT:      -8.6      2.087      2.668
REMARK  Name = 
REMARK  7 active torsions:
REMARK  status: ('A' for Active; 'I' for Inactive)
REMARK    1  A    between atoms: C_2  and  C_13
REMARK    2  A    between atoms: N_3  and  S_4
REMARK    3  A    between atoms: S_4  and  N_7
REMARK    4  A    between atoms: C_15  and  C_16
REMARK    5  A    between atoms: C_19  and  O_20
REMARK    6  A    between atoms: O_20  and  C_21
REMARK    7  A    between atoms: C_21  and  C_22
REMARK                            x       y       z     vdW  Elec       q    Type
REMARK                         _______ _______ _______ _____ _____    ______ ____
ROOT
ATOM      1  C   UNL     1      -0.076  10.545  21.470  0.00  0.00    +0.000 A 
ATOM      2  C   UNL     1       0.333  10.248  20.160  0.00  0.00    +0.000 A 
ATOM      3  C   UNL     1       1.020   9.062  19.816  0.00  0.00    +0.000 A 
ATOM      4  C   UNL     1       1.312   8.167  20.876  0.00  0.00    +0.000 A 
ATOM      5  C   UNL     1       0.871   8.437  22.181  0.00  0.00    +0.000 A 
ATOM      6  C   UNL     1       0.179   9.615  22.465  0.00  0.00    +0.000 A 
ATOM      7  F   UNL     1      -0.221   9.828  23.728  0.00  0.00    +0.000 F 
ENDROOT
BRANCH   1   9
ATOM      8  O   UNL     1      -0.243  12.674  22.414  0.00  0.00    +0.000 OA
ATOM      9  C   UNL     1      -0.765  11.837  21.689  0.00  0.00    +0.000 C 
ATOM     10  N   UNL     1      -1.976  12.048  21.026  0.00  0.00    +0.000 N 
ATOM     11  H   UNL     1      -2.476  11.274  20.593  0.00  0.00    +0.000 HD
BRANCH  10  12
ATOM     12  S   UNL     1      -2.934  13.379  21.206  0.00  0.00    +0.000 S 
ATOM     13  O   UNL     1      -3.469  13.309  22.546  0.00  0.00    +0.000 OA
ATOM     14  O   UNL     1      -2.226  14.555  20.753  0.00  0.00    +0.000 OA
BRANCH  12  15
ATOM     15  N   UNL     1      -4.194  13.068  20.143  0.00  0.00    +0.000 NA
ATOM     16  C   UNL     1      -4.103  12.046  19.050  0.00  0.00    +0.000 C 
ATOM     17  C   UNL     1      -5.617  11.758  19.159  0.00  0.00    +0.000 C 
ATOM     18  F   UNL     1      -5.981  10.455  19.192  0.00  0.00    +0.000 F 
ATOM     19  F   UNL     1      -6.404  12.358  18.233  0.00  0.00    +0.000 F 
ATOM     20  C   UNL     1      -5.519  12.471  20.521  0.00  0.00    +0.000 C 
ENDBRANCH  12  15
ENDBRANCH  10  12
ENDBRANCH   1   9
BRANCH   3  21
ATOM     21  C   UNL     1       1.339   8.869  18.333  0.00  0.00    +0.000 C 
ATOM     22  C   UNL     1       2.228   9.793  17.547  0.00  0.00    +0.000 C 
ATOM     23  C   UNL     1       2.703   8.407  17.890  0.00  0.00    +0.000 C 
ENDBRANCH   3  21
BRANCH   4  24
ATOM     24  O   UNL     1       2.035   7.052  20.544  0.00  0.00    +0.000 OA
BRANCH  24  25
ATOM     25  C   UNL     1       1.405   5.771  20.539  0.00  0.00    +0.000 C 
BRANCH  25  26
ATOM     26  C   UNL     1       2.237   4.788  19.682  0.00  0.00    +0.000 C 
ATOM     27  C   UNL     1       1.731   4.746  18.217  0.00  0.00    +0.000 C 
ATOM     28  C   UNL     1       2.568   3.765  17.377  0.00  0.00    +0.000 C 
ATOM     29  C   UNL     1       4.037   4.216  17.387  0.00  0.00    +0.000 C 
ATOM     30  C   UNL     1       4.567   4.248  18.829  0.00  0.00    +0.000 C 
ATOM     31  C   UNL     1       4.461   2.840  19.437  0.00  0.00    +0.000 C 
ATOM     32  C   UNL     1       2.998   2.374  19.432  0.00  0.00    +0.000 C 
ATOM     33  C   UNL     1       2.467   2.358  17.989  0.00  0.00    +0.000 C 
ATOM     34  C   UNL     1       2.156   3.352  20.263  0.00  0.00    +0.000 C 
ATOM     35  C   UNL     1       3.721   5.227  19.663  0.00  0.00    +0.000 C 
ENDBRANCH  25  26
ENDBRANCH  24  25
ENDBRANCH   4  24
TORSDOF 7
ENDMDL
MODEL 5
REMARK VINA RESULT:      -8.6      5.449     10.407
REMARK  Name = 
REMARK  7 active torsions:
REMARK  status: ('A' for Active; 'I' for Inactive)
REMARK    1  A    between atoms: C_2  and  C_13
REMARK    2  A    between atoms: N_3  and  S_4
REMARK    3  A    between atoms: S_4  and  N_7
REMARK    4  A    between atoms: C_15  and  C_16
REMARK    5  A    between atoms: C_19  and  O_20
REMARK    6  A    between atoms: O_20  and  C_21
REMARK    7  A    between atoms: C_21  and  C_22
REMARK                            x       y       z     vdW  Elec       q    Type
REMARK                         _______ _______ _______ _____ _____    ______ ____
ROOT
ATOM      1  C   UNL     1       2.240   7.406  19.455  0.00  0.00    +0.000 A 
ATOM      2  C   UNL     1       1.451   7.711  20.576  0.00  0.00    +0.000 A 
ATOM      3  C   UNL     1       0.668   8.883  20.674  0.00  0.00    +0.000 A 
ATOM      4  C   UNL     1       0.726   9.779  19.576  0.00  0.00    +0.000 A 
ATOM      5  C   UNL     1       1.479   9.462  18.435  0.00  0.00    +0.000 A 
ATOM      6  C   UNL     1       2.221   8.281  18.381  0.00  0.00    +0.000 A 
ATOM      7  F   UNL     1       2.926   8.023  17.269  0.00  0.00    +0.000 F 
ENDROOT
BRANCH   1   9
ATOM      8  O   UNL     1       2.784   5.328  20.370  0.00  0.00    +0.000 OA
ATOM      9  C   UNL     1       3.030   6.154  19.501  0.00  0.00    +0.000 C 
ATOM     10  N   UNL     1       4.006   5.966  18.520  0.00  0.00    +0.000 N 
ATOM     11  H   UNL     1       4.319   6.742  17.939  0.00  0.00    +0.000 HD
BRANCH  10  12
ATOM     12  S   UNL     1       5.043   4.685  18.452  0.00  0.00    +0.000 S 
ATOM     13  O   UNL     1       6.028   4.912  19.484  0.00  0.00    +0.000 OA
ATOM     14  O   UNL     1       4.293   3.452  18.403  0.00  0.00    +0.000 OA
BRANCH  12  15
ATOM     15  N   UNL     1       5.804   4.911  16.973  0.00  0.00    +0.000 NA
ATOM     16  C   UNL     1       6.036   3.794  15.999  0.00  0.00    +0.000 C 
ATOM     17  C   UNL     1       5.909   4.773  14.810  0.00  0.00    +0.000 C 
ATOM     18  F   UNL     1       5.122   4.373  13.784  0.00  0.00    +0.000 F 
ATOM     19  F   UNL     1       7.074   5.198  14.264  0.00  0.00    +0.000 F 
ATOM     20  C   UNL     1       5.261   5.723  15.834  0.00  0.00    +0.000 C 
ENDBRANCH  12  15
ENDBRANCH  10  12
ENDBRANCH   1   9
BRANCH   3  21
ATOM     21  C   UNL     1      -0.178   9.030  21.940  0.00  0.00    +0.000 C 
ATOM     22  C   UNL     1       0.403   9.302  23.300  0.00  0.00    +0.000 C 
ATOM     23  C   UNL     1      -0.372  10.377  22.586  0.00  0.00    +0.000 C 
ENDBRANCH   3  21
BRANCH   4  24
ATOM     24  O   UNL     1       0.015  10.942  19.706  0.00  0.00    +0.000 OA
BRANCH  24  25
ATOM     25  C   UNL     1       0.023  11.904  18.651  0.00  0.00    +0.000 C 
BRANCH  25  26
ATOM     26  C   UNL     1       0.861  13.132  19.076  0.00  0.00    +0.000 C 
ATOM     27  C   UNL     1       0.134  14.459  18.736  0.00  0.00    +0.000 C 
ATOM     28  C   UNL     1       0.980  15.671  19.165  0.00  0.00    +0.000 C 
ATOM     29  C   UNL     1       1.222  15.608  20.680  0.00  0.00    +0.000 C 
ATOM     30  C   UNL     1       1.959  14.309  21.041  0.00  0.00    +0.000 C 
ATOM     31  C   UNL     1       3.308  14.273  20.306  0.00  0.00    +0.000 C 
ATOM     32  C   UNL     1       3.083  14.338  18.788  0.00  0.00    +0.000 C 
ATOM     33  C   UNL     1       2.332  15.632  18.434  0.00  0.00    +0.000 C 
ATOM     34  C   UNL     1       2.234  13.134  18.355  0.00  0.00    +0.000 C 
ATOM     35  C   UNL     1       1.109  13.102  20.604  0.00  0.00    +0.000 C 
ENDBRANCH  25  26
ENDBRANCH  24  25
ENDBRANCH   4  24
TORSDOF 7
ENDMDL
MODEL 6
REMARK VINA RESULT:      -8.5      1.893      2.105
REMARK  Name = 
REMARK  7 active torsions:
REMARK  status: ('A' for Active; 'I' for Inactive)
REMARK    1  A    between atoms: C_2  and  C_13
REMARK    2  A    between atoms: N_3  and  S_4
REMARK    3  A    between atoms: S_4  and  N_7
REMARK    4  A    between atoms: C_15  and  C_16
REMARK    5  A    between atoms: C_19  and  O_20
REMARK    6  A    between atoms: O_20  and  C_21
REMARK    7  A    between atoms: C_21  and  C_22
REMARK                            x       y       z     vdW  Elec       q    Type
REMARK                         _______ _______ _______ _____ _____    ______ ____
ROOT
ATOM      1  C   UNL     1      -0.290  10.698  21.734  0.00  0.00    +0.000 A 
ATOM      2  C   UNL     1       0.084  10.629  20.382  0.00  0.00    +0.000 A 
ATOM      3  C   UNL     1       0.761   9.523  19.823  0.00  0.00    +0.000 A 
ATOM      4  C   UNL     1       1.081   8.461  20.708  0.00  0.00    +0.000 A 
ATOM      5  C   UNL     1       0.674   8.503  22.050  0.00  0.00    +0.000 A 
ATOM      6  C   UNL     1      -0.010   9.612  22.549  0.00  0.00    +0.000 A 
ATOM      7  F   UNL     1      -0.377   9.606  23.839  0.00  0.00    +0.000 F 
ENDROOT
BRANCH   1   9
ATOM      8  O   UNL     1      -0.430  12.636  23.028  0.00  0.00    +0.000 OA
ATOM      9  C   UNL     1      -0.973  11.931  22.188  0.00  0.00    +0.000 C 
ATOM     10  N   UNL     1      -2.203  12.245  21.604  0.00  0.00    +0.000 N 
ATOM     11  H   UNL     1      -2.715  11.552  21.062  0.00  0.00    +0.000 HD
BRANCH  10  12
ATOM     12  S   UNL     1      -3.154  13.522  22.034  0.00  0.00    +0.000 S 
ATOM     13  O   UNL     1      -3.600  13.253  23.382  0.00  0.00    +0.000 OA
ATOM     14  O   UNL     1      -2.486  14.760  21.709  0.00  0.00    +0.000 OA
BRANCH  12  15
ATOM     15  N   UNL     1      -4.481  13.345  21.021  0.00  0.00    +0.000 NA
ATOM     16  C   UNL     1      -4.462  12.473  19.801  0.00  0.00    +0.000 C 
ATOM     17  C   UNL     1      -5.967  12.167  19.967  0.00  0.00    +0.000 C 
ATOM     18  F   UNL     1      -6.333  10.869  19.853  0.00  0.00    +0.000 F 
ATOM     19  F   UNL     1      -6.809  12.878  19.177  0.00  0.00    +0.000 F 
ATOM     20  C   UNL     1      -5.781  12.698  21.400  0.00  0.00    +0.000 C 
ENDBRANCH  12  15
ENDBRANCH  10  12
ENDBRANCH   1   9
BRANCH   3  21
ATOM     21  C   UNL     1       1.042   9.586  18.321  0.00  0.00    +0.000 C 
ATOM     22  C   UNL     1       2.143  10.411  17.715  0.00  0.00    +0.000 C 
ATOM     23  C   UNL     1       2.252   8.910  17.731  0.00  0.00    +0.000 C 
ENDBRANCH   3  21
BRANCH   4  24
ATOM     24  O   UNL     1       1.794   7.421  20.172  0.00  0.00    +0.000 OA
BRANCH  24  25
ATOM     25  C   UNL     1       1.829   6.162  20.843  0.00  0.00    +0.000 C 
BRANCH  25  26
ATOM     26  C   UNL     1       2.388   5.082  19.888  0.00  0.00    +0.000 C 
ATOM     27  C   UNL     1       2.074   3.653  20.403  0.00  0.00    +0.000 C 
ATOM     28  C   UNL     1       2.636   2.589  19.443  0.00  0.00    +0.000 C 
ATOM     29  C   UNL     1       1.999   2.773  18.057  0.00  0.00    +0.000 C 
ATOM     30  C   UNL     1       2.312   4.177  17.516  0.00  0.00    +0.000 C 
ATOM     31  C   UNL     1       3.836   4.347  17.405  0.00  0.00    +0.000 C 
ATOM     32  C   UNL     1       4.488   4.163  18.784  0.00  0.00    +0.000 C 
ATOM     33  C   UNL     1       4.159   2.763  19.327  0.00  0.00    +0.000 C 
ATOM     34  C   UNL     1       3.926   5.218  19.748  0.00  0.00    +0.000 C 
ATOM     35  C   UNL     1       1.752   5.234  18.485  0.00  0.00    +0.000 C 
ENDBRANCH  25  26
ENDBRANCH  24  25
ENDBRANCH   4  24
TORSDOF 7
ENDMDL
MODEL 7
REMARK VINA RESULT:      -8.5      1.811      2.389
REMARK  Name = 
REMARK  7 active torsions:
REMARK  status: ('A' for Active; 'I' for Inactive)
REMARK    1  A    between atoms: C_2  and  C_13
REMARK    2  A    between atoms: N_3  and  S_4
REMARK    3  A    between atoms: S_4  and  N_7
REMARK    4  A    between atoms: C_15  and  C_16
REMARK    5  A    between atoms: C_19  and  O_20
REMARK    6  A    between atoms: O_20  and  C_21
REMARK    7  A    between atoms: C_21  and  C_22
REMARK                            x       y       z     vdW  Elec       q    Type
REMARK                         _______ _______ _______ _____ _____    ______ ____
ROOT
ATOM      1  C   UNL     1      -0.143  10.625  21.825  0.00  0.00    +0.000 A 
ATOM      2  C   UNL     1       0.197  10.555  20.465  0.00  0.00    +0.000 A 
ATOM      3  C   UNL     1       0.844   9.439  19.887  0.00  0.00    +0.000 A 
ATOM      4  C   UNL     1       1.168   8.370  20.761  0.00  0.00    +0.000 A 
ATOM      5  C   UNL     1       0.794   8.415  22.113  0.00  0.00    +0.000 A 
ATOM      6  C   UNL     1       0.139   9.533  22.630  0.00  0.00    +0.000 A 
ATOM      7  F   UNL     1      -0.196   9.529  23.929  0.00  0.00    +0.000 F 
ENDROOT
BRANCH   1   9
ATOM      8  O   UNL     1      -0.105  12.754  22.781  0.00  0.00    +0.000 OA
ATOM      9  C   UNL     1      -0.796  11.867  22.298  0.00  0.00    +0.000 C 
ATOM     10  N   UNL     1      -2.180  11.975  22.140  0.00  0.00    +0.000 N 
ATOM     11  H   UNL     1      -2.745  11.157  21.921  0.00  0.00    +0.000 HD
BRANCH  10  12
ATOM     12  S   UNL     1      -3.098  13.235  22.678  0.00  0.00    +0.000 S 
ATOM     13  O   UNL     1      -3.712  12.787  23.907  0.00  0.00    +0.000 OA
ATOM     14  O   UNL     1      -2.324  14.454  22.640  0.00  0.00    +0.000 OA
BRANCH  12  15
ATOM     15  N   UNL     1      -4.305  13.328  21.517  0.00  0.00    +0.000 NA
ATOM     16  C   UNL     1      -4.180  12.701  20.161  0.00  0.00    +0.000 C 
ATOM     17  C   UNL     1      -5.705  12.457  20.106  0.00  0.00    +0.000 C 
ATOM     18  F   UNL     1      -6.103  11.227  19.707  0.00  0.00    +0.000 F 
ATOM     19  F   UNL     1      -6.424  13.352  19.384  0.00  0.00    +0.000 F 
ATOM     20  C   UNL     1      -5.664  12.699  21.626  0.00  0.00    +0.000 C 
ENDBRANCH  12  15
ENDBRANCH  10  12
ENDBRANCH   1   9
BRANCH   3  21
ATOM     21  C   UNL     1       1.089   9.503  18.378  0.00  0.00    +0.000 C 
ATOM     22  C   UNL     1       2.136  10.374  17.743  0.00  0.00    +0.000 C 
ATOM     23  C   UNL     1       2.317   8.880  17.768  0.00  0.00    +0.000 C 
ENDBRANCH   3  21
BRANCH   4  24
ATOM     24  O   UNL     1       1.852   7.322  20.205  0.00  0.00    +0.000 OA
BRANCH  24  25
ATOM     25  C   UNL     1       1.703   6.009  20.745  0.00  0.00    +0.000 C 
BRANCH  25  26
ATOM     26  C   UNL     1       2.371   4.982  19.802  0.00  0.00    +0.000 C 
ATOM     27  C   UNL     1       3.897   5.228  19.685  0.00  0.00    +0.000 C 
ATOM     28  C   UNL     1       4.548   4.199  18.744  0.00  0.00    +0.000 C 
ATOM     29  C   UNL     1       4.311   2.786  19.298  0.00  0.00    +0.000 C 
ATOM     30  C   UNL     1       2.803   2.510  19.406  0.00  0.00    +0.000 C 
ATOM     31  C   UNL     1       2.167   2.625  18.011  0.00  0.00    +0.000 C 
ATOM     32  C   UNL     1       2.398   4.032  17.442  0.00  0.00    +0.000 C 
ATOM     33  C   UNL     1       3.908   4.309  17.350  0.00  0.00    +0.000 C 
ATOM     34  C   UNL     1       1.757   5.064  18.380  0.00  0.00    +0.000 C 
ATOM     35  C   UNL     1       2.159   3.547  20.345  0.00  0.00    +0.000 C 
ENDBRANCH  25  26
ENDBRANCH  24  25
ENDBRANCH   4  24
TORSDOF 7
ENDMDL
MODEL 8
REMARK VINA RESULT:      -8.5      5.570     10.462
REMARK  Name = 
REMARK  7 active torsions:
REMARK  status: ('A' for Active; 'I' for Inactive)
REMARK    1  A    between atoms: C_2  and  C_13
REMARK    2  A    between atoms: N_3  and  S_4
REMARK    3  A    between atoms: S_4  and  N_7
REMARK    4  A    between atoms: C_15  and  C_16
REMARK    5  A    between atoms: C_19  and  O_20
REMARK    6  A    between atoms: O_20  and  C_21
REMARK    7  A    between atoms: C_21  and  C_22
REMARK                            x       y       z     vdW  Elec       q    Type
REMARK                         _______ _______ _______ _____ _____    ______ ____
ROOT
ATOM      1  C   UNL     1       2.394   7.266  19.447  0.00  0.00    +0.000 A 
ATOM      2  C   UNL     1       1.907   7.713  20.685  0.00  0.00    +0.000 A 
ATOM      3  C   UNL     1       1.211   8.933  20.846  0.00  0.00    +0.000 A 
ATOM      4  C   UNL     1       1.039   9.724  19.682  0.00  0.00    +0.000 A 
ATOM      5  C   UNL     1       1.488   9.265  18.434  0.00  0.00    +0.000 A 
ATOM      6  C   UNL     1       2.152   8.043  18.326  0.00  0.00    +0.000 A 
ATOM      7  F   UNL     1       2.563   7.647  17.111  0.00  0.00    +0.000 F 
ENDROOT
BRANCH   1   9
ATOM      8  O   UNL     1       2.846   5.125  20.262  0.00  0.00    +0.000 OA
ATOM      9  C   UNL     1       3.127   5.979  19.431  0.00  0.00    +0.000 C 
ATOM     10  N   UNL     1       4.091   5.792  18.438  0.00  0.00    +0.000 N 
ATOM     11  H   UNL     1       4.437   6.579  17.892  0.00  0.00    +0.000 HD
BRANCH  10  12
ATOM     12  S   UNL     1       5.069   4.471  18.305  0.00  0.00    +0.000 S 
ATOM     13  O   UNL     1       6.062   4.601  19.347  0.00  0.00    +0.000 OA
ATOM     14  O   UNL     1       4.263   3.276  18.196  0.00  0.00    +0.000 OA
BRANCH  12  15
ATOM     15  N   UNL     1       5.840   4.734  16.839  0.00  0.00    +0.000 NA
ATOM     16  C   UNL     1       6.043   3.652  15.820  0.00  0.00    +0.000 C 
ATOM     17  C   UNL     1       5.949   4.681  14.672  0.00  0.00    +0.000 C 
ATOM     18  F   UNL     1       5.155   4.346  13.628  0.00  0.00    +0.000 F 
ATOM     19  F   UNL     1       7.128   5.094  14.147  0.00  0.00    +0.000 F 
ATOM     20  C   UNL     1       5.325   5.607  15.732  0.00  0.00    +0.000 C 
ENDBRANCH  12  15
ENDBRANCH  10  12
ENDBRANCH   1   9
BRANCH   3  21
ATOM     21  C   UNL     1       0.697   9.240  22.254  0.00  0.00    +0.000 C 
ATOM     22  C   UNL     1      -0.296  10.327  22.557  0.00  0.00    +0.000 C 
ATOM     23  C   UNL     1      -0.710   8.884  22.658  0.00  0.00    +0.000 C 
ENDBRANCH   3  21
BRANCH   4  24
ATOM     24  O   UNL     1       0.422  10.934  19.859  0.00  0.00    +0.000 OA
BRANCH  24  25
ATOM     25  C   UNL     1       0.363  11.867  18.780  0.00  0.00    +0.000 C 
BRANCH  25  26
ATOM     26  C   UNL     1       1.185  13.126  19.139  0.00  0.00    +0.000 C 
ATOM     27  C   UNL     1       1.542  13.159  20.648  0.00  0.00    +0.000 C 
ATOM     28  C   UNL     1       2.361  14.417  20.989  0.00  0.00    +0.000 C 
ATOM     29  C   UNL     1       3.659  14.414  20.168  0.00  0.00    +0.000 C 
ATOM     30  C   UNL     1       3.332  14.400  18.667  0.00  0.00    +0.000 C 
ATOM     31  C   UNL     1       2.510  15.651  18.318  0.00  0.00    +0.000 C 
ATOM     32  C   UNL     1       1.208  15.670  19.133  0.00  0.00    +0.000 C 
ATOM     33  C   UNL     1       1.541  15.669  20.634  0.00  0.00    +0.000 C 
ATOM     34  C   UNL     1       0.390  14.414  18.802  0.00  0.00    +0.000 C 
ATOM     35  C   UNL     1       2.509  13.142  18.335  0.00  0.00    +0.000 C 
ENDBRANCH  25  26
ENDBRANCH  24  25
ENDBRANCH   4  24
TORSDOF 7
ENDMDL
MODEL 9
REMARK VINA RESULT:      -8.4      0.774      1.495
REMARK  Name = 
REMARK  7 active torsions:
REMARK  status: ('A' for Active; 'I' for Inactive)
REMARK    1  A    between atoms: C_2  and  C_13
REMARK    2  A    between atoms: N_3  and  S_4
REMARK    3  A    between atoms: S_4  and  N_7
REMARK    4  A    between atoms: C_15  and  C_16
REMARK    5  A    between atoms: C_19  and  O_20
REMARK    6  A    between atoms: O_20  and  C_21
REMARK    7  A    between atoms: C_21  and  C_22
REMARK                            x       y       z     vdW  Elec       q    Type
REMARK                         _______ _______ _______ _____ _____    ______ ____
ROOT
ATOM      1  C   UNL     1       0.287  10.793  21.530  0.00  0.00    +0.000 A 
ATOM      2  C   UNL     1       0.690  10.432  20.234  0.00  0.00    +0.000 A 
ATOM      3  C   UNL     1       0.933   9.095  19.845  0.00  0.00    +0.000 A 
ATOM      4  C   UNL     1       0.772   8.103  20.847  0.00  0.00    +0.000 A 
ATOM      5  C   UNL     1       0.330   8.452  22.132  0.00  0.00    +0.000 A 
ATOM      6  C   UNL     1       0.086   9.786  22.460  0.00  0.00    +0.000 A 
ATOM      7  F   UNL     1      -0.335  10.069  23.702  0.00  0.00    +0.000 F 
ENDROOT
BRANCH   1   9
ATOM      8  O   UNL     1       1.027  13.005  21.617  0.00  0.00    +0.000 OA
ATOM      9  C   UNL     1       0.094  12.236  21.803  0.00  0.00    +0.000 C 
ATOM     10  N   UNL     1      -1.168  12.652  22.235  0.00  0.00    +0.000 N 
ATOM     11  H   UNL     1      -1.855  11.977  22.565  0.00  0.00    +0.000 HD
BRANCH  10  12
ATOM     12  S   UNL     1      -1.556  14.194  22.672  0.00  0.00    +0.000 S 
ATOM     13  O   UNL     1      -0.761  14.492  23.841  0.00  0.00    +0.000 OA
ATOM     14  O   UNL     1      -1.517  15.054  21.512  0.00  0.00    +0.000 OA
BRANCH  12  15
ATOM     15  N   UNL     1      -3.150  14.040  23.173  0.00  0.00    +0.000 NA
ATOM     16  C   UNL     1      -3.960  12.799  22.943  0.00  0.00    +0.000 C 
ATOM     17  C   UNL     1      -4.755  13.047  24.244  0.00  0.00    +0.000 C 
ATOM     18  F   UNL     1      -4.915  11.981  25.063  0.00  0.00    +0.000 F 
ATOM     19  F   UNL     1      -5.979  13.609  24.093  0.00  0.00    +0.000 F 
ATOM     20  C   UNL     1      -3.611  14.014  24.601  0.00  0.00    +0.000 C 
ENDBRANCH  12  15
ENDBRANCH  10  12
ENDBRANCH   1   9
BRANCH   3  21
ATOM     21  C   UNL     1       1.308   8.872  18.380  0.00  0.00    +0.000 C 
ATOM     22  C   UNL     1       2.096   9.858  17.564  0.00  0.00    +0.000 C 
ATOM     23  C   UNL     1       2.728   8.559  17.985  0.00  0.00    +0.000 C 
ENDBRANCH   3  21
BRANCH   4  24
ATOM     24  O   UNL     1       1.072   6.818  20.479  0.00  0.00    +0.000 OA
BRANCH  24  25
ATOM     25  C   UNL     1       2.395   6.316  20.662  0.00  0.00    +0.000 C 
BRANCH  25  26
ATOM     26  C   UNL     1       2.579   5.025  19.832  0.00  0.00    +0.000 C 
ATOM     27  C   UNL     1       1.815   5.104  18.484  0.00  0.00    +0.000 C 
ATOM     28  C   UNL     1       2.006   3.812  17.670  0.00  0.00    +0.000 C 
ATOM     29  C   UNL     1       3.502   3.611  17.385  0.00  0.00    +0.000 C 
ATOM     30  C   UNL     1       4.280   3.512  18.706  0.00  0.00    +0.000 C 
ATOM     31  C   UNL     1       3.750   2.317  19.516  0.00  0.00    +0.000 C 
ATOM     32  C   UNL     1       2.253   2.502  19.806  0.00  0.00    +0.000 C 
ATOM     33  C   UNL     1       1.481   2.616  18.482  0.00  0.00    +0.000 C 
ATOM     34  C   UNL     1       2.054   3.793  20.614  0.00  0.00    +0.000 C 
ATOM     35  C   UNL     1       4.079   4.805  19.517  0.00  0.00    +0.000 C 
ENDBRANCH  25  26
ENDBRANCH  24  25
ENDBRANCH   4  24
TORSDOF 7
ENDMDL
