MODEL 1
REMARK VINA RESULT:      -9.4      0.000      0.000
REMARK  Name = 
REMARK  6 active torsions:
REMARK  status: ('A' for Active; 'I' for Inactive)
REMARK    1  A    between atoms: C_1  and  C_2
REMARK    2  A    between atoms: C_5  and  C_6
REMARK    3  A    between atoms: C_6  and  O_7
REMARK    4  A    between atoms: C_6  and  C_17
REMARK    5  A    between atoms: O_7  and  C_8
REMARK    6  A    between atoms: N_15  and  C_16
REMARK                            x       y       z     vdW  Elec       q    Type
REMARK                         _______ _______ _______ _____ _____    ______ ____
ROOT
ATOM      1  C   UNL     1       3.012   6.169  19.648  0.00  0.00    +0.000 C 
ENDROOT
BRANCH   1   6
ATOM      2  C   UNL     1      -0.239  10.962  18.679  0.00  0.00    +0.000 C 
ATOM      3  C   UNL     1       0.703   9.824  18.935  0.00  0.00    +0.000 A 
ATOM      4  C   UNL     1       1.415   9.233  17.890  0.00  0.00    +0.000 A 
ATOM      5  C   UNL     1       2.192   8.091  18.111  0.00  0.00    +0.000 A 
ATOM      6  C   UNL     1       2.324   7.523  19.392  0.00  0.00    +0.000 A 
ATOM      7  C   UNL     1       1.630   8.149  20.447  0.00  0.00    +0.000 A 
ATOM      8  C   UNL     1       0.834   9.284  20.222  0.00  0.00    +0.000 A 
ENDBRANCH   1   6
BRANCH   1   9
ATOM      9  C   UNL     1       2.197   4.877  19.511  0.00  0.00    +0.000 A 
ATOM     10  C   UNL     1       1.738   4.386  18.272  0.00  0.00    +0.000 A 
ATOM     11  C   UNL     1       1.318   3.062  18.134  0.00  0.00    +0.000 A 
ATOM     12  C   UNL     1       1.235   2.236  19.250  0.00  0.00    +0.000 A 
ATOM     13  C   UNL     1       1.523   2.752  20.509  0.00  0.00    +0.000 A 
ATOM     14  C   UNL     1       2.005   4.057  20.639  0.00  0.00    +0.000 A 
ENDBRANCH   1   9
BRANCH   1  15
ATOM     15  O   UNL     1       4.384   6.003  19.163  0.00  0.00    +0.000 OA
BRANCH  15  16
ATOM     16  C   UNL     1       4.605   5.544  17.817  0.00  0.00    +0.000 C 
ATOM     17  C   UNL     1       5.476   4.297  17.723  0.00  0.00    +0.000 C 
ATOM     18  C   UNL     1       6.978   4.534  17.671  0.00  0.00    +0.000 C 
ATOM     19  C   UNL     1       7.530   5.482  18.743  0.00  0.00    +0.000 C 
ATOM     20  C   UNL     1       7.467   6.870  18.088  0.00  0.00    +0.000 C 
ATOM     21  C   UNL     1       6.765   6.615  16.752  0.00  0.00    +0.000 C 
ATOM     22  C   UNL     1       5.224   6.671  16.940  0.00  0.00    +0.000 C 
ATOM     23  N   UNL     1       7.328   5.289  16.477  0.00  0.00    +0.000 NA
ATOM     24  C   UNL     1       7.014   4.640  15.219  0.00  0.00    +0.000 C 
ENDBRANCH  15  16
ENDBRANCH   1  15
TORSDOF 4
ENDMDL
MODEL 2
REMARK VINA RESULT:      -9.3      0.272      1.018
REMARK  Name = 
REMARK  6 active torsions:
REMARK  status: ('A' for Active; 'I' for Inactive)
REMARK    1  A    between atoms: C_1  and  C_2
REMARK    2  A    between atoms: C_5  and  C_6
REMARK    3  A    between atoms: C_6  and  O_7
REMARK    4  A    between atoms: C_6  and  C_17
REMARK    5  A    between atoms: O_7  and  C_8
REMARK    6  A    between atoms: N_15  and  C_16
REMARK                            x       y       z     vdW  Elec       q    Type
REMARK                         _______ _______ _______ _____ _____    ______ ____
ROOT
ATOM      1  C   UNL     1       3.197   6.108  19.684  0.00  0.00    +0.000 C 
ENDROOT
BRANCH   1   6
ATOM      2  C   UNL     1      -0.332  10.690  18.669  0.00  0.00    +0.000 C 
ATOM      3  C   UNL     1       0.676   9.613  18.938  0.00  0.00    +0.000 A 
ATOM      4  C   UNL     1       1.441   9.072  17.905  0.00  0.00    +0.000 A 
ATOM      5  C   UNL     1       2.285   7.980  18.137  0.00  0.00    +0.000 A 
ATOM      6  C   UNL     1       2.430   7.417  19.418  0.00  0.00    +0.000 A 
ATOM      7  C   UNL     1       1.680   7.995  20.463  0.00  0.00    +0.000 A 
ATOM      8  C   UNL     1       0.817   9.078  20.226  0.00  0.00    +0.000 A 
ENDBRANCH   1   6
BRANCH   1   9
ATOM      9  C   UNL     1       2.448   4.772  19.604  0.00  0.00    +0.000 A 
ATOM     10  C   UNL     1       2.129   4.002  20.741  0.00  0.00    +0.000 A 
ATOM     11  C   UNL     1       1.164   2.996  20.680  0.00  0.00    +0.000 A 
ATOM     12  C   UNL     1       0.584   2.658  19.461  0.00  0.00    +0.000 A 
ATOM     13  C   UNL     1       1.010   3.292  18.299  0.00  0.00    +0.000 A 
ATOM     14  C   UNL     1       1.928   4.343  18.369  0.00  0.00    +0.000 A 
ENDBRANCH   1   9
BRANCH   1  15
ATOM     15  O   UNL     1       4.559   6.002  19.157  0.00  0.00    +0.000 OA
BRANCH  15  16
ATOM     16  C   UNL     1       4.759   5.570  17.799  0.00  0.00    +0.000 C 
ATOM     17  C   UNL     1       5.635   4.330  17.666  0.00  0.00    +0.000 C 
ATOM     18  C   UNL     1       7.134   4.575  17.592  0.00  0.00    +0.000 C 
ATOM     19  C   UNL     1       7.700   5.508  18.671  0.00  0.00    +0.000 C 
ATOM     20  C   UNL     1       7.619   6.906  18.043  0.00  0.00    +0.000 C 
ATOM     21  C   UNL     1       6.894   6.672  16.715  0.00  0.00    +0.000 C 
ATOM     22  C   UNL     1       5.356   6.716  16.931  0.00  0.00    +0.000 C 
ATOM     23  N   UNL     1       7.459   5.354  16.406  0.00  0.00    +0.000 NA
ATOM     24  C   UNL     1       7.125   4.726  15.142  0.00  0.00    +0.000 C 
ENDBRANCH  15  16
ENDBRANCH   1  15
TORSDOF 4
ENDMDL
MODEL 3
REMARK VINA RESULT:      -9.2      0.291      1.416
REMARK  Name = 
REMARK  6 active torsions:
REMARK  status: ('A' for Active; 'I' for Inactive)
REMARK    1  A    between atoms: C_1  and  C_2
REMARK    2  A    between atoms: C_5  and  C_6
REMARK    3  A    between atoms: C_6  and  O_7
REMARK    4  A    between atoms: C_6  and  C_17
REMARK    5  A    between atoms: O_7  and  C_8
REMARK    6  A    between atoms: N_15  and  C_16
REMARK                            x       y       z     vdW  Elec       q    Type
REMARK                         _______ _______ _______ _____ _____    ______ ____
ROOT
ATOM      1  C   UNL     1       3.104   6.121  19.686  0.00  0.00    +0.000 C 
ENDROOT
BRANCH   1   6
ATOM      2  C   UNL     1       0.495  11.309  18.816  0.00  0.00    +0.000 C 
ATOM      3  C   UNL     1       1.035   9.924  19.016  0.00  0.00    +0.000 A 
ATOM      4  C   UNL     1       0.955   9.297  20.259  0.00  0.00    +0.000 A 
ATOM      5  C   UNL     1       1.574   8.060  20.476  0.00  0.00    +0.000 A 
ATOM      6  C   UNL     1       2.256   7.384  19.448  0.00  0.00    +0.000 A 
ATOM      7  C   UNL     1       2.298   8.010  18.186  0.00  0.00    +0.000 A 
ATOM      8  C   UNL     1       1.695   9.260  17.973  0.00  0.00    +0.000 A 
ENDBRANCH   1   6
BRANCH   1   9
ATOM      9  C   UNL     1       2.437   4.743  19.600  0.00  0.00    +0.000 A 
ATOM     10  C   UNL     1       2.260   3.904  20.718  0.00  0.00    +0.000 A 
ATOM     11  C   UNL     1       1.358   2.839  20.684  0.00  0.00    +0.000 A 
ATOM     12  C   UNL     1       0.703   2.518  19.500  0.00  0.00    +0.000 A 
ATOM     13  C   UNL     1       0.993   3.229  18.340  0.00  0.00    +0.000 A 
ATOM     14  C   UNL     1       1.846   4.335  18.389  0.00  0.00    +0.000 A 
ENDBRANCH   1   9
BRANCH   1  15
ATOM     15  O   UNL     1       4.463   6.104  19.139  0.00  0.00    +0.000 OA
BRANCH  15  16
ATOM     16  C   UNL     1       4.687   5.567  17.822  0.00  0.00    +0.000 C 
ATOM     17  C   UNL     1       5.595   4.344  17.800  0.00  0.00    +0.000 C 
ATOM     18  C   UNL     1       7.089   4.622  17.717  0.00  0.00    +0.000 C 
ATOM     19  C   UNL     1       7.620   5.655  18.719  0.00  0.00    +0.000 C 
ATOM     20  C   UNL     1       7.509   6.994  17.977  0.00  0.00    +0.000 C 
ATOM     21  C   UNL     1       6.804   6.632  16.668  0.00  0.00    +0.000 C 
ATOM     22  C   UNL     1       5.263   6.653  16.868  0.00  0.00    +0.000 C 
ATOM     23  N   UNL     1       7.405   5.308  16.473  0.00  0.00    +0.000 NA
ATOM     24  C   UNL     1       7.100   4.570  15.263  0.00  0.00    +0.000 C 
ENDBRANCH  15  16
ENDBRANCH   1  15
TORSDOF 4
ENDMDL
MODEL 4
REMARK VINA RESULT:      -9.2      0.297      1.024
REMARK  Name = 
REMARK  6 active torsions:
REMARK  status: ('A' for Active; 'I' for Inactive)
REMARK    1  A    between atoms: C_1  and  C_2
REMARK    2  A    between atoms: C_5  and  C_6
REMARK    3  A    between atoms: C_6  and  O_7
REMARK    4  A    between atoms: C_6  and  C_17
REMARK    5  A    between atoms: O_7  and  C_8
REMARK    6  A    between atoms: N_15  and  C_16
REMARK                            x       y       z     vdW  Elec       q    Type
REMARK                         _______ _______ _______ _____ _____    ______ ____
ROOT
ATOM      1  C   UNL     1       3.035   6.119  19.651  0.00  0.00    +0.000 C 
ENDROOT
BRANCH   1   6
ATOM      2  C   UNL     1       0.506  11.349  18.799  0.00  0.00    +0.000 C 
ATOM      3  C   UNL     1       1.025   9.956  18.994  0.00  0.00    +0.000 A 
ATOM      4  C   UNL     1       0.933   9.324  20.234  0.00  0.00    +0.000 A 
ATOM      5  C   UNL     1       1.532   8.077  20.447  0.00  0.00    +0.000 A 
ATOM      6  C   UNL     1       2.206   7.396  19.417  0.00  0.00    +0.000 A 
ATOM      7  C   UNL     1       2.262   8.027  18.158  0.00  0.00    +0.000 A 
ATOM      8  C   UNL     1       1.678   9.287  17.949  0.00  0.00    +0.000 A 
ENDBRANCH   1   6
BRANCH   1   9
ATOM      9  C   UNL     1       2.348   4.751  19.556  0.00  0.00    +0.000 A 
ATOM     10  C   UNL     1       1.659   4.316  18.406  0.00  0.00    +0.000 A 
ATOM     11  C   UNL     1       1.356   2.967  18.217  0.00  0.00    +0.000 A 
ATOM     12  C   UNL     1       1.627   2.043  19.221  0.00  0.00    +0.000 A 
ATOM     13  C   UNL     1       2.153   2.480  20.432  0.00  0.00    +0.000 A 
ATOM     14  C   UNL     1       2.516   3.819  20.597  0.00  0.00    +0.000 A 
ENDBRANCH   1   9
BRANCH   1  15
ATOM     15  O   UNL     1       4.395   6.085  19.108  0.00  0.00    +0.000 OA
BRANCH  15  16
ATOM     16  C   UNL     1       4.611   5.582  17.776  0.00  0.00    +0.000 C 
ATOM     17  C   UNL     1       5.456   4.315  17.723  0.00  0.00    +0.000 C 
ATOM     18  C   UNL     1       6.963   4.519  17.669  0.00  0.00    +0.000 C 
ATOM     19  C   UNL     1       7.531   5.488  18.714  0.00  0.00    +0.000 C 
ATOM     20  C   UNL     1       7.499   6.856  18.017  0.00  0.00    +0.000 C 
ATOM     21  C   UNL     1       6.796   6.576  16.687  0.00  0.00    +0.000 C 
ATOM     22  C   UNL     1       5.255   6.669  16.868  0.00  0.00    +0.000 C 
ATOM     23  N   UNL     1       7.332   5.230  16.454  0.00  0.00    +0.000 NA
ATOM     24  C   UNL     1       7.008   4.550  15.215  0.00  0.00    +0.000 C 
ENDBRANCH  15  16
ENDBRANCH   1  15
TORSDOF 4
ENDMDL
MODEL 5
REMARK VINA RESULT:      -9.0      1.318      2.078
REMARK  Name = 
REMARK  6 active torsions:
REMARK  status: ('A' for Active; 'I' for Inactive)
REMARK    1  A    between atoms: C_1  and  C_2
REMARK    2  A    between atoms: C_5  and  C_6
REMARK    3  A    between atoms: C_6  and  O_7
REMARK    4  A    between atoms: C_6  and  C_17
REMARK    5  A    between atoms: O_7  and  C_8
REMARK    6  A    between atoms: N_15  and  C_16
REMARK                            x       y       z     vdW  Elec       q    Type
REMARK                         _______ _______ _______ _____ _____    ______ ____
ROOT
ATOM      1  C   UNL     1       2.498   6.512  19.494  0.00  0.00    +0.000 C 
ENDROOT
BRANCH   1   6
ATOM      2  C   UNL     1      -0.765  11.191  20.886  0.00  0.00    +0.000 C 
ATOM      3  C   UNL     1       0.182  10.072  20.567  0.00  0.00    +0.000 A 
ATOM      4  C   UNL     1       0.811   9.999  19.324  0.00  0.00    +0.000 A 
ATOM      5  C   UNL     1       1.590   8.887  18.984  0.00  0.00    +0.000 A 
ATOM      6  C   UNL     1       1.807   7.831  19.888  0.00  0.00    +0.000 A 
ATOM      7  C   UNL     1       1.197   7.934  21.154  0.00  0.00    +0.000 A 
ATOM      8  C   UNL     1       0.398   9.039  21.489  0.00  0.00    +0.000 A 
ENDBRANCH   1   6
BRANCH   1   9
ATOM      9  C   UNL     1       1.941   5.186  20.029  0.00  0.00    +0.000 A 
ATOM     10  C   UNL     1       1.094   4.349  19.275  0.00  0.00    +0.000 A 
ATOM     11  C   UNL     1       0.893   3.016  19.636  0.00  0.00    +0.000 A 
ATOM     12  C   UNL     1       1.436   2.524  20.818  0.00  0.00    +0.000 A 
ATOM     13  C   UNL     1       2.135   3.381  21.661  0.00  0.00    +0.000 A 
ATOM     14  C   UNL     1       2.391   4.697  21.270  0.00  0.00    +0.000 A 
ENDBRANCH   1   9
BRANCH   1  15
ATOM     15  O   UNL     1       2.983   6.384  18.118  0.00  0.00    +0.000 OA
BRANCH  15  16
ATOM     16  C   UNL     1       4.396   6.460  17.858  0.00  0.00    +0.000 C 
ATOM     17  C   UNL     1       4.796   5.987  16.466  0.00  0.00    +0.000 C 
ATOM     18  C   UNL     1       5.056   4.496  16.315  0.00  0.00    +0.000 C 
ATOM     19  C   UNL     1       3.969   3.579  16.892  0.00  0.00    +0.000 C 
ATOM     20  C   UNL     1       4.413   3.331  18.340  0.00  0.00    +0.000 C 
ATOM     21  C   UNL     1       5.641   4.229  18.508  0.00  0.00    +0.000 C 
ATOM     22  C   UNL     1       5.202   5.661  18.923  0.00  0.00    +0.000 C 
ATOM     23  N   UNL     1       6.178   4.094  17.150  0.00  0.00    +0.000 NA
ATOM     24  C   UNL     1       7.445   4.723  16.830  0.00  0.00    +0.000 C 
ENDBRANCH  15  16
ENDBRANCH   1  15
TORSDOF 4
ENDMDL
MODEL 6
REMARK VINA RESULT:      -8.9      1.314      2.292
REMARK  Name = 
REMARK  6 active torsions:
REMARK  status: ('A' for Active; 'I' for Inactive)
REMARK    1  A    between atoms: C_1  and  C_2
REMARK    2  A    between atoms: C_5  and  C_6
REMARK    3  A    between atoms: C_6  and  O_7
REMARK    4  A    between atoms: C_6  and  C_17
REMARK    5  A    between atoms: O_7  and  C_8
REMARK    6  A    between atoms: N_15  and  C_16
REMARK                            x       y       z     vdW  Elec       q    Type
REMARK                         _______ _______ _______ _____ _____    ______ ____
ROOT
ATOM      1  C   UNL     1       2.445   6.503  19.496  0.00  0.00    +0.000 C 
ENDROOT
BRANCH   1   6
ATOM      2  C   UNL     1       0.319  11.781  20.944  0.00  0.00    +0.000 C 
ATOM      3  C   UNL     1       0.728  10.390  20.562  0.00  0.00    +0.000 A 
ATOM      4  C   UNL     1       0.814   9.380  21.520  0.00  0.00    +0.000 A 
ATOM      5  C   UNL     1       1.319   8.118  21.184  0.00  0.00    +0.000 A 
ATOM      6  C   UNL     1       1.714   7.806  19.870  0.00  0.00    +0.000 A 
ATOM      7  C   UNL     1       1.589   8.823  18.903  0.00  0.00    +0.000 A 
ATOM      8  C   UNL     1       1.101  10.095  19.243  0.00  0.00    +0.000 A 
ENDBRANCH   1   6
BRANCH   1   9
ATOM      9  C   UNL     1       1.912   5.166  20.026  0.00  0.00    +0.000 A 
ATOM     10  C   UNL     1       1.091   4.310  19.264  0.00  0.00    +0.000 A 
ATOM     11  C   UNL     1       0.915   2.973  19.624  0.00  0.00    +0.000 A 
ATOM     12  C   UNL     1       1.458   2.494  20.812  0.00  0.00    +0.000 A 
ATOM     13  C   UNL     1       2.129   3.366  21.662  0.00  0.00    +0.000 A 
ATOM     14  C   UNL     1       2.360   4.688  21.271  0.00  0.00    +0.000 A 
ENDBRANCH   1   9
BRANCH   1  15
ATOM     15  O   UNL     1       2.958   6.382  18.129  0.00  0.00    +0.000 OA
BRANCH  15  16
ATOM     16  C   UNL     1       4.376   6.466  17.898  0.00  0.00    +0.000 C 
ATOM     17  C   UNL     1       4.803   6.025  16.503  0.00  0.00    +0.000 C 
ATOM     18  C   UNL     1       5.069   4.538  16.323  0.00  0.00    +0.000 C 
ATOM     19  C   UNL     1       3.972   3.607  16.858  0.00  0.00    +0.000 C 
ATOM     20  C   UNL     1       4.390   3.326  18.309  0.00  0.00    +0.000 C 
ATOM     21  C   UNL     1       5.612   4.222  18.520  0.00  0.00    +0.000 C 
ATOM     22  C   UNL     1       5.163   5.644  18.959  0.00  0.00    +0.000 C 
ATOM     23  N   UNL     1       6.176   4.119  17.170  0.00  0.00    +0.000 NA
ATOM     24  C   UNL     1       7.447   4.757  16.889  0.00  0.00    +0.000 C 
ENDBRANCH  15  16
ENDBRANCH   1  15
TORSDOF 4
ENDMDL
MODEL 7
REMARK VINA RESULT:      -8.5      1.276      2.200
REMARK  Name = 
REMARK  6 active torsions:
REMARK  status: ('A' for Active; 'I' for Inactive)
REMARK    1  A    between atoms: C_1  and  C_2
REMARK    2  A    between atoms: C_5  and  C_6
REMARK    3  A    between atoms: C_6  and  O_7
REMARK    4  A    between atoms: C_6  and  C_17
REMARK    5  A    between atoms: O_7  and  C_8
REMARK    6  A    between atoms: N_15  and  C_16
REMARK                            x       y       z     vdW  Elec       q    Type
REMARK                         _______ _______ _______ _____ _____    ______ ____
ROOT
ATOM      1  C   UNL     1       2.735   6.511  19.264  0.00  0.00    +0.000 C 
ENDROOT
BRANCH   1   6
ATOM      2  C   UNL     1      -0.811  10.890  20.917  0.00  0.00    +0.000 C 
ATOM      3  C   UNL     1       0.203   9.853  20.533  0.00  0.00    +0.000 A 
ATOM      4  C   UNL     1       0.818   9.881  19.282  0.00  0.00    +0.000 A 
ATOM      5  C   UNL     1       1.665   8.842  18.879  0.00  0.00    +0.000 A 
ATOM      6  C   UNL     1       1.964   7.761  19.728  0.00  0.00    +0.000 A 
ATOM      7  C   UNL     1       1.366   7.762  21.004  0.00  0.00    +0.000 A 
ATOM      8  C   UNL     1       0.500   8.794  21.402  0.00  0.00    +0.000 A 
ENDBRANCH   1   6
BRANCH   1   9
ATOM      9  C   UNL     1       2.314   5.133  19.789  0.00  0.00    +0.000 A 
ATOM     10  C   UNL     1       2.731   4.626  21.036  0.00  0.00    +0.000 A 
ATOM     11  C   UNL     1       2.070   3.553  21.635  0.00  0.00    +0.000 A 
ATOM     12  C   UNL     1       1.056   2.889  20.951  0.00  0.00    +0.000 A 
ATOM     13  C   UNL     1       0.744   3.268  19.650  0.00  0.00    +0.000 A 
ATOM     14  C   UNL     1       1.361   4.382  19.076  0.00  0.00    +0.000 A 
ENDBRANCH   1   9
BRANCH   1  15
ATOM     15  O   UNL     1       3.154   6.455  17.862  0.00  0.00    +0.000 OA
BRANCH  15  16
ATOM     16  C   UNL     1       4.554   6.549  17.539  0.00  0.00    +0.000 C 
ATOM     17  C   UNL     1       4.900   6.061  16.138  0.00  0.00    +0.000 C 
ATOM     18  C   UNL     1       5.179   4.572  15.998  0.00  0.00    +0.000 C 
ATOM     19  C   UNL     1       4.133   3.647  16.634  0.00  0.00    +0.000 C 
ATOM     20  C   UNL     1       4.643   3.428  18.066  0.00  0.00    +0.000 C 
ATOM     21  C   UNL     1       5.862   4.349  18.167  0.00  0.00    +0.000 C 
ATOM     22  C   UNL     1       5.418   5.779  18.580  0.00  0.00    +0.000 C 
ATOM     23  N   UNL     1       6.342   4.201  16.789  0.00  0.00    +0.000 NA
ATOM     24  C   UNL     1       7.583   4.845  16.405  0.00  0.00    +0.000 C 
ENDBRANCH  15  16
ENDBRANCH   1  15
TORSDOF 4
ENDMDL
MODEL 8
REMARK VINA RESULT:      -8.5      1.066      1.595
REMARK  Name = 
REMARK  6 active torsions:
REMARK  status: ('A' for Active; 'I' for Inactive)
REMARK    1  A    between atoms: C_1  and  C_2
REMARK    2  A    between atoms: C_5  and  C_6
REMARK    3  A    between atoms: C_6  and  O_7
REMARK    4  A    between atoms: C_6  and  C_17
REMARK    5  A    between atoms: O_7  and  C_8
REMARK    6  A    between atoms: N_15  and  C_16
REMARK                            x       y       z     vdW  Elec       q    Type
REMARK                         _______ _______ _______ _____ _____    ______ ____
ROOT
ATOM      1  C   UNL     1       2.700   5.866  19.046  0.00  0.00    +0.000 C 
ENDROOT
BRANCH   1   6
ATOM      2  C   UNL     1       0.083  11.118  19.241  0.00  0.00    +0.000 C 
ATOM      3  C   UNL     1       0.874   9.845  19.206  0.00  0.00    +0.000 A 
ATOM      4  C   UNL     1       1.435   9.382  18.015  0.00  0.00    +0.000 A 
ATOM      5  C   UNL     1       2.061   8.132  17.959  0.00  0.00    +0.000 A 
ATOM      6  C   UNL     1       2.190   7.318  19.099  0.00  0.00    +0.000 A 
ATOM      7  C   UNL     1       1.652   7.811  20.305  0.00  0.00    +0.000 A 
ATOM      8  C   UNL     1       1.006   9.057  20.358  0.00  0.00    +0.000 A 
ENDBRANCH   1   6
BRANCH   1   9
ATOM      9  C   UNL     1       2.042   4.807  19.939  0.00  0.00    +0.000 A 
ATOM     10  C   UNL     1       1.004   3.963  19.493  0.00  0.00    +0.000 A 
ATOM     11  C   UNL     1       0.673   2.800  20.190  0.00  0.00    +0.000 A 
ATOM     12  C   UNL     1       1.287   2.516  21.405  0.00  0.00    +0.000 A 
ATOM     13  C   UNL     1       2.193   3.423  21.946  0.00  0.00    +0.000 A 
ATOM     14  C   UNL     1       2.572   4.554  21.218  0.00  0.00    +0.000 A 
ENDBRANCH   1   9
BRANCH   1  15
ATOM     15  O   UNL     1       3.066   5.323  17.736  0.00  0.00    +0.000 OA
BRANCH  15  16
ATOM     16  C   UNL     1       4.254   4.521  17.611  0.00  0.00    +0.000 C 
ATOM     17  C   UNL     1       5.445   5.051  18.401  0.00  0.00    +0.000 C 
ATOM     18  C   UNL     1       6.312   6.080  17.692  0.00  0.00    +0.000 C 
ATOM     19  C   UNL     1       5.551   7.243  17.041  0.00  0.00    +0.000 C 
ATOM     20  C   UNL     1       5.269   6.757  15.612  0.00  0.00    +0.000 C 
ATOM     21  C   UNL     1       5.774   5.312  15.609  0.00  0.00    +0.000 C 
ATOM     22  C   UNL     1       4.661   4.355  16.118  0.00  0.00    +0.000 C 
ATOM     23  N   UNL     1       6.920   5.496  16.506  0.00  0.00    +0.000 NA
ATOM     24  C   UNL     1       7.806   4.375  16.753  0.00  0.00    +0.000 C 
ENDBRANCH  15  16
ENDBRANCH   1  15
TORSDOF 4
ENDMDL
MODEL 9
REMARK VINA RESULT:      -8.5      1.300      2.408
REMARK  Name = 
REMARK  6 active torsions:
REMARK  status: ('A' for Active; 'I' for Inactive)
REMARK    1  A    between atoms: C_1  and  C_2
REMARK    2  A    between atoms: C_5  and  C_6
REMARK    3  A    between atoms: C_6  and  O_7
REMARK    4  A    between atoms: C_6  and  C_17
REMARK    5  A    between atoms: O_7  and  C_8
REMARK    6  A    between atoms: N_15  and  C_16
REMARK                            x       y       z     vdW  Elec       q    Type
REMARK                         _______ _______ _______ _____ _____    ______ ____
ROOT
ATOM      1  C   UNL     1       2.647   6.506  19.310  0.00  0.00    +0.000 C 
ENDROOT
BRANCH   1   6
ATOM      2  C   UNL     1       0.076  11.495  21.037  0.00  0.00    +0.000 C 
ATOM      3  C   UNL     1       0.603  10.169  20.576  0.00  0.00    +0.000 A 
ATOM      4  C   UNL     1       0.738   9.103  21.466  0.00  0.00    +0.000 A 
ATOM      5  C   UNL     1       1.350   7.910  21.063  0.00  0.00    +0.000 A 
ATOM      6  C   UNL     1       1.807   7.721  19.746  0.00  0.00    +0.000 A 
ATOM      7  C   UNL     1       1.632   8.791  18.846  0.00  0.00    +0.000 A 
ATOM      8  C   UNL     1       1.037   9.996  19.254  0.00  0.00    +0.000 A 
ENDBRANCH   1   6
BRANCH   1   9
ATOM      9  C   UNL     1       2.273   5.112  19.827  0.00  0.00    +0.000 A 
ATOM     10  C   UNL     1       2.704   4.613  21.073  0.00  0.00    +0.000 A 
ATOM     11  C   UNL     1       2.079   3.514  21.663  0.00  0.00    +0.000 A 
ATOM     12  C   UNL     1       1.091   2.819  20.974  0.00  0.00    +0.000 A 
ATOM     13  C   UNL     1       0.769   3.194  19.673  0.00  0.00    +0.000 A 
ATOM     14  C   UNL     1       1.349   4.332  19.107  0.00  0.00    +0.000 A 
ENDBRANCH   1   9
BRANCH   1  15
ATOM     15  O   UNL     1       3.111   6.466  17.922  0.00  0.00    +0.000 OA
BRANCH  15  16
ATOM     16  C   UNL     1       4.521   6.559  17.646  0.00  0.00    +0.000 C 
ATOM     17  C   UNL     1       4.907   6.118  16.240  0.00  0.00    +0.000 C 
ATOM     18  C   UNL     1       5.178   4.632  16.056  0.00  0.00    +0.000 C 
ATOM     19  C   UNL     1       4.105   3.695  16.626  0.00  0.00    +0.000 C 
ATOM     20  C   UNL     1       4.568   3.421  18.064  0.00  0.00    +0.000 C 
ATOM     21  C   UNL     1       5.791   4.325  18.235  0.00  0.00    +0.000 C 
ATOM     22  C   UNL     1       5.346   5.745  18.685  0.00  0.00    +0.000 C 
ATOM     23  N   UNL     1       6.313   4.222  16.869  0.00  0.00    +0.000 NA
ATOM     24  C   UNL     1       7.571   4.867  16.546  0.00  0.00    +0.000 C 
ENDBRANCH  15  16
ENDBRANCH   1  15
TORSDOF 4
ENDMDL
