MODEL 1
REMARK VINA RESULT:      -7.8      0.000      0.000
REMARK  Name = 
REMARK  4 active torsions:
REMARK  status: ('A' for Active; 'I' for Inactive)
REMARK    1  A    between atoms: C_1  and  C_2
REMARK    2  A    between atoms: C_2  and  C_3
REMARK    3  A    between atoms: C_5  and  C_6
REMARK    4  A    between atoms: N_15  and  C_16
REMARK                            x       y       z     vdW  Elec       q    Type
REMARK                         _______ _______ _______ _____ _____    ______ ____
ROOT
ATOM      1  C   UNL     1       3.394   6.566  18.019  0.00  0.00    +0.000 A 
ATOM      2  N   UNL     1       4.261   6.927  17.096  0.00  0.00    +0.000 NA
ATOM      3  C   UNL     1       5.142   5.864  17.017  0.00  0.00    +0.000 A 
ATOM      4  N   UNL     1       4.771   4.823  17.774  0.00  0.00    +0.000 NA
ATOM      5  N   UNL     1       3.663   5.258  18.405  0.00  0.00    +0.000 N 
ENDROOT
BRANCH   3   6
ATOM      6  C   UNL     1       6.393   5.852  16.211  0.00  0.00    +0.000 C 
ATOM      7  O   UNL     1       7.307   6.647  16.449  0.00  0.00    +0.000 OA
ATOM      8  N   UNL     1       6.494   4.934  15.148  0.00  0.00    +0.000 N 
ATOM      9  C   UNL     1       7.759   4.819  14.426  0.00  0.00    +0.000 C 
ATOM     10  C   UNL     1       7.546   4.854  12.913  0.00  0.00    +0.000 C 
ATOM     11  C   UNL     1       6.496   3.841  12.465  0.00  0.00    +0.000 C 
ATOM     12  C   UNL     1       5.206   4.020  13.252  0.00  0.00    +0.000 C 
ATOM     13  C   UNL     1       5.459   3.980  14.754  0.00  0.00    +0.000 C 
ENDBRANCH   3   6
BRANCH   5  14
ATOM     14  C   UNL     1       2.923   4.401  19.258  0.00  0.00    +0.000 A 
ATOM     15  C   UNL     1       2.815   4.729  20.623  0.00  0.00    +0.000 A 
ATOM     16  C   UNL     1       2.082   3.924  21.493  0.00  0.00    +0.000 A 
ATOM     17  C   UNL     1       1.430   2.793  21.009  0.00  0.00    +0.000 A 
ATOM     18  C   UNL     1       1.524   2.461  19.658  0.00  0.00    +0.000 A 
ATOM     19  C   UNL     1       2.269   3.254  18.775  0.00  0.00    +0.000 A 
ATOM     20 CL   UNL     1       2.429   2.635  17.166  0.00  0.00    +0.000 Cl
ENDBRANCH   5  14
BRANCH   1  22
ATOM     21  C   UNL     1       2.009   8.664  17.798  0.00  0.00    +0.000 C 
ATOM     22  C   UNL     1       2.355   7.445  18.639  0.00  0.00    +0.000 C 
ENDBRANCH   1  22
TORSDOF 3
ENDMDL
MODEL 2
REMARK VINA RESULT:      -7.7      2.428      4.104
REMARK  Name = 
REMARK  4 active torsions:
REMARK  status: ('A' for Active; 'I' for Inactive)
REMARK    1  A    between atoms: C_1  and  C_2
REMARK    2  A    between atoms: C_2  and  C_3
REMARK    3  A    between atoms: C_5  and  C_6
REMARK    4  A    between atoms: N_15  and  C_16
REMARK                            x       y       z     vdW  Elec       q    Type
REMARK                         _______ _______ _______ _____ _____    ______ ____
ROOT
ATOM      1  C   UNL     1       2.339   5.133  20.061  0.00  0.00    +0.000 A 
ATOM      2  N   UNL     1       3.450   4.454  19.867  0.00  0.00    +0.000 NA
ATOM      3  C   UNL     1       4.354   5.396  19.411  0.00  0.00    +0.000 A 
ATOM      4  N   UNL     1       3.864   6.642  19.437  0.00  0.00    +0.000 NA
ATOM      5  N   UNL     1       2.593   6.484  19.853  0.00  0.00    +0.000 N 
ENDROOT
BRANCH   3   6
ATOM      6  C   UNL     1       5.723   5.093  18.911  0.00  0.00    +0.000 C 
ATOM      7  O   UNL     1       6.703   5.187  19.654  0.00  0.00    +0.000 OA
ATOM      8  N   UNL     1       5.875   4.728  17.559  0.00  0.00    +0.000 N 
ATOM      9  C   UNL     1       7.188   4.305  17.080  0.00  0.00    +0.000 C 
ATOM     10  C   UNL     1       7.568   5.016  15.782  0.00  0.00    +0.000 C 
ATOM     11  C   UNL     1       6.469   4.897  14.729  0.00  0.00    +0.000 C 
ATOM     12  C   UNL     1       5.132   5.357  15.291  0.00  0.00    +0.000 C 
ATOM     13  C   UNL     1       4.789   4.628  16.584  0.00  0.00    +0.000 C 
ENDBRANCH   3   6
BRANCH   5  14
ATOM     14  C   UNL     1       1.752   7.602  20.078  0.00  0.00    +0.000 A 
ATOM     15  C   UNL     1       1.089   7.717  21.315  0.00  0.00    +0.000 A 
ATOM     16  C   UNL     1       0.268   8.810  21.585  0.00  0.00    +0.000 A 
ATOM     17  C   UNL     1       0.113   9.813  20.633  0.00  0.00    +0.000 A 
ATOM     18  C   UNL     1       0.769   9.716  19.406  0.00  0.00    +0.000 A 
ATOM     19  C   UNL     1       1.586   8.616  19.116  0.00  0.00    +0.000 A 
ATOM     20 CL   UNL     1       2.206   8.548  17.501  0.00  0.00    +0.000 Cl
ENDBRANCH   5  14
BRANCH   1  22
ATOM     21  C   UNL     1       0.860   3.092  19.938  0.00  0.00    +0.000 C 
ATOM     22  C   UNL     1       0.993   4.550  20.352  0.00  0.00    +0.000 C 
ENDBRANCH   1  22
TORSDOF 3
ENDMDL
MODEL 3
REMARK VINA RESULT:      -7.3      2.826      7.020
REMARK  Name = 
REMARK  4 active torsions:
REMARK  status: ('A' for Active; 'I' for Inactive)
REMARK    1  A    between atoms: C_1  and  C_2
REMARK    2  A    between atoms: C_2  and  C_3
REMARK    3  A    between atoms: C_5  and  C_6
REMARK    4  A    between atoms: N_15  and  C_16
REMARK                            x       y       z     vdW  Elec       q    Type
REMARK                         _______ _______ _______ _____ _____    ______ ____
ROOT
ATOM      1  C   UNL     1       2.827   5.531  18.072  0.00  0.00    +0.000 A 
ATOM      2  N   UNL     1       1.896   6.428  18.322  0.00  0.00    +0.000 NA
ATOM      3  C   UNL     1       2.493   7.637  18.017  0.00  0.00    +0.000 A 
ATOM      4  N   UNL     1       3.711   7.495  17.478  0.00  0.00    +0.000 NA
ATOM      5  N   UNL     1       3.925   6.165  17.504  0.00  0.00    +0.000 N 
ENDROOT
BRANCH   3   6
ATOM      6  C   UNL     1       1.890   8.974  18.271  0.00  0.00    +0.000 C 
ATOM      7  O   UNL     1       2.020   9.892  17.457  0.00  0.00    +0.000 OA
ATOM      8  N   UNL     1       1.197   9.175  19.481  0.00  0.00    +0.000 N 
ATOM      9  C   UNL     1       0.492  10.436  19.694  0.00  0.00    +0.000 C 
ATOM     10  C   UNL     1       0.812  11.033  21.064  0.00  0.00    +0.000 C 
ATOM     11  C   UNL     1       0.601  10.019  22.186  0.00  0.00    +0.000 C 
ATOM     12  C   UNL     1       1.365   8.735  21.903  0.00  0.00    +0.000 C 
ATOM     13  C   UNL     1       1.020   8.172  20.530  0.00  0.00    +0.000 C 
ENDBRANCH   3   6
BRANCH   5  14
ATOM     14  C   UNL     1       5.100   5.602  16.945  0.00  0.00    +0.000 A 
ATOM     15  C   UNL     1       5.162   5.404  15.552  0.00  0.00    +0.000 A 
ATOM     16  C   UNL     1       6.305   4.871  14.959  0.00  0.00    +0.000 A 
ATOM     17  C   UNL     1       7.408   4.547  15.744  0.00  0.00    +0.000 A 
ATOM     18  C   UNL     1       7.362   4.745  17.123  0.00  0.00    +0.000 A 
ATOM     19  C   UNL     1       6.215   5.267  17.735  0.00  0.00    +0.000 A 
ATOM     20 CL   UNL     1       6.240   5.307  19.465  0.00  0.00    +0.000 Cl
ENDBRANCH   5  14
BRANCH   1  22
ATOM     21  C   UNL     1       1.381   3.475  18.298  0.00  0.00    +0.000 C 
ATOM     22  C   UNL     1       2.769   4.081  18.435  0.00  0.00    +0.000 C 
ENDBRANCH   1  22
TORSDOF 3
ENDMDL
MODEL 4
REMARK VINA RESULT:      -7.2      3.283      6.906
REMARK  Name = 
REMARK  4 active torsions:
REMARK  status: ('A' for Active; 'I' for Inactive)
REMARK    1  A    between atoms: C_1  and  C_2
REMARK    2  A    between atoms: C_2  and  C_3
REMARK    3  A    between atoms: C_5  and  C_6
REMARK    4  A    between atoms: N_15  and  C_16
REMARK                            x       y       z     vdW  Elec       q    Type
REMARK                         _______ _______ _______ _____ _____    ______ ____
ROOT
ATOM      1  C   UNL     1       1.954   5.519  20.664  0.00  0.00    +0.000 A 
ATOM      2  N   UNL     1       1.210   6.467  21.196  0.00  0.00    +0.000 NA
ATOM      3  C   UNL     1       1.645   7.629  20.584  0.00  0.00    +0.000 A 
ATOM      4  N   UNL     1       2.542   7.403  19.616  0.00  0.00    +0.000 NA
ATOM      5  N   UNL     1       2.736   6.070  19.656  0.00  0.00    +0.000 N 
ENDROOT
BRANCH   3   6
ATOM      6  C   UNL     1       1.208   9.002  20.956  0.00  0.00    +0.000 C 
ATOM      7  O   UNL     1       1.223   9.375  22.132  0.00  0.00    +0.000 OA
ATOM      8  N   UNL     1       0.744   9.855  19.934  0.00  0.00    +0.000 N 
ATOM      9  C   UNL     1       0.430  11.244  20.257  0.00  0.00    +0.000 C 
ATOM     10  C   UNL     1      -0.931  11.656  19.696  0.00  0.00    +0.000 C 
ATOM     11  C   UNL     1      -1.051  11.334  18.209  0.00  0.00    +0.000 C 
ATOM     12  C   UNL     1      -0.716   9.873  17.945  0.00  0.00    +0.000 C 
ATOM     13  C   UNL     1       0.645   9.501  18.519  0.00  0.00    +0.000 C 
ENDBRANCH   3   6
BRANCH   5  14
ATOM     14  C   UNL     1       3.581   5.426  18.718  0.00  0.00    +0.000 A 
ATOM     15  C   UNL     1       4.974   5.607  18.820  0.00  0.00    +0.000 A 
ATOM     16  C   UNL     1       5.842   4.977  17.930  0.00  0.00    +0.000 A 
ATOM     17  C   UNL     1       5.334   4.142  16.939  0.00  0.00    +0.000 A 
ATOM     18  C   UNL     1       3.957   3.949  16.831  0.00  0.00    +0.000 A 
ATOM     19  C   UNL     1       3.072   4.586  17.710  0.00  0.00    +0.000 A 
ATOM     20 CL   UNL     1       1.389   4.382  17.359  0.00  0.00    +0.000 Cl
ENDBRANCH   5  14
BRANCH   1  22
ATOM     21  C   UNL     1       0.933   3.213  20.569  0.00  0.00    +0.000 C 
ATOM     22  C   UNL     1       2.034   4.100  21.130  0.00  0.00    +0.000 C 
ENDBRANCH   1  22
TORSDOF 3
ENDMDL
MODEL 5
REMARK VINA RESULT:      -7.2      3.556      7.497
REMARK  Name = 
REMARK  4 active torsions:
REMARK  status: ('A' for Active; 'I' for Inactive)
REMARK    1  A    between atoms: C_1  and  C_2
REMARK    2  A    between atoms: C_2  and  C_3
REMARK    3  A    between atoms: C_5  and  C_6
REMARK    4  A    between atoms: N_15  and  C_16
REMARK                            x       y       z     vdW  Elec       q    Type
REMARK                         _______ _______ _______ _____ _____    ______ ____
ROOT
ATOM      1  C   UNL     1       2.269   6.106  20.100  0.00  0.00    +0.000 A 
ATOM      2  N   UNL     1       1.446   7.073  20.448  0.00  0.00    +0.000 NA
ATOM      3  C   UNL     1       1.695   8.082  19.535  0.00  0.00    +0.000 A 
ATOM      4  N   UNL     1       2.552   7.714  18.574  0.00  0.00    +0.000 NA
ATOM      5  N   UNL     1       2.913   6.463  18.921  0.00  0.00    +0.000 N 
ENDROOT
BRANCH   3   6
ATOM      6  C   UNL     1       1.113   9.450  19.596  0.00  0.00    +0.000 C 
ATOM      7  O   UNL     1       1.469  10.326  18.803  0.00  0.00    +0.000 OA
ATOM      8  N   UNL     1       0.171   9.731  20.606  0.00  0.00    +0.000 N 
ATOM      9  C   UNL     1      -0.505  11.026  20.607  0.00  0.00    +0.000 C 
ATOM     10  C   UNL     1      -0.479  11.671  21.992  0.00  0.00    +0.000 C 
ATOM     11  C   UNL     1      -0.988  10.717  23.070  0.00  0.00    +0.000 C 
ATOM     12  C   UNL     1      -0.240   9.393  23.015  0.00  0.00    +0.000 C 
ATOM     13  C   UNL     1      -0.288   8.783  21.620  0.00  0.00    +0.000 C 
ENDBRANCH   3   6
BRANCH   5  14
ATOM     14  C   UNL     1       3.774   5.695  18.097  0.00  0.00    +0.000 A 
ATOM     15  C   UNL     1       5.115   6.097  17.953  0.00  0.00    +0.000 A 
ATOM     16  C   UNL     1       5.999   5.360  17.167  0.00  0.00    +0.000 A 
ATOM     17  C   UNL     1       5.563   4.202  16.531  0.00  0.00    +0.000 A 
ATOM     18  C   UNL     1       4.238   3.788  16.672  0.00  0.00    +0.000 A 
ATOM     19  C   UNL     1       3.335   4.527  17.447  0.00  0.00    +0.000 A 
ATOM     20 CL   UNL     1       1.691   3.986  17.402  0.00  0.00    +0.000 Cl
ENDBRANCH   5  14
BRANCH   1  22
ATOM     21  C   UNL     1       1.403   3.874  20.897  0.00  0.00    +0.000 C 
ATOM     22  C   UNL     1       2.553   4.869  20.890  0.00  0.00    +0.000 C 
ENDBRANCH   1  22
TORSDOF 3
ENDMDL
MODEL 6
REMARK VINA RESULT:      -7.2      2.660      6.731
REMARK  Name = 
REMARK  4 active torsions:
REMARK  status: ('A' for Active; 'I' for Inactive)
REMARK    1  A    between atoms: C_1  and  C_2
REMARK    2  A    between atoms: C_2  and  C_3
REMARK    3  A    between atoms: C_5  and  C_6
REMARK    4  A    between atoms: N_15  and  C_16
REMARK                            x       y       z     vdW  Elec       q    Type
REMARK                         _______ _______ _______ _____ _____    ______ ____
ROOT
ATOM      1  C   UNL     1       2.928   3.902  17.940  0.00  0.00    +0.000 A 
ATOM      2  N   UNL     1       2.023   4.440  18.731  0.00  0.00    +0.000 NA
ATOM      3  C   UNL     1       2.550   5.674  19.067  0.00  0.00    +0.000 A 
ATOM      4  N   UNL     1       3.686   5.951  18.413  0.00  0.00    +0.000 NA
ATOM      5  N   UNL     1       3.926   4.837  17.694  0.00  0.00    +0.000 N 
ENDROOT
BRANCH   3   6
ATOM      6  C   UNL     1       1.963   6.609  20.065  0.00  0.00    +0.000 C 
ATOM      7  O   UNL     1       1.593   6.204  21.170  0.00  0.00    +0.000 OA
ATOM      8  N   UNL     1       1.807   7.962  19.702  0.00  0.00    +0.000 N 
ATOM      9  C   UNL     1       1.351   8.918  20.707  0.00  0.00    +0.000 C 
ATOM     10  C   UNL     1       0.219   9.795  20.174  0.00  0.00    +0.000 C 
ATOM     11  C   UNL     1       0.583  10.441  18.840  0.00  0.00    +0.000 C 
ATOM     12  C   UNL     1       1.044   9.390  17.841  0.00  0.00    +0.000 C 
ATOM     13  C   UNL     1       2.171   8.537  18.408  0.00  0.00    +0.000 C 
ENDBRANCH   3   6
BRANCH   5  14
ATOM     14  C   UNL     1       5.024   4.767  16.799  0.00  0.00    +0.000 A 
ATOM     15  C   UNL     1       4.774   4.541  15.432  0.00  0.00    +0.000 A 
ATOM     16  C   UNL     1       5.823   4.483  14.516  0.00  0.00    +0.000 A 
ATOM     17  C   UNL     1       7.133   4.670  14.948  0.00  0.00    +0.000 A 
ATOM     18  C   UNL     1       7.393   4.902  16.298  0.00  0.00    +0.000 A 
ATOM     19  C   UNL     1       6.350   4.948  17.232  0.00  0.00    +0.000 A 
ATOM     20 CL   UNL     1       6.834   5.083  18.889  0.00  0.00    +0.000 Cl
ENDBRANCH   5  14
BRANCH   1  22
ATOM     21  C   UNL     1       3.536   1.513  18.477  0.00  0.00    +0.000 C 
ATOM     22  C   UNL     1       2.947   2.484  17.466  0.00  0.00    +0.000 C 
ENDBRANCH   1  22
TORSDOF 3
ENDMDL
MODEL 7
REMARK VINA RESULT:      -7.1      2.875      6.814
REMARK  Name = 
REMARK  4 active torsions:
REMARK  status: ('A' for Active; 'I' for Inactive)
REMARK    1  A    between atoms: C_1  and  C_2
REMARK    2  A    between atoms: C_2  and  C_3
REMARK    3  A    between atoms: C_5  and  C_6
REMARK    4  A    between atoms: N_15  and  C_16
REMARK                            x       y       z     vdW  Elec       q    Type
REMARK                         _______ _______ _______ _____ _____    ______ ____
ROOT
ATOM      1  C   UNL     1       2.927   5.444  18.107  0.00  0.00    +0.000 A 
ATOM      2  N   UNL     1       1.944   6.319  18.066  0.00  0.00    +0.000 NA
ATOM      3  C   UNL     1       2.576   7.548  18.131  0.00  0.00    +0.000 A 
ATOM      4  N   UNL     1       3.911   7.450  18.090  0.00  0.00    +0.000 NA
ATOM      5  N   UNL     1       4.139   6.122  18.067  0.00  0.00    +0.000 N 
ENDROOT
BRANCH   3   6
ATOM      6  C   UNL     1       1.881   8.858  18.263  0.00  0.00    +0.000 C 
ATOM      7  O   UNL     1       1.954   9.706  17.370  0.00  0.00    +0.000 OA
ATOM      8  N   UNL     1       1.165   9.118  19.448  0.00  0.00    +0.000 N 
ATOM      9  C   UNL     1       0.374  10.342  19.546  0.00  0.00    +0.000 C 
ATOM     10  C   UNL     1       0.642  11.080  20.857  0.00  0.00    +0.000 C 
ATOM     11  C   UNL     1       0.492  10.160  22.066  0.00  0.00    +0.000 C 
ATOM     12  C   UNL     1       1.345   8.911  21.901  0.00  0.00    +0.000 C 
ATOM     13  C   UNL     1       1.050   8.204  20.584  0.00  0.00    +0.000 C 
ENDBRANCH   3   6
BRANCH   5  14
ATOM     14  C   UNL     1       5.455   5.609  17.949  0.00  0.00    +0.000 A 
ATOM     15  C   UNL     1       6.293   5.620  19.081  0.00  0.00    +0.000 A 
ATOM     16  C   UNL     1       7.588   5.108  19.013  0.00  0.00    +0.000 A 
ATOM     17  C   UNL     1       8.056   4.559  17.823  0.00  0.00    +0.000 A 
ATOM     18  C   UNL     1       7.233   4.535  16.697  0.00  0.00    +0.000 A 
ATOM     19  C   UNL     1       5.935   5.059  16.747  0.00  0.00    +0.000 A 
ATOM     20 CL   UNL     1       5.089   5.109  15.237  0.00  0.00    +0.000 Cl
ENDBRANCH   5  14
BRANCH   1  22
ATOM     21  C   UNL     1       1.349   3.526  18.556  0.00  0.00    +0.000 C 
ATOM     22  C   UNL     1       2.779   3.966  18.279  0.00  0.00    +0.000 C 
ENDBRANCH   1  22
TORSDOF 3
ENDMDL
MODEL 8
REMARK VINA RESULT:      -7.1      4.238      7.121
REMARK  Name = 
REMARK  4 active torsions:
REMARK  status: ('A' for Active; 'I' for Inactive)
REMARK    1  A    between atoms: C_1  and  C_2
REMARK    2  A    between atoms: C_2  and  C_3
REMARK    3  A    between atoms: C_5  and  C_6
REMARK    4  A    between atoms: N_15  and  C_16
REMARK                            x       y       z     vdW  Elec       q    Type
REMARK                         _______ _______ _______ _____ _____    ______ ____
ROOT
ATOM      1  C   UNL     1       0.605   8.814  20.924  0.00  0.00    +0.000 A 
ATOM      2  N   UNL     1       1.332   7.717  20.886  0.00  0.00    +0.000 NA
ATOM      3  C   UNL     1       1.956   7.760  19.653  0.00  0.00    +0.000 A 
ATOM      4  N   UNL     1       1.727   8.902  18.992  0.00  0.00    +0.000 NA
ATOM      5  N   UNL     1       0.878   9.576  19.794  0.00  0.00    +0.000 N 
ENDROOT
BRANCH   3   6
ATOM      6  C   UNL     1       2.780   6.662  19.076  0.00  0.00    +0.000 C 
ATOM      7  O   UNL     1       3.579   6.884  18.162  0.00  0.00    +0.000 OA
ATOM      8  N   UNL     1       2.599   5.358  19.576  0.00  0.00    +0.000 N 
ATOM      9  C   UNL     1       3.483   4.291  19.113  0.00  0.00    +0.000 C 
ATOM     10  C   UNL     1       2.694   3.049  18.698  0.00  0.00    +0.000 C 
ATOM     11  C   UNL     1       1.723   2.605  19.789  0.00  0.00    +0.000 C 
ATOM     12  C   UNL     1       0.831   3.761  20.219  0.00  0.00    +0.000 C 
ATOM     13  C   UNL     1       1.653   4.978  20.624  0.00  0.00    +0.000 C 
ENDBRANCH   3   6
BRANCH   5  14
ATOM     14  C   UNL     1       0.449  10.887  19.466  0.00  0.00    +0.000 A 
ATOM     15  C   UNL     1       1.163  11.984  19.984  0.00  0.00    +0.000 A 
ATOM     16  C   UNL     1       0.786  13.290  19.672  0.00  0.00    +0.000 A 
ATOM     17  C   UNL     1      -0.294  13.517  18.825  0.00  0.00    +0.000 A 
ATOM     18  C   UNL     1      -1.005  12.438  18.300  0.00  0.00    +0.000 A 
ATOM     19  C   UNL     1      -0.646  11.122  18.615  0.00  0.00    +0.000 A 
ATOM     20 CL   UNL     1      -1.712   9.892  18.024  0.00  0.00    +0.000 Cl
ENDBRANCH   5  14
BRANCH   1  22
ATOM     21  C   UNL     1       0.157   9.512  23.307  0.00  0.00    +0.000 C 
ATOM     22  C   UNL     1      -0.429   9.148  21.951  0.00  0.00    +0.000 C 
ENDBRANCH   1  22
TORSDOF 3
ENDMDL
MODEL 9
REMARK VINA RESULT:      -7.0      2.847      6.430
REMARK  Name = 
REMARK  4 active torsions:
REMARK  status: ('A' for Active; 'I' for Inactive)
REMARK    1  A    between atoms: C_1  and  C_2
REMARK    2  A    between atoms: C_2  and  C_3
REMARK    3  A    between atoms: C_5  and  C_6
REMARK    4  A    between atoms: N_15  and  C_16
REMARK                            x       y       z     vdW  Elec       q    Type
REMARK                         _______ _______ _______ _____ _____    ______ ____
ROOT
ATOM      1  C   UNL     1       4.108   6.439  17.729  0.00  0.00    +0.000 A 
ATOM      2  N   UNL     1       3.904   7.737  17.819  0.00  0.00    +0.000 NA
ATOM      3  C   UNL     1       2.581   7.851  18.207  0.00  0.00    +0.000 A 
ATOM      4  N   UNL     1       2.012   6.667  18.471  0.00  0.00    +0.000 NA
ATOM      5  N   UNL     1       2.975   5.771  18.177  0.00  0.00    +0.000 N 
ENDROOT
BRANCH   3   6
ATOM      6  C   UNL     1       1.829   9.131  18.306  0.00  0.00    +0.000 C 
ATOM      7  O   UNL     1       1.892   9.973  17.405  0.00  0.00    +0.000 OA
ATOM      8  N   UNL     1       1.071   9.373  19.468  0.00  0.00    +0.000 N 
ATOM      9  C   UNL     1       0.227  10.564  19.531  0.00  0.00    +0.000 C 
ATOM     10  C   UNL     1       0.428  11.325  20.841  0.00  0.00    +0.000 C 
ATOM     11  C   UNL     1       0.283  10.412  22.055  0.00  0.00    +0.000 C 
ATOM     12  C   UNL     1       1.191   9.198  21.927  0.00  0.00    +0.000 C 
ATOM     13  C   UNL     1       0.962   8.466  20.610  0.00  0.00    +0.000 C 
ENDBRANCH   3   6
BRANCH   5  14
ATOM     14  C   UNL     1       2.775   4.385  18.397  0.00  0.00    +0.000 A 
ATOM     15  C   UNL     1       2.821   3.509  17.296  0.00  0.00    +0.000 A 
ATOM     16  C   UNL     1       2.648   2.136  17.470  0.00  0.00    +0.000 A 
ATOM     17  C   UNL     1       2.447   1.619  18.746  0.00  0.00    +0.000 A 
ATOM     18  C   UNL     1       2.406   2.475  19.846  0.00  0.00    +0.000 A 
ATOM     19  C   UNL     1       2.564   3.857  19.684  0.00  0.00    +0.000 A 
ATOM     20 CL   UNL     1       2.331   4.810  21.110  0.00  0.00    +0.000 Cl
ENDBRANCH   5  14
BRANCH   1  22
ATOM     21  C   UNL     1       5.352   5.825  15.621  0.00  0.00    +0.000 C 
ATOM     22  C   UNL     1       5.314   5.779  17.141  0.00  0.00    +0.000 C 
ENDBRANCH   1  22
TORSDOF 3
ENDMDL
