MODEL 1
REMARK VINA RESULT:      -7.1      0.000      0.000
REMARK  Name = 
REMARK  3 active torsions:
REMARK  status: ('A' for Active; 'I' for Inactive)
REMARK    1  A    between atoms: C_1  and  C_2
REMARK    2  A    between atoms: C_2  and  C_3
REMARK    3  A    between atoms: C_3  and  N_4
REMARK                            x       y       z     vdW  Elec       q    Type
REMARK                         _______ _______ _______ _____ _____    ______ ____
ROOT
ATOM      1  N   UNL     1       2.641   4.722  20.532  0.00  0.00    +0.000 N 
ATOM      2  N   UNL     1       1.735   5.725  20.556  0.00  0.00    +0.000 NA
ATOM      3  N   UNL     1       2.084   6.619  19.639  0.00  0.00    +0.000 NA
ATOM      4  C   UNL     1       3.230   6.183  19.052  0.00  0.00    +0.000 A 
ATOM      5  C   UNL     1       3.615   4.980  19.609  0.00  0.00    +0.000 A 
ATOM      6  C   UNL     1       4.792   4.263  19.227  0.00  0.00    +0.000 C 
ATOM      7  O   UNL     1       5.160   3.206  19.719  0.00  0.00    +0.000 OA
ATOM      8  C   UNL     1       5.586   4.904  18.142  0.00  0.00    +0.000 A 
ATOM      9  C   UNL     1       6.734   4.302  17.669  0.00  0.00    +0.000 A 
ATOM     10  N   UNL     1       7.474   4.854  16.684  0.00  0.00    +0.000 NA
ATOM     11  N   UNL     1       7.091   6.043  16.128  0.00  0.00    +0.000 NA
ATOM     12  C   UNL     1       5.976   6.660  16.565  0.00  0.00    +0.000 A 
ATOM     13  C   UNL     1       5.197   6.121  17.570  0.00  0.00    +0.000 A 
ATOM     14  C   UNL     1       3.978   6.843  18.008  0.00  0.00    +0.000 C 
ATOM     15  O   UNL     1       3.667   7.910  17.494  0.00  0.00    +0.000 OA
ENDROOT
BRANCH   1  16
ATOM     16  C   UNL     1       2.489   3.620  21.458  0.00  0.00    +0.000 C 
BRANCH  16  18
ATOM     17  C   UNL     1       1.319   2.321  19.597  0.00  0.00    +0.000 C 
ATOM     18  C   UNL     1       1.380   2.630  21.085  0.00  0.00    +0.000 C 
ENDBRANCH  16  18
ENDBRANCH   1  16
TORSDOF 2
ENDMDL
MODEL 2
REMARK VINA RESULT:      -6.9      2.289      5.300
REMARK  Name = 
REMARK  3 active torsions:
REMARK  status: ('A' for Active; 'I' for Inactive)
REMARK    1  A    between atoms: C_1  and  C_2
REMARK    2  A    between atoms: C_2  and  C_3
REMARK    3  A    between atoms: C_3  and  N_4
REMARK                            x       y       z     vdW  Elec       q    Type
REMARK                         _______ _______ _______ _____ _____    ______ ____
ROOT
ATOM      1  N   UNL     1       5.315   4.780  16.077  0.00  0.00    +0.000 N 
ATOM      2  N   UNL     1       5.486   6.098  15.829  0.00  0.00    +0.000 NA
ATOM      3  N   UNL     1       4.717   6.781  16.668  0.00  0.00    +0.000 NA
ATOM      4  C   UNL     1       4.041   5.882  17.431  0.00  0.00    +0.000 A 
ATOM      5  C   UNL     1       4.394   4.598  17.070  0.00  0.00    +0.000 A 
ATOM      6  C   UNL     1       3.847   3.419  17.669  0.00  0.00    +0.000 C 
ATOM      7  O   UNL     1       4.132   2.274  17.352  0.00  0.00    +0.000 OA
ATOM      8  C   UNL     1       2.860   3.676  18.755  0.00  0.00    +0.000 A 
ATOM      9  C   UNL     1       2.273   2.622  19.426  0.00  0.00    +0.000 A 
ATOM     10  N   UNL     1       1.379   2.819  20.418  0.00  0.00    +0.000 NA
ATOM     11  N   UNL     1       1.031   4.091  20.780  0.00  0.00    +0.000 NA
ATOM     12  C   UNL     1       1.584   5.145  20.146  0.00  0.00    +0.000 A 
ATOM     13  C   UNL     1       2.502   4.976  19.129  0.00  0.00    +0.000 A 
ATOM     14  C   UNL     1       3.080   6.172  18.469  0.00  0.00    +0.000 C 
ATOM     15  O   UNL     1       2.742   7.298  18.813  0.00  0.00    +0.000 OA
ENDROOT
BRANCH   1  16
ATOM     16  C   UNL     1       6.041   3.818  15.277  0.00  0.00    +0.000 C 
BRANCH  16  18
ATOM     17  C   UNL     1       5.973   3.552  12.739  0.00  0.00    +0.000 C 
ATOM     18  C   UNL     1       6.510   4.349  13.918  0.00  0.00    +0.000 C 
ENDBRANCH  16  18
ENDBRANCH   1  16
TORSDOF 2
ENDMDL
MODEL 3
REMARK VINA RESULT:      -6.9      1.998      5.088
REMARK  Name = 
REMARK  3 active torsions:
REMARK  status: ('A' for Active; 'I' for Inactive)
REMARK    1  A    between atoms: C_1  and  C_2
REMARK    2  A    between atoms: C_2  and  C_3
REMARK    3  A    between atoms: C_3  and  N_4
REMARK                            x       y       z     vdW  Elec       q    Type
REMARK                         _______ _______ _______ _____ _____    ______ ____
ROOT
ATOM      1  N   UNL     1       4.828   5.515  16.421  0.00  0.00    +0.000 N 
ATOM      2  N   UNL     1       4.807   6.866  16.405  0.00  0.00    +0.000 NA
ATOM      3  N   UNL     1       4.052   7.280  17.415  0.00  0.00    +0.000 NA
ATOM      4  C   UNL     1       3.577   6.178  18.054  0.00  0.00    +0.000 A 
ATOM      5  C   UNL     1       4.048   5.038  17.436  0.00  0.00    +0.000 A 
ATOM      6  C   UNL     1       3.718   3.709  17.852  0.00  0.00    +0.000 C 
ATOM      7  O   UNL     1       4.109   2.686  17.308  0.00  0.00    +0.000 OA
ATOM      8  C   UNL     1       2.827   3.634  19.044  0.00  0.00    +0.000 A 
ATOM      9  C   UNL     1       2.451   2.409  19.556  0.00  0.00    +0.000 A 
ATOM     10  N   UNL     1       1.649   2.306  20.637  0.00  0.00    +0.000 NA
ATOM     11  N   UNL     1       1.186   3.436  21.254  0.00  0.00    +0.000 NA
ATOM     12  C   UNL     1       1.532   4.649  20.780  0.00  0.00    +0.000 A 
ATOM     13  C   UNL     1       2.352   4.788  19.677  0.00  0.00    +0.000 A 
ATOM     14  C   UNL     1       2.703   6.148  19.202  0.00  0.00    +0.000 C 
ATOM     15  O   UNL     1       2.266   7.140  19.773  0.00  0.00    +0.000 OA
ENDROOT
BRANCH   1  16
ATOM     16  C   UNL     1       5.581   4.815  15.402  0.00  0.00    +0.000 C 
BRANCH  16  18
ATOM     17  C   UNL     1       7.456   4.539  17.111  0.00  0.00    +0.000 C 
ATOM     18  C   UNL     1       7.092   4.767  15.652  0.00  0.00    +0.000 C 
ENDBRANCH  16  18
ENDBRANCH   1  16
TORSDOF 2
ENDMDL
MODEL 4
REMARK VINA RESULT:      -6.6      2.158      5.751
REMARK  Name = 
REMARK  3 active torsions:
REMARK  status: ('A' for Active; 'I' for Inactive)
REMARK    1  A    between atoms: C_1  and  C_2
REMARK    2  A    between atoms: C_2  and  C_3
REMARK    3  A    between atoms: C_3  and  N_4
REMARK                            x       y       z     vdW  Elec       q    Type
REMARK                         _______ _______ _______ _____ _____    ______ ____
ROOT
ATOM      1  N   UNL     1       6.206   6.132  18.150  0.00  0.00    +0.000 N 
ATOM      2  N   UNL     1       7.238   5.592  18.837  0.00  0.00    +0.000 NA
ATOM      3  N   UNL     1       6.819   4.460  19.390  0.00  0.00    +0.000 NA
ATOM      4  C   UNL     1       5.508   4.303  19.067  0.00  0.00    +0.000 A 
ATOM      5  C   UNL     1       5.087   5.359  18.284  0.00  0.00    +0.000 A 
ATOM      6  C   UNL     1       3.753   5.506  17.790  0.00  0.00    +0.000 C 
ATOM      7  O   UNL     1       3.355   6.442  17.112  0.00  0.00    +0.000 OA
ATOM      8  C   UNL     1       2.826   4.401  18.165  0.00  0.00    +0.000 A 
ATOM      9  C   UNL     1       1.516   4.414  17.734  0.00  0.00    +0.000 A 
ATOM     10  N   UNL     1       0.652   3.428  18.051  0.00  0.00    +0.000 NA
ATOM     11  N   UNL     1       1.068   2.377  18.823  0.00  0.00    +0.000 NA
ATOM     12  C   UNL     1       2.342   2.331  19.262  0.00  0.00    +0.000 A 
ATOM     13  C   UNL     1       3.250   3.325  18.953  0.00  0.00    +0.000 A 
ATOM     14  C   UNL     1       4.639   3.220  19.461  0.00  0.00    +0.000 C 
ATOM     15  O   UNL     1       4.979   2.270  20.155  0.00  0.00    +0.000 OA
ENDROOT
BRANCH   1  16
ATOM     16  C   UNL     1       6.406   7.389  17.461  0.00  0.00    +0.000 C 
BRANCH  16  18
ATOM     17  C   UNL     1       8.089   9.245  17.950  0.00  0.00    +0.000 C 
ATOM     18  C   UNL     1       7.867   7.847  17.393  0.00  0.00    +0.000 C 
ENDBRANCH  16  18
ENDBRANCH   1  16
TORSDOF 2
ENDMDL
MODEL 5
REMARK VINA RESULT:      -6.6      2.647      5.699
REMARK  Name = 
REMARK  3 active torsions:
REMARK  status: ('A' for Active; 'I' for Inactive)
REMARK    1  A    between atoms: C_1  and  C_2
REMARK    2  A    between atoms: C_2  and  C_3
REMARK    3  A    between atoms: C_3  and  N_4
REMARK                            x       y       z     vdW  Elec       q    Type
REMARK                         _______ _______ _______ _____ _____    ______ ____
ROOT
ATOM      1  N   UNL     1       7.473   6.588  17.508  0.00  0.00    +0.000 N 
ATOM      2  N   UNL     1       7.713   6.744  16.187  0.00  0.00    +0.000 NA
ATOM      3  N   UNL     1       6.941   5.894  15.522  0.00  0.00    +0.000 NA
ATOM      4  C   UNL     1       6.229   5.182  16.436  0.00  0.00    +0.000 A 
ATOM      5  C   UNL     1       6.555   5.597  17.711  0.00  0.00    +0.000 A 
ATOM      6  C   UNL     1       5.995   5.034  18.902  0.00  0.00    +0.000 C 
ATOM      7  O   UNL     1       6.282   5.374  20.040  0.00  0.00    +0.000 OA
ATOM      8  C   UNL     1       4.992   3.958  18.669  0.00  0.00    +0.000 A 
ATOM      9  C   UNL     1       4.363   3.348  19.735  0.00  0.00    +0.000 A 
ATOM     10  N   UNL     1       3.447   2.374  19.559  0.00  0.00    +0.000 NA
ATOM     11  N   UNL     1       3.119   1.965  18.295  0.00  0.00    +0.000 NA
ATOM     12  C   UNL     1       3.713   2.538  17.230  0.00  0.00    +0.000 A 
ATOM     13  C   UNL     1       4.654   3.539  17.377  0.00  0.00    +0.000 A 
ATOM     14  C   UNL     1       5.272   4.135  16.169  0.00  0.00    +0.000 C 
ATOM     15  O   UNL     1       4.961   3.742  15.051  0.00  0.00    +0.000 OA
ENDROOT
BRANCH   1  16
ATOM     16  C   UNL     1       8.208   7.401  18.453  0.00  0.00    +0.000 C 
BRANCH  16  18
ATOM     17  C   UNL     1       9.082   9.716  19.080  0.00  0.00    +0.000 C 
ATOM     18  C   UNL     1       8.284   8.886  18.085  0.00  0.00    +0.000 C 
ENDBRANCH  16  18
ENDBRANCH   1  16
TORSDOF 2
ENDMDL
MODEL 6
REMARK VINA RESULT:      -6.5      2.127      2.969
REMARK  Name = 
REMARK  3 active torsions:
REMARK  status: ('A' for Active; 'I' for Inactive)
REMARK    1  A    between atoms: C_1  and  C_2
REMARK    2  A    between atoms: C_2  and  C_3
REMARK    3  A    between atoms: C_3  and  N_4
REMARK                            x       y       z     vdW  Elec       q    Type
REMARK                         _______ _______ _______ _____ _____    ______ ____
ROOT
ATOM      1  N   UNL     1       2.256   3.717  18.650  0.00  0.00    +0.000 N 
ATOM      2  N   UNL     1       2.122   2.492  18.094  0.00  0.00    +0.000 NA
ATOM      3  N   UNL     1       3.139   2.301  17.264  0.00  0.00    +0.000 NA
ATOM      4  C   UNL     1       3.903   3.426  17.281  0.00  0.00    +0.000 A 
ATOM      5  C   UNL     1       3.358   4.350  18.148  0.00  0.00    +0.000 A 
ATOM      6  C   UNL     1       3.910   5.649  18.383  0.00  0.00    +0.000 C 
ATOM      7  O   UNL     1       3.434   6.489  19.133  0.00  0.00    +0.000 OA
ATOM      8  C   UNL     1       5.160   5.939  17.626  0.00  0.00    +0.000 A 
ATOM      9  C   UNL     1       5.802   7.151  17.779  0.00  0.00    +0.000 A 
ATOM     10  N   UNL     1       6.938   7.444  17.112  0.00  0.00    +0.000 NA
ATOM     11  N   UNL     1       7.482   6.527  16.255  0.00  0.00    +0.000 NA
ATOM     12  C   UNL     1       6.882   5.333  16.080  0.00  0.00    +0.000 A 
ATOM     13  C   UNL     1       5.720   5.002  16.749  0.00  0.00    +0.000 A 
ATOM     14  C   UNL     1       5.105   3.673  16.520  0.00  0.00    +0.000 C 
ATOM     15  O   UNL     1       5.614   2.877  15.741  0.00  0.00    +0.000 OA
ENDROOT
BRANCH   1  16
ATOM     16  C   UNL     1       1.255   4.171  19.591  0.00  0.00    +0.000 C 
BRANCH  16  18
ATOM     17  C   UNL     1       1.513   2.670  21.640  0.00  0.00    +0.000 C 
ATOM     18  C   UNL     1       1.676   4.067  21.061  0.00  0.00    +0.000 C 
ENDBRANCH  16  18
ENDBRANCH   1  16
TORSDOF 2
ENDMDL
MODEL 7
REMARK VINA RESULT:      -6.5      2.262      5.431
REMARK  Name = 
REMARK  3 active torsions:
REMARK  status: ('A' for Active; 'I' for Inactive)
REMARK    1  A    between atoms: C_1  and  C_2
REMARK    2  A    between atoms: C_2  and  C_3
REMARK    3  A    between atoms: C_3  and  N_4
REMARK                            x       y       z     vdW  Elec       q    Type
REMARK                         _______ _______ _______ _____ _____    ______ ____
ROOT
ATOM      1  N   UNL     1       6.357   4.531  17.360  0.00  0.00    +0.000 N 
ATOM      2  N   UNL     1       6.171   4.546  16.021  0.00  0.00    +0.000 NA
ATOM      3  N   UNL     1       4.909   4.215  15.775  0.00  0.00    +0.000 NA
ATOM      4  C   UNL     1       4.307   3.969  16.968  0.00  0.00    +0.000 A 
ATOM      5  C   UNL     1       5.208   4.152  17.997  0.00  0.00    +0.000 A 
ATOM      6  C   UNL     1       4.896   3.955  19.379  0.00  0.00    +0.000 C 
ATOM      7  O   UNL     1       5.683   4.094  20.303  0.00  0.00    +0.000 OA
ATOM      8  C   UNL     1       3.487   3.549  19.646  0.00  0.00    +0.000 A 
ATOM      9  C   UNL     1       3.054   3.345  20.940  0.00  0.00    +0.000 A 
ATOM     10  N   UNL     1       1.784   2.981  21.217  0.00  0.00    +0.000 NA
ATOM     11  N   UNL     1       0.888   2.803  20.199  0.00  0.00    +0.000 NA
ATOM     12  C   UNL     1       1.276   2.993  18.922  0.00  0.00    +0.000 A 
ATOM     13  C   UNL     1       2.568   3.367  18.606  0.00  0.00    +0.000 A 
ATOM     14  C   UNL     1       2.938   3.564  17.185  0.00  0.00    +0.000 C 
ATOM     15  O   UNL     1       2.113   3.390  16.296  0.00  0.00    +0.000 OA
ENDROOT
BRANCH   1  16
ATOM     16  C   UNL     1       7.666   4.847  17.888  0.00  0.00    +0.000 C 
BRANCH  16  18
ATOM     17  C   UNL     1       7.600   7.384  17.613  0.00  0.00    +0.000 C 
ATOM     18  C   UNL     1       7.759   6.215  18.573  0.00  0.00    +0.000 C 
ENDBRANCH  16  18
ENDBRANCH   1  16
TORSDOF 2
ENDMDL
MODEL 8
REMARK VINA RESULT:      -6.5      2.118      5.009
REMARK  Name = 
REMARK  3 active torsions:
REMARK  status: ('A' for Active; 'I' for Inactive)
REMARK    1  A    between atoms: C_1  and  C_2
REMARK    2  A    between atoms: C_2  and  C_3
REMARK    3  A    between atoms: C_3  and  N_4
REMARK                            x       y       z     vdW  Elec       q    Type
REMARK                         _______ _______ _______ _____ _____    ______ ____
ROOT
ATOM      1  N   UNL     1       4.546   6.567  17.443  0.00  0.00    +0.000 N 
ATOM      2  N   UNL     1       3.759   7.666  17.429  0.00  0.00    +0.000 NA
ATOM      3  N   UNL     1       2.848   7.534  18.385  0.00  0.00    +0.000 NA
ATOM      4  C   UNL     1       3.051   6.332  18.986  0.00  0.00    +0.000 A 
ATOM      5  C   UNL     1       4.122   5.689  18.399  0.00  0.00    +0.000 A 
ATOM      6  C   UNL     1       4.586   4.392  18.787  0.00  0.00    +0.000 C 
ATOM      7  O   UNL     1       5.520   3.797  18.270  0.00  0.00    +0.000 OA
ATOM      8  C   UNL     1       3.832   3.774  19.914  0.00  0.00    +0.000 A 
ATOM      9  C   UNL     1       4.193   2.532  20.395  0.00  0.00    +0.000 A 
ATOM     10  N   UNL     1       3.534   1.945  21.417  0.00  0.00    +0.000 NA
ATOM     11  N   UNL     1       2.475   2.584  22.002  0.00  0.00    +0.000 NA
ATOM     12  C   UNL     1       2.094   3.798  21.558  0.00  0.00    +0.000 A 
ATOM     13  C   UNL     1       2.749   4.425  20.516  0.00  0.00    +0.000 A 
ATOM     14  C   UNL     1       2.287   5.761  20.070  0.00  0.00    +0.000 C 
ATOM     15  O   UNL     1       1.332   6.303  20.611  0.00  0.00    +0.000 OA
ENDROOT
BRANCH   1  16
ATOM     16  C   UNL     1       5.619   6.463  16.477  0.00  0.00    +0.000 C 
BRANCH  16  18
ATOM     17  C   UNL     1       7.488   7.881  17.484  0.00  0.00    +0.000 C 
ATOM     18  C   UNL     1       7.025   6.488  17.088  0.00  0.00    +0.000 C 
ENDBRANCH  16  18
ENDBRANCH   1  16
TORSDOF 2
ENDMDL
MODEL 9
REMARK VINA RESULT:      -6.5      1.937      3.566
REMARK  Name = 
REMARK  3 active torsions:
REMARK  status: ('A' for Active; 'I' for Inactive)
REMARK    1  A    between atoms: C_1  and  C_2
REMARK    2  A    between atoms: C_2  and  C_3
REMARK    3  A    between atoms: C_3  and  N_4
REMARK                            x       y       z     vdW  Elec       q    Type
REMARK                         _______ _______ _______ _____ _____    ______ ____
ROOT
ATOM      1  N   UNL     1       2.140   6.732  19.920  0.00  0.00    +0.000 N 
ATOM      2  N   UNL     1       1.758   5.727  20.741  0.00  0.00    +0.000 NA
ATOM      3  N   UNL     1       2.345   4.611  20.329  0.00  0.00    +0.000 NA
ATOM      4  C   UNL     1       3.081   4.913  19.227  0.00  0.00    +0.000 A 
ATOM      5  C   UNL     1       2.962   6.257  18.937  0.00  0.00    +0.000 A 
ATOM      6  C   UNL     1       3.599   6.895  17.826  0.00  0.00    +0.000 C 
ATOM      7  O   UNL     1       3.493   8.079  17.541  0.00  0.00    +0.000 OA
ATOM      8  C   UNL     1       4.442   5.994  16.992  0.00  0.00    +0.000 A 
ATOM      9  C   UNL     1       5.126   6.491  15.901  0.00  0.00    +0.000 A 
ATOM     10  N   UNL     1       5.902   5.703  15.127  0.00  0.00    +0.000 NA
ATOM     11  N   UNL     1       6.025   4.371  15.416  0.00  0.00    +0.000 NA
ATOM     12  C   UNL     1       5.371   3.851  16.474  0.00  0.00    +0.000 A 
ATOM     13  C   UNL     1       4.571   4.631  17.285  0.00  0.00    +0.000 A 
ATOM     14  C   UNL     1       3.878   4.005  18.437  0.00  0.00    +0.000 C 
ATOM     15  O   UNL     1       4.005   2.809  18.665  0.00  0.00    +0.000 OA
ENDROOT
BRANCH   1  16
ATOM     16  C   UNL     1       1.621   8.062  20.154  0.00  0.00    +0.000 C 
BRANCH  16  18
ATOM     17  C   UNL     1      -0.290   8.711  21.718  0.00  0.00    +0.000 C 
ATOM     18  C   UNL     1       1.176   8.323  21.597  0.00  0.00    +0.000 C 
ENDBRANCH  16  18
ENDBRANCH   1  16
TORSDOF 2
ENDMDL
