MODEL 1
REMARK VINA RESULT:      -8.1      0.000      0.000
REMARK  Name = 
REMARK  9 active torsions:
REMARK  status: ('A' for Active; 'I' for Inactive)
REMARK    1  A    between atoms: C_1  and  O_2
REMARK    2  A    between atoms: O_2  and  C_3
REMARK    3  A    between atoms: C_14  and  C_16
REMARK    4  A    between atoms: C_16  and  C_17
REMARK    5  A    between atoms: C_17  and  N_18
REMARK    6  A    between atoms: C_17  and  C_19
REMARK    7  A    between atoms: C_22  and  C_23
REMARK    8  A    between atoms: C_31  and  O_32
REMARK    9  A    between atoms: O_32  and  C_33
REMARK                            x       y       z     vdW  Elec       q    Type
REMARK                         _______ _______ _______ _____ _____    ______ ____
ROOT
ATOM      1  C   UNL     1      -1.002  12.968  21.240  0.00  0.00    +0.000 A 
ATOM      2  C   UNL     1      -1.002  11.737  21.906  0.00  0.00    +0.000 A 
ATOM      3  C   UNL     1      -0.262  10.637  21.414  0.00  0.00    +0.000 A 
ATOM      4  C   UNL     1      -0.098   9.431  22.090  0.00  0.00    +0.000 A 
ATOM      5  N   UNL     1      -0.691   9.198  23.338  0.00  0.00    +0.000 N 
ATOM      6  N   UNL     1       0.637   8.421  21.617  0.00  0.00    +0.000 NA
ATOM      7  C   UNL     1       1.243   8.582  20.435  0.00  0.00    +0.000 A 
ATOM      8  N   UNL     1       2.025   7.573  19.945  0.00  0.00    +0.000 N 
ATOM      9  C   UNL     1       2.306   6.365  20.721  0.00  0.00    +0.000 C 
ATOM     10  C   UNL     1       1.982   5.111  19.887  0.00  0.00    +0.000 C 
ATOM     11  N   UNL     1       2.596   5.168  18.549  0.00  0.00    +0.000 N 
ATOM     12  C   UNL     1       3.272   4.057  18.078  0.00  0.00    +0.000 C 
ATOM     13  O   UNL     1       3.376   3.037  18.768  0.00  0.00    +0.000 OA
ATOM     14  C   UNL     1       2.261   6.398  17.809  0.00  0.00    +0.000 C 
ATOM     15  C   UNL     1       2.630   7.655  18.618  0.00  0.00    +0.000 C 
ATOM     16  N   UNL     1       1.123   9.705  19.715  0.00  0.00    +0.000 NA
ATOM     17  C   UNL     1       0.395  10.725  20.194  0.00  0.00    +0.000 A 
ATOM     18  C   UNL     1       0.286  11.926  19.494  0.00  0.00    +0.000 A 
ATOM     19  F   UNL     1       0.889  12.019  18.290  0.00  0.00    +0.000 F 
ATOM     20  C   UNL     1      -0.391  13.058  19.988  0.00  0.00    +0.000 A 
ATOM     21  H   UNL     1      -0.418   9.903  24.014  0.00  0.00    +0.000 HD
ATOM     22  H   UNL     1      -0.389   8.274  23.635  0.00  0.00    +0.000 HD
ENDROOT
BRANCH   1  24
ATOM     23  C   UNL     1      -0.884  14.699  22.852  0.00  0.00    +0.000 C 
ATOM     24  O   UNL     1      -1.610  14.058  21.800  0.00  0.00    +0.000 OA
ENDBRANCH   1  24
BRANCH  20  25
ATOM     25  O   UNL     1      -0.325  14.136  19.146  0.00  0.00    +0.000 OA
ATOM     26  C   UNL     1       0.655  15.135  19.355  0.00  0.00    +0.000 C 
ENDBRANCH  20  25
BRANCH  12  27
ATOM     27  C   UNL     1       4.014   4.120  16.752  0.00  0.00    +0.000 C 
BRANCH  27  28
ATOM     28  C   UNL     1       5.519   3.807  16.845  0.00  0.00    +0.000 C 
BRANCH  28  29
ATOM     29  C   UNL     1       6.402   4.937  17.354  0.00  0.00    +0.000 A 
ATOM     30  C   UNL     1       7.223   4.935  18.471  0.00  0.00    +0.000 A 
ATOM     31  C   UNL     1       7.831   6.198  18.722  0.00  0.00    +0.000 A 
ATOM     32  C   UNL     1       7.458   7.144  17.794  0.00  0.00    +0.000 A 
ATOM     33  C   UNL     1       7.854   8.578  17.719  0.00  0.00    +0.000 C 
ATOM     34  S   UNL     1       6.379   6.499  16.639  0.00  0.00    +0.000 S 
ENDBRANCH  28  29
BRANCH  28  35
ATOM     35  N   UNL     1       6.062   3.250  15.595  0.00  0.00    +0.000 NA
ATOM     36  H   UNL     1       6.804   2.588  15.856  0.00  0.00    +0.000 HD
ATOM     37  H   UNL     1       6.569   3.982  15.098  0.00  0.00    +0.000 HD
ENDBRANCH  28  35
ENDBRANCH  27  28
ENDBRANCH  12  27
TORSDOF 6
ENDMDL
MODEL 2
REMARK VINA RESULT:      -7.7      1.604      2.089
REMARK  Name = 
REMARK  9 active torsions:
REMARK  status: ('A' for Active; 'I' for Inactive)
REMARK    1  A    between atoms: C_1  and  O_2
REMARK    2  A    between atoms: O_2  and  C_3
REMARK    3  A    between atoms: C_14  and  C_16
REMARK    4  A    between atoms: C_16  and  C_17
REMARK    5  A    between atoms: C_17  and  N_18
REMARK    6  A    between atoms: C_17  and  C_19
REMARK    7  A    between atoms: C_22  and  C_23
REMARK    8  A    between atoms: C_31  and  O_32
REMARK    9  A    between atoms: O_32  and  C_33
REMARK                            x       y       z     vdW  Elec       q    Type
REMARK                         _______ _______ _______ _____ _____    ______ ____
ROOT
ATOM      1  C   UNL     1      -0.392  12.904  20.875  0.00  0.00    +0.000 A 
ATOM      2  C   UNL     1      -0.620  11.713  21.574  0.00  0.00    +0.000 A 
ATOM      3  C   UNL     1       0.029  10.511  21.206  0.00  0.00    +0.000 A 
ATOM      4  C   UNL     1      -0.036   9.325  21.934  0.00  0.00    +0.000 A 
ATOM      5  N   UNL     1      -0.791   9.221  23.109  0.00  0.00    +0.000 N 
ATOM      6  N   UNL     1       0.617   8.214  21.582  0.00  0.00    +0.000 NA
ATOM      7  C   UNL     1       1.369   8.249  20.475  0.00  0.00    +0.000 A 
ATOM      8  N   UNL     1       2.071   7.133  20.113  0.00  0.00    +0.000 N 
ATOM      9  C   UNL     1       2.109   5.936  20.952  0.00  0.00    +0.000 C 
ATOM     10  C   UNL     1       1.730   4.693  20.124  0.00  0.00    +0.000 C 
ATOM     11  N   UNL     1       2.495   4.617  18.868  0.00  0.00    +0.000 N 
ATOM     12  C   UNL     1       3.077   3.413  18.514  0.00  0.00    +0.000 C 
ATOM     13  O   UNL     1       2.974   2.420  19.242  0.00  0.00    +0.000 OA
ATOM     14  C   UNL     1       2.401   5.844  18.056  0.00  0.00    +0.000 C 
ATOM     15  C   UNL     1       2.829   7.082  18.865  0.00  0.00    +0.000 C 
ATOM     16  N   UNL     1       1.472   9.345  19.713  0.00  0.00    +0.000 NA
ATOM     17  C   UNL     1       0.827  10.466  20.071  0.00  0.00    +0.000 A 
ATOM     18  C   UNL     1       0.948  11.638  19.327  0.00  0.00    +0.000 A 
ATOM     19  F   UNL     1       1.691  11.605  18.201  0.00  0.00    +0.000 F 
ATOM     20  C   UNL     1       0.365  12.864  19.702  0.00  0.00    +0.000 A 
ATOM     21  H   UNL     1      -0.512   9.918  23.790  0.00  0.00    +0.000 HD
ATOM     22  H   UNL     1      -0.642   8.282  23.467  0.00  0.00    +0.000 HD
ENDROOT
BRANCH   1  24
ATOM     23  C   UNL     1      -0.129  14.788  22.287  0.00  0.00    +0.000 C 
ATOM     24  O   UNL     1      -0.919  14.082  21.327  0.00  0.00    +0.000 OA
ENDBRANCH   1  24
BRANCH  20  25
ATOM     25  O   UNL     1       0.660  13.887  18.842  0.00  0.00    +0.000 OA
ATOM     26  C   UNL     1       1.802  14.692  19.068  0.00  0.00    +0.000 C 
ENDBRANCH  20  25
BRANCH  12  27
ATOM     27  C   UNL     1       3.967   3.328  17.284  0.00  0.00    +0.000 C 
BRANCH  27  28
ATOM     28  C   UNL     1       5.181   4.276  17.306  0.00  0.00    +0.000 C 
BRANCH  28  29
ATOM     29  C   UNL     1       5.959   4.389  16.004  0.00  0.00    +0.000 A 
ATOM     30  C   UNL     1       7.071   5.176  15.745  0.00  0.00    +0.000 A 
ATOM     31  C   UNL     1       7.489   5.124  14.384  0.00  0.00    +0.000 A 
ATOM     32  C   UNL     1       6.685   4.302  13.627  0.00  0.00    +0.000 A 
ATOM     33  C   UNL     1       6.774   4.000  12.171  0.00  0.00    +0.000 C 
ATOM     34  S   UNL     1       5.438   3.609  14.565  0.00  0.00    +0.000 S 
ENDBRANCH  28  29
BRANCH  28  35
ATOM     35  N   UNL     1       6.092   4.005  18.431  0.00  0.00    +0.000 NA
ATOM     36  H   UNL     1       6.997   3.732  18.028  0.00  0.00    +0.000 HD
ATOM     37  H   UNL     1       5.787   3.159  18.911  0.00  0.00    +0.000 HD
ENDBRANCH  28  35
ENDBRANCH  27  28
ENDBRANCH  12  27
TORSDOF 6
ENDMDL
MODEL 3
REMARK VINA RESULT:      -7.3      3.391      8.924
REMARK  Name = 
REMARK  9 active torsions:
REMARK  status: ('A' for Active; 'I' for Inactive)
REMARK    1  A    between atoms: C_1  and  O_2
REMARK    2  A    between atoms: O_2  and  C_3
REMARK    3  A    between atoms: C_14  and  C_16
REMARK    4  A    between atoms: C_16  and  C_17
REMARK    5  A    between atoms: C_17  and  N_18
REMARK    6  A    between atoms: C_17  and  C_19
REMARK    7  A    between atoms: C_22  and  C_23
REMARK    8  A    between atoms: C_31  and  O_32
REMARK    9  A    between atoms: O_32  and  C_33
REMARK                            x       y       z     vdW  Elec       q    Type
REMARK                         _______ _______ _______ _____ _____    ______ ____
ROOT
ATOM      1  C   UNL     1       4.261   4.176  17.883  0.00  0.00    +0.000 A 
ATOM      2  C   UNL     1       3.554   4.623  19.005  0.00  0.00    +0.000 A 
ATOM      3  C   UNL     1       3.021   5.931  19.063  0.00  0.00    +0.000 A 
ATOM      4  C   UNL     1       2.191   6.400  20.078  0.00  0.00    +0.000 A 
ATOM      5  N   UNL     1       1.828   5.595  21.166  0.00  0.00    +0.000 N 
ATOM      6  N   UNL     1       1.672   7.631  20.089  0.00  0.00    +0.000 NA
ATOM      7  C   UNL     1       1.967   8.449  19.072  0.00  0.00    +0.000 A 
ATOM      8  N   UNL     1       1.422   9.703  19.046  0.00  0.00    +0.000 N 
ATOM      9  C   UNL     1       0.444  10.142  20.040  0.00  0.00    +0.000 C 
ATOM     10  C   UNL     1       0.884  11.479  20.666  0.00  0.00    +0.000 C 
ATOM     11  N   UNL     1       1.242  12.473  19.639  0.00  0.00    +0.000 N 
ATOM     12  C   UNL     1       0.742  13.758  19.752  0.00  0.00    +0.000 C 
ATOM     13  O   UNL     1      -0.006  14.068  20.686  0.00  0.00    +0.000 OA
ATOM     14  C   UNL     1       2.247  11.980  18.679  0.00  0.00    +0.000 C 
ATOM     15  C   UNL     1       1.787  10.670  18.013  0.00  0.00    +0.000 C 
ATOM     16  N   UNL     1       2.770   8.079  18.065  0.00  0.00    +0.000 NA
ATOM     17  C   UNL     1       3.283   6.839  18.046  0.00  0.00    +0.000 A 
ATOM     18  C   UNL     1       4.084   6.405  16.992  0.00  0.00    +0.000 A 
ATOM     19  F   UNL     1       4.378   7.284  16.011  0.00  0.00    +0.000 F 
ATOM     20  C   UNL     1       4.577   5.091  16.877  0.00  0.00    +0.000 A 
ATOM     21  H   UNL     1       1.386   4.736  20.858  0.00  0.00    +0.000 HD
ATOM     22  H   UNL     1       1.192   6.146  21.736  0.00  0.00    +0.000 HD
ENDROOT
BRANCH   1  24
ATOM     23  C   UNL     1       3.640   1.898  18.072  0.00  0.00    +0.000 C 
ATOM     24  O   UNL     1       4.650   2.869  17.785  0.00  0.00    +0.000 OA
ENDBRANCH   1  24
BRANCH  20  25
ATOM     25  O   UNL     1       5.301   4.885  15.733  0.00  0.00    +0.000 OA
ATOM     26  C   UNL     1       6.714   4.828  15.793  0.00  0.00    +0.000 C 
ENDBRANCH  20  25
BRANCH  12  27
ATOM     27  C   UNL     1       0.997  14.776  18.651  0.00  0.00    +0.000 C 
BRANCH  27  28
ATOM     28  C   UNL     1       1.957  15.914  19.044  0.00  0.00    +0.000 C 
BRANCH  28  29
ATOM     29  C   UNL     1       3.439  15.629  18.852  0.00  0.00    +0.000 A 
ATOM     30  C   UNL     1       4.088  15.255  17.686  0.00  0.00    +0.000 A 
ATOM     31  C   UNL     1       5.468  14.962  17.881  0.00  0.00    +0.000 A 
ATOM     32  C   UNL     1       5.847  15.112  19.196  0.00  0.00    +0.000 A 
ATOM     33  C   UNL     1       7.185  14.883  19.809  0.00  0.00    +0.000 C 
ATOM     34  S   UNL     1       4.536  15.599  20.175  0.00  0.00    +0.000 S 
ENDBRANCH  28  29
BRANCH  28  35
ATOM     35  N   UNL     1       1.701  16.432  20.398  0.00  0.00    +0.000 NA
ATOM     36  H   UNL     1       1.763  17.456  20.348  0.00  0.00    +0.000 HD
ATOM     37  H   UNL     1       2.483  16.182  21.003  0.00  0.00    +0.000 HD
ENDBRANCH  28  35
ENDBRANCH  27  28
ENDBRANCH  12  27
TORSDOF 6
ENDMDL
MODEL 4
REMARK VINA RESULT:      -7.1      3.383      9.523
REMARK  Name = 
REMARK  9 active torsions:
REMARK  status: ('A' for Active; 'I' for Inactive)
REMARK    1  A    between atoms: C_1  and  O_2
REMARK    2  A    between atoms: O_2  and  C_3
REMARK    3  A    between atoms: C_14  and  C_16
REMARK    4  A    between atoms: C_16  and  C_17
REMARK    5  A    between atoms: C_17  and  N_18
REMARK    6  A    between atoms: C_17  and  C_19
REMARK    7  A    between atoms: C_22  and  C_23
REMARK    8  A    between atoms: C_31  and  O_32
REMARK    9  A    between atoms: O_32  and  C_33
REMARK                            x       y       z     vdW  Elec       q    Type
REMARK                         _______ _______ _______ _____ _____    ______ ____
ROOT
ATOM      1  C   UNL     1       4.276   4.063  17.999  0.00  0.00    +0.000 A 
ATOM      2  C   UNL     1       3.604   4.110  19.225  0.00  0.00    +0.000 A 
ATOM      3  C   UNL     1       2.882   5.259  19.622  0.00  0.00    +0.000 A 
ATOM      4  C   UNL     1       2.075   5.332  20.755  0.00  0.00    +0.000 A 
ATOM      5  N   UNL     1       1.931   4.247  21.630  0.00  0.00    +0.000 N 
ATOM      6  N   UNL     1       1.375   6.420  21.087  0.00  0.00    +0.000 NA
ATOM      7  C   UNL     1       1.456   7.489  20.287  0.00  0.00    +0.000 A 
ATOM      8  N   UNL     1       0.724   8.604  20.589  0.00  0.00    +0.000 N 
ATOM      9  C   UNL     1      -0.226   8.627  21.701  0.00  0.00    +0.000 C 
ATOM     10  C   UNL     1       0.053   9.838  22.613  0.00  0.00    +0.000 C 
ATOM     11  N   UNL     1       0.167  11.089  21.844  0.00  0.00    +0.000 N 
ATOM     12  C   UNL     1      -0.515  12.208  22.287  0.00  0.00    +0.000 C 
ATOM     13  O   UNL     1      -1.222  12.162  23.299  0.00  0.00    +0.000 OA
ATOM     14  C   UNL     1       1.153  11.010  20.751  0.00  0.00    +0.000 C 
ATOM     15  C   UNL     1       0.848   9.832  19.808  0.00  0.00    +0.000 C 
ATOM     16  N   UNL     1       2.221   7.506  19.187  0.00  0.00    +0.000 NA
ATOM     17  C   UNL     1       2.916   6.410  18.846  0.00  0.00    +0.000 A 
ATOM     18  C   UNL     1       3.685   6.375  17.684  0.00  0.00    +0.000 A 
ATOM     19  F   UNL     1       3.758   7.494  16.934  0.00  0.00    +0.000 F 
ATOM     20  C   UNL     1       4.364   5.227  17.233  0.00  0.00    +0.000 A 
ATOM     21  H   UNL     1       1.604   3.420  21.141  0.00  0.00    +0.000 HD
ATOM     22  H   UNL     1       1.267   4.534  22.343  0.00  0.00    +0.000 HD
ENDROOT
BRANCH   1  24
ATOM     23  C   UNL     1       4.074   1.716  17.756  0.00  0.00    +0.000 C 
ATOM     24  O   UNL     1       4.853   2.900  17.571  0.00  0.00    +0.000 OA
ENDBRANCH   1  24
BRANCH  20  25
ATOM     25  O   UNL     1       5.015   5.418  16.043  0.00  0.00    +0.000 OA
ATOM     26  C   UNL     1       6.422   5.564  16.024  0.00  0.00    +0.000 C 
ENDBRANCH  20  25
BRANCH  12  27
ATOM     27  C   UNL     1      -0.511  13.482  21.456  0.00  0.00    +0.000 C 
BRANCH  27  28
ATOM     28  C   UNL     1      -1.891  13.895  20.911  0.00  0.00    +0.000 C 
BRANCH  28  29
ATOM     29  C   UNL     1      -2.552  12.908  19.961  0.00  0.00    +0.000 A 
ATOM     30  C   UNL     1      -1.952  12.171  18.951  0.00  0.00    +0.000 A 
ATOM     31  C   UNL     1      -2.883  11.420  18.177  0.00  0.00    +0.000 A 
ATOM     32  C   UNL     1      -4.178  11.602  18.607  0.00  0.00    +0.000 A 
ATOM     33  C   UNL     1      -5.431  11.017  18.054  0.00  0.00    +0.000 C 
ATOM     34  S   UNL     1      -4.254  12.676  19.932  0.00  0.00    +0.000 S 
ENDBRANCH  28  29
BRANCH  28  35
ATOM     35  N   UNL     1      -1.892  15.249  20.333  0.00  0.00    +0.000 NA
ATOM     36  H   UNL     1      -2.788  15.368  19.843  0.00  0.00    +0.000 HD
ATOM     37  H   UNL     1      -1.208  15.289  19.578  0.00  0.00    +0.000 HD
ENDBRANCH  28  35
ENDBRANCH  27  28
ENDBRANCH  12  27
TORSDOF 6
ENDMDL
MODEL 5
REMARK VINA RESULT:      -7.0      1.347      1.637
REMARK  Name = 
REMARK  9 active torsions:
REMARK  status: ('A' for Active; 'I' for Inactive)
REMARK    1  A    between atoms: C_1  and  O_2
REMARK    2  A    between atoms: O_2  and  C_3
REMARK    3  A    between atoms: C_14  and  C_16
REMARK    4  A    between atoms: C_16  and  C_17
REMARK    5  A    between atoms: C_17  and  N_18
REMARK    6  A    between atoms: C_17  and  C_19
REMARK    7  A    between atoms: C_22  and  C_23
REMARK    8  A    between atoms: C_31  and  O_32
REMARK    9  A    between atoms: O_32  and  C_33
REMARK                            x       y       z     vdW  Elec       q    Type
REMARK                         _______ _______ _______ _____ _____    ______ ____
ROOT
ATOM      1  C   UNL     1       0.351  13.106  20.677  0.00  0.00    +0.000 A 
ATOM      2  C   UNL     1       0.013  12.016  21.487  0.00  0.00    +0.000 A 
ATOM      3  C   UNL     1       0.422  10.703  21.157  0.00  0.00    +0.000 A 
ATOM      4  C   UNL     1       0.248   9.593  21.979  0.00  0.00    +0.000 A 
ATOM      5  N   UNL     1      -0.387   9.689  23.224  0.00  0.00    +0.000 N 
ATOM      6  N   UNL     1       0.677   8.369  21.658  0.00  0.00    +0.000 NA
ATOM      7  C   UNL     1       1.305   8.209  20.487  0.00  0.00    +0.000 A 
ATOM      8  N   UNL     1       1.781   6.972  20.150  0.00  0.00    +0.000 N 
ATOM      9  C   UNL     1       1.718   5.841  21.075  0.00  0.00    +0.000 C 
ATOM     10  C   UNL     1       1.063   4.628  20.388  0.00  0.00    +0.000 C 
ATOM     11  N   UNL     1       1.671   4.347  19.076  0.00  0.00    +0.000 N 
ATOM     12  C   UNL     1       2.015   3.044  18.766  0.00  0.00    +0.000 C 
ATOM     13  O   UNL     1       1.835   2.129  19.578  0.00  0.00    +0.000 OA
ATOM     14  C   UNL     1       1.687   5.519  18.181  0.00  0.00    +0.000 C 
ATOM     15  C   UNL     1       2.387   6.719  18.846  0.00  0.00    +0.000 C 
ATOM     16  N   UNL     1       1.500   9.223  19.633  0.00  0.00    +0.000 NA
ATOM     17  C   UNL     1       1.079  10.455  19.959  0.00  0.00    +0.000 A 
ATOM     18  C   UNL     1       1.305  11.542  19.117  0.00  0.00    +0.000 A 
ATOM     19  F   UNL     1       1.912  11.315  17.933  0.00  0.00    +0.000 F 
ATOM     20  C   UNL     1       0.965  12.868  19.446  0.00  0.00    +0.000 A 
ATOM     21  H   UNL     1       0.068  10.372  23.819  0.00  0.00    +0.000 HD
ATOM     22  H   UNL     1      -0.351   8.763  23.641  0.00  0.00    +0.000 HD
ENDROOT
BRANCH   1  24
ATOM     23  C   UNL     1      -1.304  14.773  20.978  0.00  0.00    +0.000 C 
ATOM     24  O   UNL     1       0.066  14.382  21.081  0.00  0.00    +0.000 OA
ENDBRANCH   1  24
BRANCH  20  25
ATOM     25  O   UNL     1       1.326  13.773  18.483  0.00  0.00    +0.000 OA
ATOM     26  C   UNL     1       2.547  14.478  18.601  0.00  0.00    +0.000 C 
ENDBRANCH  20  25
BRANCH  12  27
ATOM     27  C   UNL     1       2.748   2.736  17.469  0.00  0.00    +0.000 C 
BRANCH  27  28
ATOM     28  C   UNL     1       4.283   2.797  17.571  0.00  0.00    +0.000 C 
BRANCH  28  29
ATOM     29  C   UNL     1       4.917   4.141  17.245  0.00  0.00    +0.000 A 
ATOM     30  C   UNL     1       4.731   4.914  16.109  0.00  0.00    +0.000 A 
ATOM     31  C   UNL     1       5.562   6.069  16.075  0.00  0.00    +0.000 A 
ATOM     32  C   UNL     1       6.373   6.156  17.184  0.00  0.00    +0.000 A 
ATOM     33  C   UNL     1       7.390   7.193  17.513  0.00  0.00    +0.000 C 
ATOM     34  S   UNL     1       6.123   4.843  18.247  0.00  0.00    +0.000 S 
ENDBRANCH  28  29
BRANCH  28  35
ATOM     35  N   UNL     1       4.946   1.717  16.822  0.00  0.00    +0.000 NA
ATOM     36  H   UNL     1       4.844   0.857  17.375  0.00  0.00    +0.000 HD
ATOM     37  H   UNL     1       5.953   1.878  16.827  0.00  0.00    +0.000 HD
ENDBRANCH  28  35
ENDBRANCH  27  28
ENDBRANCH  12  27
TORSDOF 6
ENDMDL
MODEL 6
REMARK VINA RESULT:      -6.9      3.944     10.528
REMARK  Name = 
REMARK  9 active torsions:
REMARK  status: ('A' for Active; 'I' for Inactive)
REMARK    1  A    between atoms: C_1  and  O_2
REMARK    2  A    between atoms: O_2  and  C_3
REMARK    3  A    between atoms: C_14  and  C_16
REMARK    4  A    between atoms: C_16  and  C_17
REMARK    5  A    between atoms: C_17  and  N_18
REMARK    6  A    between atoms: C_17  and  C_19
REMARK    7  A    between atoms: C_22  and  C_23
REMARK    8  A    between atoms: C_31  and  O_32
REMARK    9  A    between atoms: O_32  and  C_33
REMARK                            x       y       z     vdW  Elec       q    Type
REMARK                         _______ _______ _______ _____ _____    ______ ____
ROOT
ATOM      1  C   UNL     1       3.701   3.764  19.159  0.00  0.00    +0.000 A 
ATOM      2  C   UNL     1       3.750   4.807  18.228  0.00  0.00    +0.000 A 
ATOM      3  C   UNL     1       3.162   6.063  18.501  0.00  0.00    +0.000 A 
ATOM      4  C   UNL     1       3.290   7.188  17.690  0.00  0.00    +0.000 A 
ATOM      5  N   UNL     1       4.013   7.155  16.491  0.00  0.00    +0.000 N 
ATOM      6  N   UNL     1       2.752   8.373  17.992  0.00  0.00    +0.000 NA
ATOM      7  C   UNL     1       2.058   8.479  19.131  0.00  0.00    +0.000 A 
ATOM      8  N   UNL     1       1.525   9.690  19.476  0.00  0.00    +0.000 N 
ATOM      9  C   UNL     1       1.778  10.898  18.692  0.00  0.00    +0.000 C 
ATOM     10  C   UNL     1       0.448  11.587  18.333  0.00  0.00    +0.000 C 
ATOM     11  N   UNL     1      -0.415  11.761  19.515  0.00  0.00    +0.000 N 
ATOM     12  C   UNL     1      -1.014  12.990  19.727  0.00  0.00    +0.000 C 
ATOM     13  O   UNL     1      -0.821  13.934  18.952  0.00  0.00    +0.000 OA
ATOM     14  C   UNL     1      -0.650  10.506  20.252  0.00  0.00    +0.000 C 
ATOM     15  C   UNL     1       0.678   9.840  20.656  0.00  0.00    +0.000 C 
ATOM     16  N   UNL     1       1.876   7.441  19.959  0.00  0.00    +0.000 NA
ATOM     17  C   UNL     1       2.425   6.253  19.663  0.00  0.00    +0.000 A 
ATOM     18  C   UNL     1       2.296   5.163  20.523  0.00  0.00    +0.000 A 
ATOM     19  F   UNL     1       1.555   5.318  21.640  0.00  0.00    +0.000 F 
ATOM     20  C   UNL     1       2.922   3.921  20.307  0.00  0.00    +0.000 A 
ATOM     21  H   UNL     1       4.967   6.846  16.644  0.00  0.00    +0.000 HD
ATOM     22  H   UNL     1       3.993   8.098  16.113  0.00  0.00    +0.000 HD
ENDROOT
BRANCH   1  24
ATOM     23  C   UNL     1       3.650   1.549  18.321  0.00  0.00    +0.000 C 
ATOM     24  O   UNL     1       4.392   2.604  18.937  0.00  0.00    +0.000 OA
ENDBRANCH   1  24
BRANCH  20  25
ATOM     25  O   UNL     1       2.689   3.018  21.310  0.00  0.00    +0.000 OA
ATOM     26  C   UNL     1       1.390   2.487  21.494  0.00  0.00    +0.000 C 
ENDBRANCH  20  25
BRANCH  12  27
ATOM     27  C   UNL     1      -1.818  13.238  20.994  0.00  0.00    +0.000 C 
BRANCH  27  28
ATOM     28  C   UNL     1      -3.305  13.562  20.756  0.00  0.00    +0.000 C 
BRANCH  28  29
ATOM     29  C   UNL     1      -4.227  13.364  21.949  0.00  0.00    +0.000 A 
ATOM     30  C   UNL     1      -3.874  13.046  23.251  0.00  0.00    +0.000 A 
ATOM     31  C   UNL     1      -4.997  12.828  24.099  0.00  0.00    +0.000 A 
ATOM     32  C   UNL     1      -6.189  12.978  23.427  0.00  0.00    +0.000 A 
ATOM     33  C   UNL     1      -7.576  12.815  23.946  0.00  0.00    +0.000 C 
ATOM     34  S   UNL     1      -5.938  13.375  21.786  0.00  0.00    +0.000 S 
ENDBRANCH  28  29
BRANCH  28  35
ATOM     35  N   UNL     1      -3.849  12.890  19.564  0.00  0.00    +0.000 NA
ATOM     36  H   UNL     1      -4.266  13.617  18.970  0.00  0.00    +0.000 HD
ATOM     37  H   UNL     1      -4.653  12.326  19.839  0.00  0.00    +0.000 HD
ENDBRANCH  28  35
ENDBRANCH  27  28
ENDBRANCH  12  27
TORSDOF 6
ENDMDL
MODEL 7
REMARK VINA RESULT:      -6.9      2.527      4.261
REMARK  Name = 
REMARK  9 active torsions:
REMARK  status: ('A' for Active; 'I' for Inactive)
REMARK    1  A    between atoms: C_1  and  O_2
REMARK    2  A    between atoms: O_2  and  C_3
REMARK    3  A    between atoms: C_14  and  C_16
REMARK    4  A    between atoms: C_16  and  C_17
REMARK    5  A    between atoms: C_17  and  N_18
REMARK    6  A    between atoms: C_17  and  C_19
REMARK    7  A    between atoms: C_22  and  C_23
REMARK    8  A    between atoms: C_31  and  O_32
REMARK    9  A    between atoms: O_32  and  C_33
REMARK                            x       y       z     vdW  Elec       q    Type
REMARK                         _______ _______ _______ _____ _____    ______ ____
ROOT
ATOM      1  C   UNL     1      -2.725  15.430  22.457  0.00  0.00    +0.000 A 
ATOM      2  C   UNL     1      -2.004  15.323  21.263  0.00  0.00    +0.000 A 
ATOM      3  C   UNL     1      -1.463  14.086  20.842  0.00  0.00    +0.000 A 
ATOM      4  C   UNL     1      -0.859  13.869  19.605  0.00  0.00    +0.000 A 
ATOM      5  N   UNL     1      -0.715  14.896  18.664  0.00  0.00    +0.000 N 
ATOM      6  N   UNL     1      -0.388  12.680  19.220  0.00  0.00    +0.000 NA
ATOM      7  C   UNL     1      -0.506  11.650  20.066  0.00  0.00    +0.000 A 
ATOM      8  N   UNL     1      -0.059  10.416  19.681  0.00  0.00    +0.000 N 
ATOM      9  C   UNL     1       0.448  10.164  18.332  0.00  0.00    +0.000 C 
ATOM     10  C   UNL     1       1.833   9.492  18.402  0.00  0.00    +0.000 C 
ATOM     11  N   UNL     1       1.835   8.334  19.313  0.00  0.00    +0.000 N 
ATOM     12  C   UNL     1       2.416   7.153  18.887  0.00  0.00    +0.000 C 
ATOM     13  O   UNL     1       2.911   7.059  17.758  0.00  0.00    +0.000 OA
ATOM     14  C   UNL     1       1.333   8.656  20.661  0.00  0.00    +0.000 C 
ATOM     15  C   UNL     1      -0.073   9.281  20.599  0.00  0.00    +0.000 C 
ATOM     16  N   UNL     1      -1.060  11.779  21.279  0.00  0.00    +0.000 NA
ATOM     17  C   UNL     1      -1.544  12.970  21.664  0.00  0.00    +0.000 A 
ATOM     18  C   UNL     1      -2.169  13.131  22.899  0.00  0.00    +0.000 A 
ATOM     19  F   UNL     1      -2.227  12.067  23.727  0.00  0.00    +0.000 F 
ATOM     20  C   UNL     1      -2.771  14.333  23.319  0.00  0.00    +0.000 A 
ATOM     21  H   UNL     1      -1.609  15.316  18.436  0.00  0.00    +0.000 HD
ATOM     22  H   UNL     1      -0.289  14.478  17.841  0.00  0.00    +0.000 HD
ENDROOT
BRANCH   1  24
ATOM     23  C   UNL     1      -2.503  17.682  23.158  0.00  0.00    +0.000 C 
ATOM     24  O   UNL     1      -3.357  16.599  22.781  0.00  0.00    +0.000 OA
ENDBRANCH   1  24
BRANCH  20  25
ATOM     25  O   UNL     1      -3.363  14.238  24.550  0.00  0.00    +0.000 OA
ATOM     26  C   UNL     1      -2.775  14.878  25.667  0.00  0.00    +0.000 C 
ENDBRANCH  20  25
BRANCH  12  27
ATOM     27  C   UNL     1       2.335   5.907  19.756  0.00  0.00    +0.000 C 
BRANCH  27  28
ATOM     28  C   UNL     1       2.767   4.607  19.051  0.00  0.00    +0.000 C 
BRANCH  28  29
ATOM     29  C   UNL     1       4.186   4.590  18.503  0.00  0.00    +0.000 A 
ATOM     30  C   UNL     1       5.354   4.956  19.156  0.00  0.00    +0.000 A 
ATOM     31  C   UNL     1       6.501   4.921  18.314  0.00  0.00    +0.000 A 
ATOM     32  C   UNL     1       6.189   4.534  17.030  0.00  0.00    +0.000 A 
ATOM     33  C   UNL     1       7.095   4.394  15.856  0.00  0.00    +0.000 C 
ATOM     34  S   UNL     1       4.519   4.222  16.858  0.00  0.00    +0.000 S 
ENDBRANCH  28  29
BRANCH  28  35
ATOM     35  N   UNL     1       1.810   4.174  18.020  0.00  0.00    +0.000 NA
ATOM     36  H   UNL     1       0.867   4.311  18.407  0.00  0.00    +0.000 HD
ATOM     37  H   UNL     1       1.872   3.162  17.912  0.00  0.00    +0.000 HD
ENDBRANCH  28  35
ENDBRANCH  27  28
ENDBRANCH  12  27
TORSDOF 6
ENDMDL
MODEL 8
REMARK VINA RESULT:      -6.7      3.478      8.968
REMARK  Name = 
REMARK  9 active torsions:
REMARK  status: ('A' for Active; 'I' for Inactive)
REMARK    1  A    between atoms: C_1  and  O_2
REMARK    2  A    between atoms: O_2  and  C_3
REMARK    3  A    between atoms: C_14  and  C_16
REMARK    4  A    between atoms: C_16  and  C_17
REMARK    5  A    between atoms: C_17  and  N_18
REMARK    6  A    between atoms: C_17  and  C_19
REMARK    7  A    between atoms: C_22  and  C_23
REMARK    8  A    between atoms: C_31  and  O_32
REMARK    9  A    between atoms: O_32  and  C_33
REMARK                            x       y       z     vdW  Elec       q    Type
REMARK                         _______ _______ _______ _____ _____    ______ ____
ROOT
ATOM      1  C   UNL     1       2.135   6.061  19.944  0.00  0.00    +0.000 A 
ATOM      2  C   UNL     1       1.426   6.821  20.881  0.00  0.00    +0.000 A 
ATOM      3  C   UNL     1       1.051   8.157  20.610  0.00  0.00    +0.000 A 
ATOM      4  C   UNL     1       0.228   8.927  21.427  0.00  0.00    +0.000 A 
ATOM      5  N   UNL     1      -0.290   8.431  22.631  0.00  0.00    +0.000 N 
ATOM      6  N   UNL     1      -0.139  10.176  21.128  0.00  0.00    +0.000 NA
ATOM      7  C   UNL     1       0.309  10.708  19.985  0.00  0.00    +0.000 A 
ATOM      8  N   UNL     1      -0.079  11.974  19.642  0.00  0.00    +0.000 N 
ATOM      9  C   UNL     1      -1.051  12.726  20.434  0.00  0.00    +0.000 C 
ATOM     10  C   UNL     1      -0.489  14.116  20.788  0.00  0.00    +0.000 C 
ATOM     11  N   UNL     1       0.043  14.810  19.602  0.00  0.00    +0.000 N 
ATOM     12  C   UNL     1      -0.305  16.132  19.391  0.00  0.00    +0.000 C 
ATOM     13  O   UNL     1      -1.061  16.722  20.172  0.00  0.00    +0.000 OA
ATOM     14  C   UNL     1       1.033  14.010  18.857  0.00  0.00    +0.000 C 
ATOM     15  C   UNL     1       0.457  12.640  18.457  0.00  0.00    +0.000 C 
ATOM     16  N   UNL     1       1.117  10.039  19.151  0.00  0.00    +0.000 NA
ATOM     17  C   UNL     1       1.477   8.780  19.444  0.00  0.00    +0.000 A 
ATOM     18  C   UNL     1       2.278   8.038  18.578  0.00  0.00    +0.000 A 
ATOM     19  F   UNL     1       2.730   8.637  17.457  0.00  0.00    +0.000 F 
ATOM     20  C   UNL     1       2.615   6.688  18.792  0.00  0.00    +0.000 A 
ATOM     21  H   UNL     1      -0.813   7.575  22.482  0.00  0.00    +0.000 HD
ATOM     22  H   UNL     1      -0.886   9.160  23.013  0.00  0.00    +0.000 HD
ENDROOT
BRANCH   1  24
ATOM     23  C   UNL     1       1.370   4.044  20.921  0.00  0.00    +0.000 C 
ATOM     24  O   UNL     1       2.369   4.732  20.165  0.00  0.00    +0.000 OA
ENDBRANCH   1  24
BRANCH  20  25
ATOM     25  O   UNL     1       3.372   6.154  17.783  0.00  0.00    +0.000 OA
ATOM     26  C   UNL     1       4.775   6.050  17.934  0.00  0.00    +0.000 C 
ENDBRANCH  20  25
BRANCH  12  27
ATOM     27  C   UNL     1       0.133  16.843  18.120  0.00  0.00    +0.000 C 
BRANCH  27  28
ATOM     28  C   UNL     1       1.414  17.686  18.268  0.00  0.00    +0.000 C 
BRANCH  28  29
ATOM     29  C   UNL     1       2.720  16.907  18.300  0.00  0.00    +0.000 A 
ATOM     30  C   UNL     1       3.240  16.079  17.316  0.00  0.00    +0.000 A 
ATOM     31  C   UNL     1       4.436  15.418  17.715  0.00  0.00    +0.000 A 
ATOM     32  C   UNL     1       4.806  15.747  19.000  0.00  0.00    +0.000 A 
ATOM     33  C   UNL     1       5.972  15.257  19.785  0.00  0.00    +0.000 C 
ATOM     34  S   UNL     1       3.706  16.845  19.706  0.00  0.00    +0.000 S 
ENDBRANCH  28  29
BRANCH  28  35
ATOM     35  N   UNL     1       1.347  18.629  19.396  0.00  0.00    +0.000 NA
ATOM     36  H   UNL     1       1.245  18.070  20.252  0.00  0.00    +0.000 HD
ATOM     37  H   UNL     1       0.468  19.143  19.348  0.00  0.00    +0.000 HD
ENDBRANCH  28  35
ENDBRANCH  27  28
ENDBRANCH  12  27
TORSDOF 6
ENDMDL
MODEL 9
REMARK VINA RESULT:      -6.6      3.534     10.001
REMARK  Name = 
REMARK  9 active torsions:
REMARK  status: ('A' for Active; 'I' for Inactive)
REMARK    1  A    between atoms: C_1  and  O_2
REMARK    2  A    between atoms: O_2  and  C_3
REMARK    3  A    between atoms: C_14  and  C_16
REMARK    4  A    between atoms: C_16  and  C_17
REMARK    5  A    between atoms: C_17  and  N_18
REMARK    6  A    between atoms: C_17  and  C_19
REMARK    7  A    between atoms: C_22  and  C_23
REMARK    8  A    between atoms: C_31  and  O_32
REMARK    9  A    between atoms: O_32  and  C_33
REMARK                            x       y       z     vdW  Elec       q    Type
REMARK                         _______ _______ _______ _____ _____    ______ ____
ROOT
ATOM      1  C   UNL     1       4.291   4.313  18.006  0.00  0.00    +0.000 A 
ATOM      2  C   UNL     1       3.590   4.327  19.217  0.00  0.00    +0.000 A 
ATOM      3  C   UNL     1       2.851   5.462  19.624  0.00  0.00    +0.000 A 
ATOM      4  C   UNL     1       2.018   5.503  20.739  0.00  0.00    +0.000 A 
ATOM      5  N   UNL     1       1.860   4.396  21.584  0.00  0.00    +0.000 N 
ATOM      6  N   UNL     1       1.304   6.579  21.080  0.00  0.00    +0.000 NA
ATOM      7  C   UNL     1       1.397   7.668  20.308  0.00  0.00    +0.000 A 
ATOM      8  N   UNL     1       0.651   8.771  20.619  0.00  0.00    +0.000 N 
ATOM      9  C   UNL     1      -0.325   8.762  21.709  0.00  0.00    +0.000 C 
ATOM     10  C   UNL     1      -0.075   9.952  22.656  0.00  0.00    +0.000 C 
ATOM     11  N   UNL     1       0.050  11.222  21.920  0.00  0.00    +0.000 N 
ATOM     12  C   UNL     1      -0.649  12.326  22.373  0.00  0.00    +0.000 C 
ATOM     13  O   UNL     1      -1.379  12.251  23.367  0.00  0.00    +0.000 OA
ATOM     14  C   UNL     1       1.063  11.174  20.849  0.00  0.00    +0.000 C 
ATOM     15  C   UNL     1       0.787  10.018  19.871  0.00  0.00    +0.000 C 
ATOM     16  N   UNL     1       2.187   7.715  19.227  0.00  0.00    +0.000 NA
ATOM     17  C   UNL     1       2.897   6.631  18.877  0.00  0.00    +0.000 A 
ATOM     18  C   UNL     1       3.693   6.628  17.733  0.00  0.00    +0.000 A 
ATOM     19  F   UNL     1       3.777   7.766  17.012  0.00  0.00    +0.000 F 
ATOM     20  C   UNL     1       4.389   5.495  17.270  0.00  0.00    +0.000 A 
ATOM     21  H   UNL     1       1.550   3.580  21.068  0.00  0.00    +0.000 HD
ATOM     22  H   UNL     1       1.177   4.663  22.288  0.00  0.00    +0.000 HD
ENDROOT
BRANCH   1  24
ATOM     23  C   UNL     1       4.069   1.990  17.599  0.00  0.00    +0.000 C 
ATOM     24  O   UNL     1       4.885   3.163  17.564  0.00  0.00    +0.000 OA
ENDBRANCH   1  24
BRANCH  20  25
ATOM     25  O   UNL     1       5.067   5.718  16.101  0.00  0.00    +0.000 OA
ATOM     26  C   UNL     1       6.475   5.854  16.117  0.00  0.00    +0.000 C 
ENDBRANCH  20  25
BRANCH  12  27
ATOM     27  C   UNL     1      -0.633  13.620  21.573  0.00  0.00    +0.000 C 
BRANCH  27  28
ATOM     28  C   UNL     1      -1.857  13.823  20.661  0.00  0.00    +0.000 C 
BRANCH  28  29
ATOM     29  C   UNL     1      -3.215  13.681  21.332  0.00  0.00    +0.000 A 
ATOM     30  C   UNL     1      -4.216  12.768  21.038  0.00  0.00    +0.000 A 
ATOM     31  C   UNL     1      -5.407  12.981  21.789  0.00  0.00    +0.000 A 
ATOM     32  C   UNL     1      -5.296  14.058  22.640  0.00  0.00    +0.000 A 
ATOM     33  C   UNL     1      -6.317  14.615  23.570  0.00  0.00    +0.000 C 
ATOM     34  S   UNL     1      -3.762  14.797  22.519  0.00  0.00    +0.000 S 
ENDBRANCH  28  29
BRANCH  28  35
ATOM     35  N   UNL     1      -1.797  13.006  19.438  0.00  0.00    +0.000 NA
ATOM     36  H   UNL     1      -1.857  12.022  19.729  0.00  0.00    +0.000 HD
ATOM     37  H   UNL     1      -0.861  13.073  19.038  0.00  0.00    +0.000 HD
ENDBRANCH  28  35
ENDBRANCH  27  28
ENDBRANCH  12  27
TORSDOF 6
ENDMDL
