MODEL 1
REMARK VINA RESULT:      -8.3      0.000      0.000
REMARK  Name = 
REMARK  9 active torsions:
REMARK  status: ('A' for Active; 'I' for Inactive)
REMARK    1  A    between atoms: C_1  and  O_2
REMARK    2  A    between atoms: O_2  and  C_3
REMARK    3  A    between atoms: C_5  and  C_6
REMARK    4  A    between atoms: N_11  and  C_12
REMARK    5  A    between atoms: C_12  and  C_13
REMARK    6  A    between atoms: C_13  and  O_15
REMARK    7  A    between atoms: C_20  and  O_21
REMARK    8  A    between atoms: O_21  and  C_22
REMARK    9  A    between atoms: C_22  and  C_24
REMARK                            x       y       z     vdW  Elec       q    Type
REMARK                         _______ _______ _______ _____ _____    ______ ____
ROOT
ATOM      1  C   UNL     1       5.339   5.126  19.050  0.00  0.00    +0.000 A 
ATOM      2  C   UNL     1       4.848   6.392  18.712  0.00  0.00    +0.000 A 
ATOM      3  C   UNL     1       3.648   6.535  18.004  0.00  0.00    +0.000 A 
ATOM      4  C   UNL     1       2.947   5.410  17.580  0.00  0.00    +0.000 A 
ATOM      5  C   UNL     1       3.411   4.145  17.927  0.00  0.00    +0.000 A 
ATOM      6  C   UNL     1       4.564   4.004  18.711  0.00  0.00    +0.000 A 
ENDROOT
BRANCH   3   7
ATOM      7  C   UNL     1       3.110   7.867  17.762  0.00  0.00    +0.000 C 
ATOM      8  C   UNL     1       2.232   8.512  18.539  0.00  0.00    +0.000 C 
ATOM      9  S   UNL     1       1.570  10.040  18.105  0.00  0.00    +0.000 S 
ATOM     10  C   UNL     1       0.441  10.042  19.453  0.00  0.00    +0.000 C 
ATOM     11  S   UNL     1      -0.704  11.237  19.635  0.00  0.00    +0.000 S 
ATOM     12  N   UNL     1       0.684   8.954  20.264  0.00  0.00    +0.000 N 
ATOM     13  C   UNL     1       1.634   8.055  19.823  0.00  0.00    +0.000 C 
ATOM     14  O   UNL     1       1.874   6.997  20.393  0.00  0.00    +0.000 OA
BRANCH  12  15
ATOM     15  C   UNL     1       0.023   8.702  21.548  0.00  0.00    +0.000 C 
BRANCH  15  16
ATOM     16  C   UNL     1       0.743   9.338  22.729  0.00  0.00    +0.000 C 
ATOM     17  O   UNL     1       0.165   9.930  23.628  0.00  0.00    +0.000 OA
BRANCH  16  18
ATOM     18  O   UNL     1       2.095   9.281  22.669  0.00  0.00    +0.000 OA
ATOM     19  H   UNL     1       2.464   8.412  22.377  0.00  0.00    +0.000 HD
ENDBRANCH  16  18
ENDBRANCH  15  16
ENDBRANCH  12  15
ENDBRANCH   3   7
BRANCH   1  21
ATOM     20  C   UNL     1       7.588   5.815  19.335  0.00  0.00    +0.000 C 
ATOM     21  O   UNL     1       6.522   4.936  19.715  0.00  0.00    +0.000 OA
ENDBRANCH   1  21
BRANCH   6  22
ATOM     22  O   UNL     1       4.999   2.709  19.059  0.00  0.00    +0.000 OA
BRANCH  22  23
ATOM     23  C   UNL     1       4.573   2.189  20.292  0.00  0.00    +0.000 C 
ATOM     24  O   UNL     1       5.295   1.666  21.132  0.00  0.00    +0.000 OA
BRANCH  23  25
ATOM     25  C   UNL     1       3.158   2.452  20.469  0.00  0.00    +0.000 A 
ATOM     26  C   UNL     1       2.482   3.269  21.358  0.00  0.00    +0.000 A 
ATOM     27  C   UNL     1       1.103   3.169  21.043  0.00  0.00    +0.000 A 
ATOM     28  C   UNL     1       1.020   2.309  19.974  0.00  0.00    +0.000 A 
ATOM     29  O   UNL     1       2.255   1.869  19.619  0.00  0.00    +0.000 OA
ENDBRANCH  23  25
ENDBRANCH  22  23
ENDBRANCH   6  22
TORSDOF 8
ENDMDL
MODEL 2
REMARK VINA RESULT:      -7.6      3.490      4.972
REMARK  Name = 
REMARK  9 active torsions:
REMARK  status: ('A' for Active; 'I' for Inactive)
REMARK    1  A    between atoms: C_1  and  O_2
REMARK    2  A    between atoms: O_2  and  C_3
REMARK    3  A    between atoms: C_5  and  C_6
REMARK    4  A    between atoms: N_11  and  C_12
REMARK    5  A    between atoms: C_12  and  C_13
REMARK    6  A    between atoms: C_13  and  O_15
REMARK    7  A    between atoms: C_20  and  O_21
REMARK    8  A    between atoms: O_21  and  C_22
REMARK    9  A    between atoms: C_22  and  C_24
REMARK                            x       y       z     vdW  Elec       q    Type
REMARK                         _______ _______ _______ _____ _____    ______ ____
ROOT
ATOM      1  C   UNL     1       5.728   4.932  18.650  0.00  0.00    +0.000 A 
ATOM      2  C   UNL     1       4.769   5.406  19.553  0.00  0.00    +0.000 A 
ATOM      3  C   UNL     1       3.455   5.660  19.142  0.00  0.00    +0.000 A 
ATOM      4  C   UNL     1       3.093   5.491  17.809  0.00  0.00    +0.000 A 
ATOM      5  C   UNL     1       4.028   5.001  16.903  0.00  0.00    +0.000 A 
ATOM      6  C   UNL     1       5.320   4.662  17.333  0.00  0.00    +0.000 A 
ENDROOT
BRANCH   3   7
ATOM      7  C   UNL     1       2.455   6.048  20.128  0.00  0.00    +0.000 C 
ATOM      8  C   UNL     1       1.812   7.220  20.174  0.00  0.00    +0.000 C 
ATOM      9  S   UNL     1       0.731   7.625  21.450  0.00  0.00    +0.000 S 
ATOM     10  C   UNL     1       0.535   9.280  20.889  0.00  0.00    +0.000 C 
ATOM     11  S   UNL     1      -0.341  10.401  21.754  0.00  0.00    +0.000 S 
ATOM     12  N   UNL     1       1.187   9.442  19.685  0.00  0.00    +0.000 N 
ATOM     13  C   UNL     1       1.929   8.369  19.235  0.00  0.00    +0.000 C 
ATOM     14  O   UNL     1       2.637   8.413  18.236  0.00  0.00    +0.000 OA
BRANCH  12  15
ATOM     15  C   UNL     1       1.133  10.652  18.860  0.00  0.00    +0.000 C 
BRANCH  15  16
ATOM     16  C   UNL     1      -0.214  10.855  18.179  0.00  0.00    +0.000 C 
ATOM     17  O   UNL     1      -0.878   9.938  17.717  0.00  0.00    +0.000 OA
BRANCH  16  18
ATOM     18  O   UNL     1      -0.590  12.148  18.036  0.00  0.00    +0.000 OA
ATOM     19  H   UNL     1       0.143  12.774  17.817  0.00  0.00    +0.000 HD
ENDBRANCH  16  18
ENDBRANCH  15  16
ENDBRANCH  12  15
ENDBRANCH   3   7
BRANCH   1  21
ATOM     20  C   UNL     1       7.808   5.866  19.294  0.00  0.00    +0.000 C 
ATOM     21  O   UNL     1       7.033   4.698  18.999  0.00  0.00    +0.000 OA
ENDBRANCH   1  21
BRANCH   6  22
ATOM     22  O   UNL     1       6.240   4.153  16.394  0.00  0.00    +0.000 OA
BRANCH  22  23
ATOM     23  C   UNL     1       6.880   5.073  15.547  0.00  0.00    +0.000 C 
ATOM     24  O   UNL     1       7.463   6.088  15.910  0.00  0.00    +0.000 OA
BRANCH  23  25
ATOM     25  C   UNL     1       6.834   4.592  14.180  0.00  0.00    +0.000 A 
ATOM     26  C   UNL     1       6.071   3.606  13.582  0.00  0.00    +0.000 A 
ATOM     27  C   UNL     1       6.413   3.597  12.206  0.00  0.00    +0.000 A 
ATOM     28  C   UNL     1       7.353   4.587  12.044  0.00  0.00    +0.000 A 
ATOM     29  O   UNL     1       7.616   5.194  13.230  0.00  0.00    +0.000 OA
ENDBRANCH  23  25
ENDBRANCH  22  23
ENDBRANCH   6  22
TORSDOF 8
ENDMDL
MODEL 3
REMARK VINA RESULT:      -7.6      3.564      4.926
REMARK  Name = 
REMARK  9 active torsions:
REMARK  status: ('A' for Active; 'I' for Inactive)
REMARK    1  A    between atoms: C_1  and  O_2
REMARK    2  A    between atoms: O_2  and  C_3
REMARK    3  A    between atoms: C_5  and  C_6
REMARK    4  A    between atoms: N_11  and  C_12
REMARK    5  A    between atoms: C_12  and  C_13
REMARK    6  A    between atoms: C_13  and  O_15
REMARK    7  A    between atoms: C_20  and  O_21
REMARK    8  A    between atoms: O_21  and  C_22
REMARK    9  A    between atoms: C_22  and  C_24
REMARK                            x       y       z     vdW  Elec       q    Type
REMARK                         _______ _______ _______ _____ _____    ______ ____
ROOT
ATOM      1  C   UNL     1       6.132   5.072  18.049  0.00  0.00    +0.000 A 
ATOM      2  C   UNL     1       5.236   5.596  18.988  0.00  0.00    +0.000 A 
ATOM      3  C   UNL     1       3.853   5.510  18.791  0.00  0.00    +0.000 A 
ATOM      4  C   UNL     1       3.346   4.943  17.626  0.00  0.00    +0.000 A 
ATOM      5  C   UNL     1       4.222   4.398  16.693  0.00  0.00    +0.000 A 
ATOM      6  C   UNL     1       5.604   4.405  16.931  0.00  0.00    +0.000 A 
ENDROOT
BRANCH   3   7
ATOM      7  C   UNL     1       2.948   5.967  19.838  0.00  0.00    +0.000 C 
ATOM      8  C   UNL     1       2.213   7.085  19.806  0.00  0.00    +0.000 C 
ATOM      9  S   UNL     1       1.260   7.596  21.145  0.00  0.00    +0.000 S 
ATOM     10  C   UNL     1       0.854   9.132  20.393  0.00  0.00    +0.000 C 
ATOM     11  S   UNL     1      -0.009  10.304  21.204  0.00  0.00    +0.000 S 
ATOM     12  N   UNL     1       1.340   9.161  19.104  0.00  0.00    +0.000 N 
ATOM     13  C   UNL     1       2.116   8.089  18.712  0.00  0.00    +0.000 C 
ATOM     14  O   UNL     1       2.693   8.035  17.632  0.00  0.00    +0.000 OA
BRANCH  12  15
ATOM     15  C   UNL     1       1.081  10.230  18.135  0.00  0.00    +0.000 C 
BRANCH  15  16
ATOM     16  C   UNL     1       2.027  11.414  18.279  0.00  0.00    +0.000 C 
ATOM     17  O   UNL     1       1.998  12.185  19.228  0.00  0.00    +0.000 OA
BRANCH  16  18
ATOM     18  O   UNL     1       2.856  11.612  17.227  0.00  0.00    +0.000 OA
ATOM     19  H   UNL     1       2.638  11.085  16.419  0.00  0.00    +0.000 HD
ENDBRANCH  16  18
ENDBRANCH  15  16
ENDBRANCH  12  15
ENDBRANCH   3   7
BRANCH   1  21
ATOM     20  C   UNL     1       7.967   6.304  18.905  0.00  0.00    +0.000 C 
ATOM     21  O   UNL     1       7.493   5.159  18.184  0.00  0.00    +0.000 OA
ENDBRANCH   1  21
BRANCH   6  22
ATOM     22  O   UNL     1       6.464   3.832  15.974  0.00  0.00    +0.000 OA
BRANCH  22  23
ATOM     23  C   UNL     1       6.802   4.611  14.855  0.00  0.00    +0.000 C 
ATOM     24  O   UNL     1       7.509   5.610  14.871  0.00  0.00    +0.000 OA
BRANCH  23  25
ATOM     25  C   UNL     1       6.266   3.998  13.654  0.00  0.00    +0.000 A 
ATOM     26  C   UNL     1       4.969   3.866  13.195  0.00  0.00    +0.000 A 
ATOM     27  C   UNL     1       5.041   3.219  11.936  0.00  0.00    +0.000 A 
ATOM     28  C   UNL     1       6.378   3.008  11.695  0.00  0.00    +0.000 A 
ATOM     29  O   UNL     1       7.128   3.474  12.727  0.00  0.00    +0.000 OA
ENDBRANCH  23  25
ENDBRANCH  22  23
ENDBRANCH   6  22
TORSDOF 8
ENDMDL
MODEL 4
REMARK VINA RESULT:      -7.5      3.646      4.987
REMARK  Name = 
REMARK  9 active torsions:
REMARK  status: ('A' for Active; 'I' for Inactive)
REMARK    1  A    between atoms: C_1  and  O_2
REMARK    2  A    between atoms: O_2  and  C_3
REMARK    3  A    between atoms: C_5  and  C_6
REMARK    4  A    between atoms: N_11  and  C_12
REMARK    5  A    between atoms: C_12  and  C_13
REMARK    6  A    between atoms: C_13  and  O_15
REMARK    7  A    between atoms: C_20  and  O_21
REMARK    8  A    between atoms: O_21  and  C_22
REMARK    9  A    between atoms: C_22  and  C_24
REMARK                            x       y       z     vdW  Elec       q    Type
REMARK                         _______ _______ _______ _____ _____    ______ ____
ROOT
ATOM      1  C   UNL     1       6.118   4.995  17.821  0.00  0.00    +0.000 A 
ATOM      2  C   UNL     1       5.219   5.475  18.780  0.00  0.00    +0.000 A 
ATOM      3  C   UNL     1       3.839   5.290  18.632  0.00  0.00    +0.000 A 
ATOM      4  C   UNL     1       3.335   4.666  17.495  0.00  0.00    +0.000 A 
ATOM      5  C   UNL     1       4.216   4.164  16.543  0.00  0.00    +0.000 A 
ATOM      6  C   UNL     1       5.601   4.271  16.734  0.00  0.00    +0.000 A 
ENDROOT
BRANCH   3   7
ATOM      7  C   UNL     1       2.939   5.705  19.700  0.00  0.00    +0.000 C 
ATOM      8  C   UNL     1       2.277   6.867  19.761  0.00  0.00    +0.000 C 
ATOM      9  S   UNL     1       1.325   7.310  21.124  0.00  0.00    +0.000 S 
ATOM     10  C   UNL     1       1.034   8.934  20.514  0.00  0.00    +0.000 C 
ATOM     11  S   UNL     1       0.227  10.077  21.416  0.00  0.00    +0.000 S 
ATOM     12  N   UNL     1       1.553   9.052  19.242  0.00  0.00    +0.000 N 
ATOM     13  C   UNL     1       2.269   7.972  18.765  0.00  0.00    +0.000 C 
ATOM     14  O   UNL     1       2.868   7.983  17.696  0.00  0.00    +0.000 OA
BRANCH  12  15
ATOM     15  C   UNL     1       1.385  10.220  18.374  0.00  0.00    +0.000 C 
BRANCH  15  16
ATOM     16  C   UNL     1      -0.067  10.493  18.008  0.00  0.00    +0.000 C 
ATOM     17  O   UNL     1      -0.817   9.639  17.556  0.00  0.00    +0.000 OA
BRANCH  16  18
ATOM     18  O   UNL     1      -0.452  11.785  18.131  0.00  0.00    +0.000 OA
ATOM     19  H   UNL     1      -0.992  12.133  17.379  0.00  0.00    +0.000 HD
ENDBRANCH  16  18
ENDBRANCH  15  16
ENDBRANCH  12  15
ENDBRANCH   3   7
BRANCH   1  21
ATOM     20  C   UNL     1       7.905   6.100  18.917  0.00  0.00    +0.000 C 
ATOM     21  O   UNL     1       7.474   5.179  17.908  0.00  0.00    +0.000 OA
ENDBRANCH   1  21
BRANCH   6  22
ATOM     22  O   UNL     1       6.468   3.739  15.758  0.00  0.00    +0.000 OA
BRANCH  22  23
ATOM     23  C   UNL     1       6.752   4.537  14.638  0.00  0.00    +0.000 C 
ATOM     24  O   UNL     1       7.424   5.561  14.646  0.00  0.00    +0.000 OA
BRANCH  23  25
ATOM     25  C   UNL     1       6.213   3.913  13.445  0.00  0.00    +0.000 A 
ATOM     26  C   UNL     1       6.811   3.144  12.464  0.00  0.00    +0.000 A 
ATOM     27  C   UNL     1       5.789   2.763  11.558  0.00  0.00    +0.000 A 
ATOM     28  C   UNL     1       4.626   3.311  12.047  0.00  0.00    +0.000 A 
ATOM     29  O   UNL     1       4.871   4.009  13.186  0.00  0.00    +0.000 OA
ENDBRANCH  23  25
ENDBRANCH  22  23
ENDBRANCH   6  22
TORSDOF 8
ENDMDL
MODEL 5
REMARK VINA RESULT:      -7.2      2.256      4.037
REMARK  Name = 
REMARK  9 active torsions:
REMARK  status: ('A' for Active; 'I' for Inactive)
REMARK    1  A    between atoms: C_1  and  O_2
REMARK    2  A    between atoms: O_2  and  C_3
REMARK    3  A    between atoms: C_5  and  C_6
REMARK    4  A    between atoms: N_11  and  C_12
REMARK    5  A    between atoms: C_12  and  C_13
REMARK    6  A    between atoms: C_13  and  O_15
REMARK    7  A    between atoms: C_20  and  O_21
REMARK    8  A    between atoms: O_21  and  C_22
REMARK    9  A    between atoms: C_22  and  C_24
REMARK                            x       y       z     vdW  Elec       q    Type
REMARK                         _______ _______ _______ _____ _____    ______ ____
ROOT
ATOM      1  C   UNL     1       3.131   5.017  18.331  0.00  0.00    +0.000 A 
ATOM      2  C   UNL     1       2.208   6.054  18.151  0.00  0.00    +0.000 A 
ATOM      3  C   UNL     1       2.626   7.334  17.771  0.00  0.00    +0.000 A 
ATOM      4  C   UNL     1       3.981   7.610  17.614  0.00  0.00    +0.000 A 
ATOM      5  C   UNL     1       4.910   6.587  17.769  0.00  0.00    +0.000 A 
ATOM      6  C   UNL     1       4.485   5.283  18.063  0.00  0.00    +0.000 A 
ENDROOT
BRANCH   3   7
ATOM      7  C   UNL     1       1.632   8.361  17.487  0.00  0.00    +0.000 C 
ATOM      8  C   UNL     1       1.063   9.172  18.386  0.00  0.00    +0.000 C 
ATOM      9  S   UNL     1      -0.188  10.276  17.964  0.00  0.00    +0.000 S 
ATOM     10  C   UNL     1      -0.483  10.730  19.637  0.00  0.00    +0.000 C 
ATOM     11  S   UNL     1      -1.731  11.748  20.062  0.00  0.00    +0.000 S 
ATOM     12  N   UNL     1       0.455  10.136  20.452  0.00  0.00    +0.000 N 
ATOM     13  C   UNL     1       1.325   9.249  19.849  0.00  0.00    +0.000 C 
ATOM     14  O   UNL     1       2.138   8.576  20.471  0.00  0.00    +0.000 OA
BRANCH  12  15
ATOM     15  C   UNL     1       0.598  10.388  21.889  0.00  0.00    +0.000 C 
BRANCH  15  16
ATOM     16  C   UNL     1      -0.132   9.368  22.753  0.00  0.00    +0.000 C 
ATOM     17  O   UNL     1      -0.168   9.426  23.974  0.00  0.00    +0.000 OA
BRANCH  16  18
ATOM     18  O   UNL     1      -0.669   8.327  22.073  0.00  0.00    +0.000 OA
ATOM     19  H   UNL     1      -0.267   8.156  21.186  0.00  0.00    +0.000 HD
ENDBRANCH  16  18
ENDBRANCH  15  16
ENDBRANCH  12  15
ENDBRANCH   3   7
BRANCH   1  21
ATOM     20  C   UNL     1       1.498   3.302  18.261  0.00  0.00    +0.000 C 
ATOM     21  O   UNL     1       2.772   3.757  18.732  0.00  0.00    +0.000 OA
ENDBRANCH   1  21
BRANCH   6  22
ATOM     22  O   UNL     1       5.449   4.265  18.198  0.00  0.00    +0.000 OA
BRANCH  22  23
ATOM     23  C   UNL     1       6.722   4.499  17.652  0.00  0.00    +0.000 C 
ATOM     24  O   UNL     1       7.750   4.675  18.295  0.00  0.00    +0.000 OA
BRANCH  23  25
ATOM     25  C   UNL     1       6.659   4.405  16.207  0.00  0.00    +0.000 A 
ATOM     26  C   UNL     1       5.900   3.603  15.374  0.00  0.00    +0.000 A 
ATOM     27  C   UNL     1       6.218   3.974  14.043  0.00  0.00    +0.000 A 
ATOM     28  C   UNL     1       7.140   4.988  14.143  0.00  0.00    +0.000 A 
ATOM     29  O   UNL     1       7.415   5.257  15.445  0.00  0.00    +0.000 OA
ENDBRANCH  23  25
ENDBRANCH  22  23
ENDBRANCH   6  22
TORSDOF 8
ENDMDL
MODEL 6
REMARK VINA RESULT:      -7.1      0.895      1.077
REMARK  Name = 
REMARK  9 active torsions:
REMARK  status: ('A' for Active; 'I' for Inactive)
REMARK    1  A    between atoms: C_1  and  O_2
REMARK    2  A    between atoms: O_2  and  C_3
REMARK    3  A    between atoms: C_5  and  C_6
REMARK    4  A    between atoms: N_11  and  C_12
REMARK    5  A    between atoms: C_12  and  C_13
REMARK    6  A    between atoms: C_13  and  O_15
REMARK    7  A    between atoms: C_20  and  O_21
REMARK    8  A    between atoms: O_21  and  C_22
REMARK    9  A    between atoms: C_22  and  C_24
REMARK                            x       y       z     vdW  Elec       q    Type
REMARK                         _______ _______ _______ _____ _____    ______ ____
ROOT
ATOM      1  C   UNL     1       4.967   4.962  18.279  0.00  0.00    +0.000 A 
ATOM      2  C   UNL     1       4.521   6.262  18.012  0.00  0.00    +0.000 A 
ATOM      3  C   UNL     1       3.180   6.513  17.698  0.00  0.00    +0.000 A 
ATOM      4  C   UNL     1       2.275   5.460  17.596  0.00  0.00    +0.000 A 
ATOM      5  C   UNL     1       2.698   4.166  17.878  0.00  0.00    +0.000 A 
ATOM      6  C   UNL     1       4.020   3.924  18.280  0.00  0.00    +0.000 A 
ENDROOT
BRANCH   3   7
ATOM      7  C   UNL     1       2.725   7.888  17.532  0.00  0.00    +0.000 C 
ATOM      8  C   UNL     1       2.197   8.659  18.488  0.00  0.00    +0.000 C 
ATOM      9  S   UNL     1       1.584  10.235  18.163  0.00  0.00    +0.000 S 
ATOM     10  C   UNL     1       0.932  10.421  19.785  0.00  0.00    +0.000 C 
ATOM     11  S   UNL     1       0.020  11.746  20.216  0.00  0.00    +0.000 S 
ATOM     12  N   UNL     1       1.307   9.347  20.563  0.00  0.00    +0.000 N 
ATOM     13  C   UNL     1       1.982   8.326  19.923  0.00  0.00    +0.000 C 
ATOM     14  O   UNL     1       2.283   7.272  20.470  0.00  0.00    +0.000 OA
BRANCH  12  15
ATOM     15  C   UNL     1       1.053   9.224  22.001  0.00  0.00    +0.000 C 
BRANCH  15  16
ATOM     16  C   UNL     1      -0.376   8.809  22.325  0.00  0.00    +0.000 C 
ATOM     17  O   UNL     1      -1.009   8.002  21.658  0.00  0.00    +0.000 OA
BRANCH  16  18
ATOM     18  O   UNL     1      -0.939   9.471  23.363  0.00  0.00    +0.000 OA
ATOM     19  H   UNL     1      -1.339   8.893  24.059  0.00  0.00    +0.000 HD
ENDBRANCH  16  18
ENDBRANCH  15  16
ENDBRANCH  12  15
ENDBRANCH   3   7
BRANCH   1  21
ATOM     20  C   UNL     1       6.997   5.678  19.271  0.00  0.00    +0.000 C 
ATOM     21  O   UNL     1       6.275   4.664  18.561  0.00  0.00    +0.000 OA
ENDBRANCH   1  21
BRANCH   6  22
ATOM     22  O   UNL     1       4.414   2.604  18.574  0.00  0.00    +0.000 OA
BRANCH  22  23
ATOM     23  C   UNL     1       4.360   2.193  19.916  0.00  0.00    +0.000 C 
ATOM     24  O   UNL     1       5.279   1.675  20.539  0.00  0.00    +0.000 OA
BRANCH  23  25
ATOM     25  C   UNL     1       3.081   2.564  20.489  0.00  0.00    +0.000 A 
ATOM     26  C   UNL     1       2.742   3.516  21.433  0.00  0.00    +0.000 A 
ATOM     27  C   UNL     1       1.332   3.470  21.577  0.00  0.00    +0.000 A 
ATOM     28  C   UNL     1       0.894   2.504  20.703  0.00  0.00    +0.000 A 
ATOM     29  O   UNL     1       1.941   1.949  20.041  0.00  0.00    +0.000 OA
ENDBRANCH  23  25
ENDBRANCH  22  23
ENDBRANCH   6  22
TORSDOF 8
ENDMDL
MODEL 7
REMARK VINA RESULT:      -7.1      1.784      3.139
REMARK  Name = 
REMARK  9 active torsions:
REMARK  status: ('A' for Active; 'I' for Inactive)
REMARK    1  A    between atoms: C_1  and  O_2
REMARK    2  A    between atoms: O_2  and  C_3
REMARK    3  A    between atoms: C_5  and  C_6
REMARK    4  A    between atoms: N_11  and  C_12
REMARK    5  A    between atoms: C_12  and  C_13
REMARK    6  A    between atoms: C_13  and  O_15
REMARK    7  A    between atoms: C_20  and  O_21
REMARK    8  A    between atoms: O_21  and  C_22
REMARK    9  A    between atoms: C_22  and  C_24
REMARK                            x       y       z     vdW  Elec       q    Type
REMARK                         _______ _______ _______ _____ _____    ______ ____
ROOT
ATOM      1  C   UNL     1       2.764   6.289  19.516  0.00  0.00    +0.000 A 
ATOM      2  C   UNL     1       1.737   7.185  19.200  0.00  0.00    +0.000 A 
ATOM      3  C   UNL     1       1.912   8.163  18.213  0.00  0.00    +0.000 A 
ATOM      4  C   UNL     1       3.135   8.290  17.562  0.00  0.00    +0.000 A 
ATOM      5  C   UNL     1       4.159   7.393  17.850  0.00  0.00    +0.000 A 
ATOM      6  C   UNL     1       3.955   6.359  18.775  0.00  0.00    +0.000 A 
ENDROOT
BRANCH   3   7
ATOM      7  C   UNL     1       0.788   9.009  17.832  0.00  0.00    +0.000 C 
ATOM      8  C   UNL     1       0.197   9.924  18.608  0.00  0.00    +0.000 C 
ATOM      9  S   UNL     1      -1.200  10.793  18.102  0.00  0.00    +0.000 S 
ATOM     10  C   UNL     1      -1.423  11.542  19.678  0.00  0.00    +0.000 C 
ATOM     11  S   UNL     1      -2.745  12.496  20.015  0.00  0.00    +0.000 S 
ATOM     12  N   UNL     1      -0.365  11.218  20.500  0.00  0.00    +0.000 N 
ATOM     13  C   UNL     1       0.554  10.317  19.998  0.00  0.00    +0.000 C 
ATOM     14  O   UNL     1       1.482   9.866  20.659  0.00  0.00    +0.000 OA
BRANCH  12  15
ATOM     15  C   UNL     1      -0.148  11.765  21.842  0.00  0.00    +0.000 C 
BRANCH  15  16
ATOM     16  C   UNL     1      -0.778  10.923  22.943  0.00  0.00    +0.000 C 
ATOM     17  O   UNL     1      -1.914  11.101  23.359  0.00  0.00    +0.000 OA
BRANCH  16  18
ATOM     18  O   UNL     1       0.049  10.009  23.503  0.00  0.00    +0.000 OA
ATOM     19  H   UNL     1       1.002  10.271  23.532  0.00  0.00    +0.000 HD
ENDBRANCH  16  18
ENDBRANCH  15  16
ENDBRANCH  12  15
ENDBRANCH   3   7
BRANCH   1  21
ATOM     20  C   UNL     1       1.384   4.670  20.560  0.00  0.00    +0.000 C 
ATOM     21  O   UNL     1       2.650   5.336  20.495  0.00  0.00    +0.000 OA
ENDBRANCH   1  21
BRANCH   6  22
ATOM     22  O   UNL     1       5.007   5.458  19.033  0.00  0.00    +0.000 OA
BRANCH  22  23
ATOM     23  C   UNL     1       5.258   4.460  18.077  0.00  0.00    +0.000 C 
ATOM     24  O   UNL     1       6.266   4.372  17.387  0.00  0.00    +0.000 OA
BRANCH  23  25
ATOM     25  C   UNL     1       4.183   3.487  18.094  0.00  0.00    +0.000 A 
ATOM     26  C   UNL     1       3.122   3.278  17.231  0.00  0.00    +0.000 A 
ATOM     27  C   UNL     1       2.410   2.153  17.717  0.00  0.00    +0.000 A 
ATOM     28  C   UNL     1       3.086   1.733  18.838  0.00  0.00    +0.000 A 
ATOM     29  O   UNL     1       4.158   2.531  19.076  0.00  0.00    +0.000 OA
ENDBRANCH  23  25
ENDBRANCH  22  23
ENDBRANCH   6  22
TORSDOF 8
ENDMDL
MODEL 8
REMARK VINA RESULT:      -7.1      3.938      5.268
REMARK  Name = 
REMARK  9 active torsions:
REMARK  status: ('A' for Active; 'I' for Inactive)
REMARK    1  A    between atoms: C_1  and  O_2
REMARK    2  A    between atoms: O_2  and  C_3
REMARK    3  A    between atoms: C_5  and  C_6
REMARK    4  A    between atoms: N_11  and  C_12
REMARK    5  A    between atoms: C_12  and  C_13
REMARK    6  A    between atoms: C_13  and  O_15
REMARK    7  A    between atoms: C_20  and  O_21
REMARK    8  A    between atoms: O_21  and  C_22
REMARK    9  A    between atoms: C_22  and  C_24
REMARK                            x       y       z     vdW  Elec       q    Type
REMARK                         _______ _______ _______ _____ _____    ______ ____
ROOT
ATOM      1  C   UNL     1       6.241   5.504  16.951  0.00  0.00    +0.000 A 
ATOM      2  C   UNL     1       5.342   5.885  17.953  0.00  0.00    +0.000 A 
ATOM      3  C   UNL     1       4.129   5.208  18.129  0.00  0.00    +0.000 A 
ATOM      4  C   UNL     1       3.775   4.171  17.272  0.00  0.00    +0.000 A 
ATOM      5  C   UNL     1       4.667   3.766  16.284  0.00  0.00    +0.000 A 
ATOM      6  C   UNL     1       5.920   4.385  16.164  0.00  0.00    +0.000 A 
ENDROOT
BRANCH   3   7
ATOM      7  C   UNL     1       3.265   5.560  19.249  0.00  0.00    +0.000 C 
ATOM      8  C   UNL     1       2.569   6.695  19.376  0.00  0.00    +0.000 C 
ATOM      9  S   UNL     1       1.666   7.064  20.794  0.00  0.00    +0.000 S 
ATOM     10  C   UNL     1       1.294   8.694  20.248  0.00  0.00    +0.000 C 
ATOM     11  S   UNL     1       0.491   9.782  21.221  0.00  0.00    +0.000 S 
ATOM     12  N   UNL     1       1.749   8.868  18.959  0.00  0.00    +0.000 N 
ATOM     13  C   UNL     1       2.479   7.829  18.417  0.00  0.00    +0.000 C 
ATOM     14  O   UNL     1       3.028   7.893  17.323  0.00  0.00    +0.000 OA
BRANCH  12  15
ATOM     15  C   UNL     1       1.504  10.056  18.137  0.00  0.00    +0.000 C 
BRANCH  15  16
ATOM     16  C   UNL     1       0.024  10.367  17.959  0.00  0.00    +0.000 C 
ATOM     17  O   UNL     1      -0.791   9.549  17.557  0.00  0.00    +0.000 OA
BRANCH  16  18
ATOM     18  O   UNL     1      -0.318  11.657  18.190  0.00  0.00    +0.000 OA
ATOM     19  H   UNL     1       0.248  12.126  18.851  0.00  0.00    +0.000 HD
ENDBRANCH  16  18
ENDBRANCH  15  16
ENDBRANCH  12  15
ENDBRANCH   3   7
BRANCH   1  21
ATOM     20  C   UNL     1       7.653   7.317  17.527  0.00  0.00    +0.000 C 
ATOM     21  O   UNL     1       7.425   6.155  16.721  0.00  0.00    +0.000 OA
ENDBRANCH   1  21
BRANCH   6  22
ATOM     22  O   UNL     1       6.807   3.941  15.164  0.00  0.00    +0.000 OA
BRANCH  22  23
ATOM     23  C   UNL     1       6.778   4.607  13.927  0.00  0.00    +0.000 C 
ATOM     24  O   UNL     1       7.334   5.669  13.678  0.00  0.00    +0.000 OA
BRANCH  23  25
ATOM     25  C   UNL     1       6.070   3.798  12.954  0.00  0.00    +0.000 A 
ATOM     26  C   UNL     1       4.764   3.845  12.501  0.00  0.00    +0.000 A 
ATOM     27  C   UNL     1       4.635   2.840  11.510  0.00  0.00    +0.000 A 
ATOM     28  C   UNL     1       5.871   2.248  11.408  0.00  0.00    +0.000 A 
ATOM     29  O   UNL     1       6.746   2.818  12.276  0.00  0.00    +0.000 OA
ENDBRANCH  23  25
ENDBRANCH  22  23
ENDBRANCH   6  22
TORSDOF 8
ENDMDL
MODEL 9
REMARK VINA RESULT:      -7.0      1.991      3.909
REMARK  Name = 
REMARK  9 active torsions:
REMARK  status: ('A' for Active; 'I' for Inactive)
REMARK    1  A    between atoms: C_1  and  O_2
REMARK    2  A    between atoms: O_2  and  C_3
REMARK    3  A    between atoms: C_5  and  C_6
REMARK    4  A    between atoms: N_11  and  C_12
REMARK    5  A    between atoms: C_12  and  C_13
REMARK    6  A    between atoms: C_13  and  O_15
REMARK    7  A    between atoms: C_20  and  O_21
REMARK    8  A    between atoms: O_21  and  C_22
REMARK    9  A    between atoms: C_22  and  C_24
REMARK                            x       y       z     vdW  Elec       q    Type
REMARK                         _______ _______ _______ _____ _____    ______ ____
ROOT
ATOM      1  C   UNL     1       2.578   6.220  19.608  0.00  0.00    +0.000 A 
ATOM      2  C   UNL     1       1.642   7.210  19.289  0.00  0.00    +0.000 A 
ATOM      3  C   UNL     1       1.902   8.151  18.285  0.00  0.00    +0.000 A 
ATOM      4  C   UNL     1       3.124   8.146  17.620  0.00  0.00    +0.000 A 
ATOM      5  C   UNL     1       4.056   7.156  17.911  0.00  0.00    +0.000 A 
ATOM      6  C   UNL     1       3.762   6.160  18.853  0.00  0.00    +0.000 A 
ENDROOT
BRANCH   3   7
ATOM      7  C   UNL     1       0.864   9.099  17.903  0.00  0.00    +0.000 C 
ATOM      8  C   UNL     1       0.271   9.983  18.715  0.00  0.00    +0.000 C 
ATOM      9  S   UNL     1      -1.028  10.983  18.191  0.00  0.00    +0.000 S 
ATOM     10  C   UNL     1      -1.325  11.608  19.808  0.00  0.00    +0.000 C 
ATOM     11  S   UNL     1      -2.609  12.617  20.135  0.00  0.00    +0.000 S 
ATOM     12  N   UNL     1      -0.355  11.145  20.671  0.00  0.00    +0.000 N 
ATOM     13  C   UNL     1       0.544  10.232  20.156  0.00  0.00    +0.000 C 
ATOM     14  O   UNL     1       1.389   9.664  20.838  0.00  0.00    +0.000 OA
BRANCH  12  15
ATOM     15  C   UNL     1      -0.209  11.561  22.068  0.00  0.00    +0.000 C 
BRANCH  15  16
ATOM     16  C   UNL     1      -1.110  10.788  23.022  0.00  0.00    +0.000 C 
ATOM     17  O   UNL     1      -2.154  11.238  23.472  0.00  0.00    +0.000 OA
BRANCH  16  18
ATOM     18  O   UNL     1      -0.625   9.587  23.416  0.00  0.00    +0.000 OA
ATOM     19  H   UNL     1      -0.005   9.620  24.185  0.00  0.00    +0.000 HD
ENDBRANCH  16  18
ENDBRANCH  15  16
ENDBRANCH  12  15
ENDBRANCH   3   7
BRANCH   1  21
ATOM     20  C   UNL     1       1.255   4.431  20.423  0.00  0.00    +0.000 C 
ATOM     21  O   UNL     1       2.382   5.297  20.603  0.00  0.00    +0.000 OA
ENDBRANCH   1  21
BRANCH   6  22
ATOM     22  O   UNL     1       4.721   5.162  19.114  0.00  0.00    +0.000 OA
BRANCH  22  23
ATOM     23  C   UNL     1       4.672   3.993  18.336  0.00  0.00    +0.000 C 
ATOM     24  O   UNL     1       4.037   2.982  18.610  0.00  0.00    +0.000 OA
BRANCH  23  25
ATOM     25  C   UNL     1       5.410   4.196  17.104  0.00  0.00    +0.000 A 
ATOM     26  C   UNL     1       4.998   4.227  15.785  0.00  0.00    +0.000 A 
ATOM     27  C   UNL     1       6.145   4.509  15.001  0.00  0.00    +0.000 A 
ATOM     28  C   UNL     1       7.185   4.648  15.889  0.00  0.00    +0.000 A 
ATOM     29  O   UNL     1       6.753   4.460  17.162  0.00  0.00    +0.000 OA
ENDBRANCH  23  25
ENDBRANCH  22  23
ENDBRANCH   6  22
TORSDOF 8
ENDMDL
