MODEL 1
REMARK VINA RESULT:      -8.1      0.000      0.000
REMARK  Name = 
REMARK  6 active torsions:
REMARK  status: ('A' for Active; 'I' for Inactive)
REMARK    1  A    between atoms: C_1  and  C_2
REMARK    2  A    between atoms: C_2  and  C_3
REMARK    3  A    between atoms: N_5  and  C_6
REMARK    4  A    between atoms: C_17  and  C_18
REMARK    5  A    between atoms: C_18  and  C_19
REMARK    6  A    between atoms: C_19  and  C_20
REMARK                            x       y       z     vdW  Elec       q    Type
REMARK                         _______ _______ _______ _____ _____    ______ ____
ROOT
ATOM      1  C   UNL     1       1.922   4.120  19.900  0.00  0.00    +0.000 A 
ATOM      2  N   UNL     1       1.339   5.322  19.820  0.00  0.00    +0.000 NA
ATOM      3  N   UNL     1       2.349   6.215  19.580  0.00  0.00    +0.000 N 
ATOM      4  C   UNL     1       3.578   5.557  19.570  0.00  0.00    +0.000 A 
ATOM      5  N   UNL     1       4.810   6.110  19.424  0.00  0.00    +0.000 NA
ATOM      6  C   UNL     1       5.777   5.251  19.280  0.00  0.00    +0.000 A 
ATOM      7  N   UNL     1       5.604   3.885  19.417  0.00  0.00    +0.000 N 
ATOM      8  C   UNL     1       4.387   3.282  19.679  0.00  0.00    +0.000 A 
ATOM      9  O   UNL     1       4.276   2.079  19.846  0.00  0.00    +0.000 OA
ATOM     10  C   UNL     1       3.304   4.219  19.725  0.00  0.00    +0.000 A 
ATOM     11  H   UNL     1       6.373   3.238  19.367  0.00  0.00    +0.000 HD
ENDROOT
BRANCH   3  12
ATOM     12  C   UNL     1       2.059   7.596  19.359  0.00  0.00    +0.000 A 
ATOM     13  C   UNL     1       2.465   8.233  18.160  0.00  0.00    +0.000 A 
ATOM     14 CL   UNL     1       3.227   7.442  16.816  0.00  0.00    +0.000 Cl
ATOM     15  C   UNL     1       2.187   9.591  17.940  0.00  0.00    +0.000 A 
ATOM     16  C   UNL     1       1.481  10.322  18.882  0.00  0.00    +0.000 A 
ATOM     17 CL   UNL     1       1.142  11.984  18.608  0.00  0.00    +0.000 Cl
ATOM     18  C   UNL     1       1.069   9.722  20.060  0.00  0.00    +0.000 A 
ATOM     19  C   UNL     1       1.384   8.380  20.322  0.00  0.00    +0.000 A 
ATOM     20 CL   UNL     1       1.077   7.924  21.969  0.00  0.00    +0.000 Cl
ENDBRANCH   3  12
BRANCH   1  22
ATOM     21  C   UNL     1       0.702   2.200  18.849  0.00  0.00    +0.000 C 
ATOM     22  C   UNL     1       1.107   2.893  20.142  0.00  0.00    +0.000 C 
ENDBRANCH   1  22
BRANCH   6  23
ATOM     23  C   UNL     1       7.179   5.768  18.980  0.00  0.00    +0.000 C 
BRANCH  23  24
ATOM     24  C   UNL     1       7.315   6.489  17.642  0.00  0.00    +0.000 C 
BRANCH  24  25
ATOM     25  C   UNL     1       6.766   5.722  16.464  0.00  0.00    +0.000 A 
ATOM     26  C   UNL     1       7.152   4.392  16.237  0.00  0.00    +0.000 A 
ATOM     27  C   UNL     1       6.583   3.657  15.195  0.00  0.00    +0.000 A 
ATOM     28  C   UNL     1       5.633   4.245  14.363  0.00  0.00    +0.000 A 
ATOM     29  C   UNL     1       5.257   5.573  14.569  0.00  0.00    +0.000 A 
ATOM     30  C   UNL     1       5.822   6.308  15.612  0.00  0.00    +0.000 A 
ENDBRANCH  24  25
ENDBRANCH  23  24
ENDBRANCH   6  23
TORSDOF 5
ENDMDL
MODEL 2
REMARK VINA RESULT:      -8.0      0.669      1.009
REMARK  Name = 
REMARK  6 active torsions:
REMARK  status: ('A' for Active; 'I' for Inactive)
REMARK    1  A    between atoms: C_1  and  C_2
REMARK    2  A    between atoms: C_2  and  C_3
REMARK    3  A    between atoms: N_5  and  C_6
REMARK    4  A    between atoms: C_17  and  C_18
REMARK    5  A    between atoms: C_18  and  C_19
REMARK    6  A    between atoms: C_19  and  C_20
REMARK                            x       y       z     vdW  Elec       q    Type
REMARK                         _______ _______ _______ _____ _____    ______ ____
ROOT
ATOM      1  C   UNL     1       2.014   4.113  20.076  0.00  0.00    +0.000 A 
ATOM      2  N   UNL     1       1.424   5.313  20.011  0.00  0.00    +0.000 NA
ATOM      3  N   UNL     1       2.398   6.190  19.614  0.00  0.00    +0.000 N 
ATOM      4  C   UNL     1       3.618   5.529  19.491  0.00  0.00    +0.000 A 
ATOM      5  N   UNL     1       4.824   6.070  19.179  0.00  0.00    +0.000 NA
ATOM      6  C   UNL     1       5.769   5.201  18.961  0.00  0.00    +0.000 A 
ATOM      7  N   UNL     1       5.616   3.844  19.179  0.00  0.00    +0.000 N 
ATOM      8  C   UNL     1       4.439   3.258  19.607  0.00  0.00    +0.000 A 
ATOM      9  O   UNL     1       4.349   2.064  19.840  0.00  0.00    +0.000 OA
ATOM     10  C   UNL     1       3.367   4.200  19.737  0.00  0.00    +0.000 A 
ATOM     11  H   UNL     1       6.375   3.193  19.069  0.00  0.00    +0.000 HD
ENDROOT
BRANCH   3  12
ATOM     12  C   UNL     1       2.082   7.562  19.367  0.00  0.00    +0.000 A 
ATOM     13  C   UNL     1       2.477   8.183  18.157  0.00  0.00    +0.000 A 
ATOM     14 CL   UNL     1       3.257   7.381  16.829  0.00  0.00    +0.000 Cl
ATOM     15  C   UNL     1       2.174   9.531  17.910  0.00  0.00    +0.000 A 
ATOM     16  C   UNL     1       1.453  10.266  18.837  0.00  0.00    +0.000 A 
ATOM     17 CL   UNL     1       1.083  11.916  18.531  0.00  0.00    +0.000 Cl
ATOM     18  C   UNL     1       1.051   9.681  20.026  0.00  0.00    +0.000 A 
ATOM     19  C   UNL     1       1.390   8.350  20.314  0.00  0.00    +0.000 A 
ATOM     20 CL   UNL     1       1.090   7.920  21.969  0.00  0.00    +0.000 Cl
ENDBRANCH   3  12
BRANCH   1  22
ATOM     21  C   UNL     1       1.476   2.497  21.913  0.00  0.00    +0.000 C 
ATOM     22  C   UNL     1       1.236   2.902  20.466  0.00  0.00    +0.000 C 
ENDBRANCH   1  22
BRANCH   6  23
ATOM     23  C   UNL     1       7.126   5.700  18.477  0.00  0.00    +0.000 C 
BRANCH  23  24
ATOM     24  C   UNL     1       7.095   6.411  17.127  0.00  0.00    +0.000 C 
BRANCH  24  25
ATOM     25  C   UNL     1       6.707   5.527  15.969  0.00  0.00    +0.000 A 
ATOM     26  C   UNL     1       5.390   5.061  15.838  0.00  0.00    +0.000 A 
ATOM     27  C   UNL     1       5.011   4.309  14.724  0.00  0.00    +0.000 A 
ATOM     28  C   UNL     1       5.946   4.005  13.736  0.00  0.00    +0.000 A 
ATOM     29  C   UNL     1       7.263   4.447  13.867  0.00  0.00    +0.000 A 
ATOM     30  C   UNL     1       7.642   5.202  14.978  0.00  0.00    +0.000 A 
ENDBRANCH  24  25
ENDBRANCH  23  24
ENDBRANCH   6  23
TORSDOF 5
ENDMDL
MODEL 3
REMARK VINA RESULT:      -7.9      0.705      1.993
REMARK  Name = 
REMARK  6 active torsions:
REMARK  status: ('A' for Active; 'I' for Inactive)
REMARK    1  A    between atoms: C_1  and  C_2
REMARK    2  A    between atoms: C_2  and  C_3
REMARK    3  A    between atoms: N_5  and  C_6
REMARK    4  A    between atoms: C_17  and  C_18
REMARK    5  A    between atoms: C_18  and  C_19
REMARK    6  A    between atoms: C_19  and  C_20
REMARK                            x       y       z     vdW  Elec       q    Type
REMARK                         _______ _______ _______ _____ _____    ______ ____
ROOT
ATOM      1  C   UNL     1       2.033   4.104  20.097  0.00  0.00    +0.000 A 
ATOM      2  N   UNL     1       1.456   5.310  20.019  0.00  0.00    +0.000 NA
ATOM      3  N   UNL     1       2.438   6.170  19.607  0.00  0.00    +0.000 N 
ATOM      4  C   UNL     1       3.650   5.493  19.486  0.00  0.00    +0.000 A 
ATOM      5  N   UNL     1       4.860   6.016  19.160  0.00  0.00    +0.000 NA
ATOM      6  C   UNL     1       5.794   5.134  18.950  0.00  0.00    +0.000 A 
ATOM      7  N   UNL     1       5.626   3.781  19.186  0.00  0.00    +0.000 N 
ATOM      8  C   UNL     1       4.445   3.214  19.627  0.00  0.00    +0.000 A 
ATOM      9  O   UNL     1       4.343   2.024  19.875  0.00  0.00    +0.000 OA
ATOM     10  C   UNL     1       3.385   4.170  19.750  0.00  0.00    +0.000 A 
ATOM     11  H   UNL     1       6.377   3.120  19.079  0.00  0.00    +0.000 HD
ENDROOT
BRANCH   3  12
ATOM     12  C   UNL     1       2.137   7.542  19.343  0.00  0.00    +0.000 A 
ATOM     13  C   UNL     1       1.378   8.301  20.267  0.00  0.00    +0.000 A 
ATOM     14 CL   UNL     1       0.833   7.739  21.817  0.00  0.00    +0.000 Cl
ATOM     15  C   UNL     1       1.075   9.648  20.011  0.00  0.00    +0.000 A 
ATOM     16  C   UNL     1       1.544  10.263  18.862  0.00  0.00    +0.000 A 
ATOM     17 CL   UNL     1       1.172  11.912  18.552  0.00  0.00    +0.000 Cl
ATOM     18  C   UNL     1       2.292   9.544  17.945  0.00  0.00    +0.000 A 
ATOM     19  C   UNL     1       2.560   8.183  18.157  0.00  0.00    +0.000 A 
ATOM     20 CL   UNL     1       3.210   7.396  16.753  0.00  0.00    +0.000 Cl
ENDBRANCH   3  12
BRANCH   1  22
ATOM     21  C   UNL     1       1.511   2.497  21.947  0.00  0.00    +0.000 C 
ATOM     22  C   UNL     1       1.242   2.906  20.506  0.00  0.00    +0.000 C 
ENDBRANCH   1  22
BRANCH   6  23
ATOM     23  C   UNL     1       7.154   5.610  18.452  0.00  0.00    +0.000 C 
BRANCH  23  24
ATOM     24  C   UNL     1       7.118   6.348  17.117  0.00  0.00    +0.000 C 
BRANCH  24  25
ATOM     25  C   UNL     1       6.727   5.486  15.942  0.00  0.00    +0.000 A 
ATOM     26  C   UNL     1       5.447   4.917  15.870  0.00  0.00    +0.000 A 
ATOM     27  C   UNL     1       5.058   4.186  14.745  0.00  0.00    +0.000 A 
ATOM     28  C   UNL     1       5.948   4.006  13.688  0.00  0.00    +0.000 A 
ATOM     29  C   UNL     1       7.230   4.551  13.759  0.00  0.00    +0.000 A 
ATOM     30  C   UNL     1       7.618   5.285  14.880  0.00  0.00    +0.000 A 
ENDBRANCH  24  25
ENDBRANCH  23  24
ENDBRANCH   6  23
TORSDOF 5
ENDMDL
MODEL 4
REMARK VINA RESULT:      -7.4      3.217      4.756
REMARK  Name = 
REMARK  6 active torsions:
REMARK  status: ('A' for Active; 'I' for Inactive)
REMARK    1  A    between atoms: C_1  and  C_2
REMARK    2  A    between atoms: C_2  and  C_3
REMARK    3  A    between atoms: N_5  and  C_6
REMARK    4  A    between atoms: C_17  and  C_18
REMARK    5  A    between atoms: C_18  and  C_19
REMARK    6  A    between atoms: C_19  and  C_20
REMARK                            x       y       z     vdW  Elec       q    Type
REMARK                         _______ _______ _______ _____ _____    ______ ____
ROOT
ATOM      1  C   UNL     1       3.965   4.101  17.413  0.00  0.00    +0.000 A 
ATOM      2  N   UNL     1       3.000   4.645  18.164  0.00  0.00    +0.000 NA
ATOM      3  N   UNL     1       3.436   5.903  18.484  0.00  0.00    +0.000 N 
ATOM      4  C   UNL     1       4.714   6.112  17.971  0.00  0.00    +0.000 A 
ATOM      5  N   UNL     1       5.500   7.209  18.130  0.00  0.00    +0.000 NA
ATOM      6  C   UNL     1       6.579   7.215  17.402  0.00  0.00    +0.000 A 
ATOM      7  N   UNL     1       6.986   6.133  16.642  0.00  0.00    +0.000 N 
ATOM      8  C   UNL     1       6.276   4.951  16.538  0.00  0.00    +0.000 A 
ATOM      9  O   UNL     1       6.687   3.995  15.900  0.00  0.00    +0.000 OA
ATOM     10  C   UNL     1       5.033   4.987  17.249  0.00  0.00    +0.000 A 
ATOM     11  H   UNL     1       7.855   6.129  16.135  0.00  0.00    +0.000 HD
ENDROOT
BRANCH   3  12
ATOM     12  C   UNL     1       2.599   6.795  19.222  0.00  0.00    +0.000 A 
ATOM     13  C   UNL     1       2.026   6.391  20.453  0.00  0.00    +0.000 A 
ATOM     14 CL   UNL     1       2.332   4.879  21.251  0.00  0.00    +0.000 Cl
ATOM     15  C   UNL     1       1.199   7.261  21.180  0.00  0.00    +0.000 A 
ATOM     16  C   UNL     1       0.958   8.545  20.718  0.00  0.00    +0.000 A 
ATOM     17 CL   UNL     1      -0.054   9.609  21.611  0.00  0.00    +0.000 Cl
ATOM     18  C   UNL     1       1.510   8.967  19.520  0.00  0.00    +0.000 A 
ATOM     19  C   UNL     1       2.296   8.093  18.753  0.00  0.00    +0.000 A 
ATOM     20 CL   UNL     1       2.607   8.693  17.154  0.00  0.00    +0.000 Cl
ENDBRANCH   3  12
BRANCH   1  22
ATOM     21  C   UNL     1       3.412   1.713  17.932  0.00  0.00    +0.000 C 
ATOM     22  C   UNL     1       3.818   2.721  16.866  0.00  0.00    +0.000 C 
ENDBRANCH   1  22
BRANCH   6  23
ATOM     23  C   UNL     1       7.462   8.457  17.408  0.00  0.00    +0.000 C 
BRANCH  23  24
ATOM     24  C   UNL     1       8.450   8.526  18.569  0.00  0.00    +0.000 C 
BRANCH  24  25
ATOM     25  C   UNL     1       9.006   9.905  18.829  0.00  0.00    +0.000 A 
ATOM     26  C   UNL     1       9.307  10.316  20.136  0.00  0.00    +0.000 A 
ATOM     27  C   UNL     1       9.895  11.561  20.370  0.00  0.00    +0.000 A 
ATOM     28  C   UNL     1      10.177  12.411  19.303  0.00  0.00    +0.000 A 
ATOM     29  C   UNL     1       9.863  12.019  18.001  0.00  0.00    +0.000 A 
ATOM     30  C   UNL     1       9.279  10.774  17.766  0.00  0.00    +0.000 A 
ENDBRANCH  24  25
ENDBRANCH  23  24
ENDBRANCH   6  23
TORSDOF 5
ENDMDL
MODEL 5
REMARK VINA RESULT:      -7.4      3.672      6.324
REMARK  Name = 
REMARK  6 active torsions:
REMARK  status: ('A' for Active; 'I' for Inactive)
REMARK    1  A    between atoms: C_1  and  C_2
REMARK    2  A    between atoms: C_2  and  C_3
REMARK    3  A    between atoms: N_5  and  C_6
REMARK    4  A    between atoms: C_17  and  C_18
REMARK    5  A    between atoms: C_18  and  C_19
REMARK    6  A    between atoms: C_19  and  C_20
REMARK                            x       y       z     vdW  Elec       q    Type
REMARK                         _______ _______ _______ _____ _____    ______ ____
ROOT
ATOM      1  C   UNL     1       5.753   3.934  14.843  0.00  0.00    +0.000 A 
ATOM      2  N   UNL     1       4.776   3.491  15.645  0.00  0.00    +0.000 NA
ATOM      3  N   UNL     1       4.892   4.205  16.807  0.00  0.00    +0.000 N 
ATOM      4  C   UNL     1       5.992   5.058  16.740  0.00  0.00    +0.000 A 
ATOM      5  N   UNL     1       6.465   5.877  17.714  0.00  0.00    +0.000 NA
ATOM      6  C   UNL     1       7.403   6.693  17.331  0.00  0.00    +0.000 A 
ATOM      7  N   UNL     1       7.991   6.638  16.079  0.00  0.00    +0.000 N 
ATOM      8  C   UNL     1       7.620   5.745  15.090  0.00  0.00    +0.000 A 
ATOM      9  O   UNL     1       8.193   5.686  14.015  0.00  0.00    +0.000 OA
ATOM     10  C   UNL     1       6.512   4.923  15.474  0.00  0.00    +0.000 A 
ATOM     11  H   UNL     1       8.759   7.233  15.820  0.00  0.00    +0.000 HD
ENDROOT
BRANCH   3  12
ATOM     12  C   UNL     1       3.942   4.034  17.861  0.00  0.00    +0.000 A 
ATOM     13  C   UNL     1       3.625   2.739  18.339  0.00  0.00    +0.000 A 
ATOM     14 CL   UNL     1       4.385   1.267  17.820  0.00  0.00    +0.000 Cl
ATOM     15  C   UNL     1       2.690   2.564  19.371  0.00  0.00    +0.000 A 
ATOM     16  C   UNL     1       2.086   3.663  19.960  0.00  0.00    +0.000 A 
ATOM     17 CL   UNL     1       0.942   3.446  21.224  0.00  0.00    +0.000 Cl
ATOM     18  C   UNL     1       2.383   4.940  19.515  0.00  0.00    +0.000 A 
ATOM     19  C   UNL     1       3.275   5.132  18.449  0.00  0.00    +0.000 A 
ATOM     20 CL   UNL     1       3.251   6.755  17.832  0.00  0.00    +0.000 Cl
ENDBRANCH   3  12
BRANCH   1  22
ATOM     21  C   UNL     1       4.801   3.813  12.528  0.00  0.00    +0.000 C 
ATOM     22  C   UNL     1       5.918   3.381  13.467  0.00  0.00    +0.000 C 
ENDBRANCH   1  22
BRANCH   6  23
ATOM     23  C   UNL     1       7.910   7.742  18.313  0.00  0.00    +0.000 C 
BRANCH  23  24
ATOM     24  C   UNL     1       8.019   9.151  17.737  0.00  0.00    +0.000 C 
BRANCH  24  25
ATOM     25  C   UNL     1       8.990  10.046  18.467  0.00  0.00    +0.000 A 
ATOM     26  C   UNL     1       9.868  10.876  17.754  0.00  0.00    +0.000 A 
ATOM     27  C   UNL     1      10.711  11.763  18.427  0.00  0.00    +0.000 A 
ATOM     28  C   UNL     1      10.692  11.821  19.819  0.00  0.00    +0.000 A 
ATOM     29  C   UNL     1       9.837  10.986  20.538  0.00  0.00    +0.000 A 
ATOM     30  C   UNL     1       8.992  10.102  19.866  0.00  0.00    +0.000 A 
ENDBRANCH  24  25
ENDBRANCH  23  24
ENDBRANCH   6  23
TORSDOF 5
ENDMDL
MODEL 6
REMARK VINA RESULT:      -7.4      3.683      6.277
REMARK  Name = 
REMARK  6 active torsions:
REMARK  status: ('A' for Active; 'I' for Inactive)
REMARK    1  A    between atoms: C_1  and  C_2
REMARK    2  A    between atoms: C_2  and  C_3
REMARK    3  A    between atoms: N_5  and  C_6
REMARK    4  A    between atoms: C_17  and  C_18
REMARK    5  A    between atoms: C_18  and  C_19
REMARK    6  A    between atoms: C_19  and  C_20
REMARK                            x       y       z     vdW  Elec       q    Type
REMARK                         _______ _______ _______ _____ _____    ______ ____
ROOT
ATOM      1  C   UNL     1       5.717   4.068  14.556  0.00  0.00    +0.000 A 
ATOM      2  N   UNL     1       4.661   3.694  15.289  0.00  0.00    +0.000 NA
ATOM      3  N   UNL     1       4.761   4.378  16.470  0.00  0.00    +0.000 N 
ATOM      4  C   UNL     1       5.928   5.140  16.486  0.00  0.00    +0.000 A 
ATOM      5  N   UNL     1       6.403   5.904  17.503  0.00  0.00    +0.000 NA
ATOM      6  C   UNL     1       7.425   6.648  17.193  0.00  0.00    +0.000 A 
ATOM      7  N   UNL     1       8.083   6.564  15.978  0.00  0.00    +0.000 N 
ATOM      8  C   UNL     1       7.704   5.719  14.951  0.00  0.00    +0.000 A 
ATOM      9  O   UNL     1       8.335   5.630  13.911  0.00  0.00    +0.000 OA
ATOM     10  C   UNL     1       6.512   4.983  15.252  0.00  0.00    +0.000 A 
ATOM     11  H   UNL     1       8.910   7.099  15.777  0.00  0.00    +0.000 HD
ENDROOT
BRANCH   3  12
ATOM     12  C   UNL     1       3.738   4.268  17.462  0.00  0.00    +0.000 A 
ATOM     13  C   UNL     1       3.108   5.428  17.976  0.00  0.00    +0.000 A 
ATOM     14 CL   UNL     1       3.392   7.049  17.424  0.00  0.00    +0.000 Cl
ATOM     15  C   UNL     1       2.106   5.326  18.953  0.00  0.00    +0.000 A 
ATOM     16  C   UNL     1       1.695   4.083  19.407  0.00  0.00    +0.000 A 
ATOM     17 CL   UNL     1       0.467   3.962  20.603  0.00  0.00    +0.000 Cl
ATOM     18  C   UNL     1       2.292   2.934  18.917  0.00  0.00    +0.000 A 
ATOM     19  C   UNL     1       3.332   3.017  17.978  0.00  0.00    +0.000 A 
ATOM     20 CL   UNL     1       4.158   1.507  17.751  0.00  0.00    +0.000 Cl
ENDBRANCH   3  12
BRANCH   1  22
ATOM     21  C   UNL     1       4.670   3.629  12.322  0.00  0.00    +0.000 C 
ATOM     22  C   UNL     1       5.922   3.524  13.182  0.00  0.00    +0.000 C 
ENDBRANCH   1  22
BRANCH   6  23
ATOM     23  C   UNL     1       7.953   7.637  18.225  0.00  0.00    +0.000 C 
BRANCH  23  24
ATOM     24  C   UNL     1       7.884   9.100  17.795  0.00  0.00    +0.000 C 
BRANCH  24  25
ATOM     25  C   UNL     1       8.921   9.985  18.439  0.00  0.00    +0.000 A 
ATOM     26  C   UNL     1       9.816  10.725  17.650  0.00  0.00    +0.000 A 
ATOM     27  C   UNL     1      10.723  11.606  18.242  0.00  0.00    +0.000 A 
ATOM     28  C   UNL     1      10.754  11.747  19.628  0.00  0.00    +0.000 A 
ATOM     29  C   UNL     1       9.883  11.002  20.422  0.00  0.00    +0.000 A 
ATOM     30  C   UNL     1       8.973  10.124  19.831  0.00  0.00    +0.000 A 
ENDBRANCH  24  25
ENDBRANCH  23  24
ENDBRANCH   6  23
TORSDOF 5
ENDMDL
MODEL 7
REMARK VINA RESULT:      -7.3      2.840      6.870
REMARK  Name = 
REMARK  6 active torsions:
REMARK  status: ('A' for Active; 'I' for Inactive)
REMARK    1  A    between atoms: C_1  and  C_2
REMARK    2  A    between atoms: C_2  and  C_3
REMARK    3  A    between atoms: N_5  and  C_6
REMARK    4  A    between atoms: C_17  and  C_18
REMARK    5  A    between atoms: C_18  and  C_19
REMARK    6  A    between atoms: C_19  and  C_20
REMARK                            x       y       z     vdW  Elec       q    Type
REMARK                         _______ _______ _______ _____ _____    ______ ____
ROOT
ATOM      1  C   UNL     1       2.746   5.008  20.315  0.00  0.00    +0.000 A 
ATOM      2  N   UNL     1       3.510   4.464  19.359  0.00  0.00    +0.000 NA
ATOM      3  N   UNL     1       3.599   5.406  18.369  0.00  0.00    +0.000 N 
ATOM      4  C   UNL     1       2.830   6.521  18.697  0.00  0.00    +0.000 A 
ATOM      5  N   UNL     1       2.619   7.631  17.943  0.00  0.00    +0.000 NA
ATOM      6  C   UNL     1       2.000   8.596  18.558  0.00  0.00    +0.000 A 
ATOM      7  N   UNL     1       1.456   8.463  19.823  0.00  0.00    +0.000 N 
ATOM      8  C   UNL     1       1.547   7.314  20.586  0.00  0.00    +0.000 A 
ATOM      9  O   UNL     1       1.013   7.210  21.678  0.00  0.00    +0.000 OA
ATOM     10  C   UNL     1       2.326   6.291  19.955  0.00  0.00    +0.000 A 
ATOM     11  H   UNL     1       0.925   9.197  20.259  0.00  0.00    +0.000 HD
ENDROOT
BRANCH   3  12
ATOM     12  C   UNL     1       4.418   5.176  17.221  0.00  0.00    +0.000 A 
ATOM     13  C   UNL     1       4.222   4.027  16.417  0.00  0.00    +0.000 A 
ATOM     14 CL   UNL     1       2.957   2.858  16.634  0.00  0.00    +0.000 Cl
ATOM     15  C   UNL     1       5.026   3.793  15.291  0.00  0.00    +0.000 A 
ATOM     16  C   UNL     1       6.006   4.705  14.930  0.00  0.00    +0.000 A 
ATOM     17 CL   UNL     1       6.988   4.417  13.550  0.00  0.00    +0.000 Cl
ATOM     18  C   UNL     1       6.214   5.839  15.697  0.00  0.00    +0.000 A 
ATOM     19  C   UNL     1       5.456   6.063  16.856  0.00  0.00    +0.000 A 
ATOM     20 CL   UNL     1       6.092   7.343  17.841  0.00  0.00    +0.000 Cl
ENDBRANCH   3  12
BRANCH   1  22
ATOM     21  C   UNL     1       1.588   3.025  21.319  0.00  0.00    +0.000 C 
ATOM     22  C   UNL     1       2.446   4.256  21.570  0.00  0.00    +0.000 C 
ENDBRANCH   1  22
BRANCH   6  23
ATOM     23  C   UNL     1       1.829   9.931  17.842  0.00  0.00    +0.000 C 
BRANCH  23  24
ATOM     24  C   UNL     1       1.070  10.987  18.642  0.00  0.00    +0.000 C 
BRANCH  24  25
ATOM     25  C   UNL     1      -0.420  10.989  18.408  0.00  0.00    +0.000 A 
ATOM     26  C   UNL     1      -1.012  10.028  17.574  0.00  0.00    +0.000 A 
ATOM     27  C   UNL     1      -2.399   9.980  17.420  0.00  0.00    +0.000 A 
ATOM     28  C   UNL     1      -3.207  10.898  18.087  0.00  0.00    +0.000 A 
ATOM     29  C   UNL     1      -2.627  11.870  18.902  0.00  0.00    +0.000 A 
ATOM     30  C   UNL     1      -1.241  11.917  19.060  0.00  0.00    +0.000 A 
ENDBRANCH  24  25
ENDBRANCH  23  24
ENDBRANCH   6  23
TORSDOF 5
ENDMDL
MODEL 8
REMARK VINA RESULT:      -7.3      0.986      1.342
REMARK  Name = 
REMARK  6 active torsions:
REMARK  status: ('A' for Active; 'I' for Inactive)
REMARK    1  A    between atoms: C_1  and  C_2
REMARK    2  A    between atoms: C_2  and  C_3
REMARK    3  A    between atoms: N_5  and  C_6
REMARK    4  A    between atoms: C_17  and  C_18
REMARK    5  A    between atoms: C_18  and  C_19
REMARK    6  A    between atoms: C_19  and  C_20
REMARK                            x       y       z     vdW  Elec       q    Type
REMARK                         _______ _______ _______ _____ _____    ______ ____
ROOT
ATOM      1  C   UNL     1       2.468   4.479  20.562  0.00  0.00    +0.000 A 
ATOM      2  N   UNL     1       1.809   5.644  20.529  0.00  0.00    +0.000 NA
ATOM      3  N   UNL     1       2.555   6.476  19.737  0.00  0.00    +0.000 N 
ATOM      4  C   UNL     1       3.720   5.829  19.326  0.00  0.00    +0.000 A 
ATOM      5  N   UNL     1       4.734   6.345  18.583  0.00  0.00    +0.000 NA
ATOM      6  C   UNL     1       5.621   5.475  18.197  0.00  0.00    +0.000 A 
ATOM      7  N   UNL     1       5.630   4.160  18.627  0.00  0.00    +0.000 N 
ATOM      8  C   UNL     1       4.682   3.617  19.474  0.00  0.00    +0.000 A 
ATOM      9  O   UNL     1       4.747   2.467  19.877  0.00  0.00    +0.000 OA
ATOM     10  C   UNL     1       3.643   4.545  19.808  0.00  0.00    +0.000 A 
ATOM     11  H   UNL     1       6.360   3.516  18.370  0.00  0.00    +0.000 HD
ENDROOT
BRANCH   3  12
ATOM     12  C   UNL     1       2.090   7.790  19.424  0.00  0.00    +0.000 A 
ATOM     13  C   UNL     1       2.337   8.355  18.149  0.00  0.00    +0.000 A 
ATOM     14 CL   UNL     1       3.097   7.534  16.821  0.00  0.00    +0.000 Cl
ATOM     15  C   UNL     1       1.887   9.647  17.837  0.00  0.00    +0.000 A 
ATOM     16  C   UNL     1       1.164  10.378  18.766  0.00  0.00    +0.000 A 
ATOM     17 CL   UNL     1       0.613  11.959  18.380  0.00  0.00    +0.000 Cl
ATOM     18  C   UNL     1       0.904   9.847  20.018  0.00  0.00    +0.000 A 
ATOM     19  C   UNL     1       1.392   8.578  20.366  0.00  0.00    +0.000 A 
ATOM     20 CL   UNL     1       1.251   8.244  22.064  0.00  0.00    +0.000 Cl
ENDBRANCH   3  12
BRANCH   1  22
ATOM     21  C   UNL     1       1.101   2.382  20.462  0.00  0.00    +0.000 C 
ATOM     22  C   UNL     1       1.927   3.320  21.330  0.00  0.00    +0.000 C 
ENDBRANCH   1  22
BRANCH   6  23
ATOM     23  C   UNL     1       6.728   5.927  17.252  0.00  0.00    +0.000 C 
BRANCH  23  24
ATOM     24  C   UNL     1       7.452   4.791  16.535  0.00  0.00    +0.000 C 
BRANCH  24  25
ATOM     25  C   UNL     1       7.024   4.589  15.102  0.00  0.00    +0.000 A 
ATOM     26  C   UNL     1       7.791   5.110  14.049  0.00  0.00    +0.000 A 
ATOM     27  C   UNL     1       7.439   4.855  12.722  0.00  0.00    +0.000 A 
ATOM     28  C   UNL     1       6.312   4.088  12.434  0.00  0.00    +0.000 A 
ATOM     29  C   UNL     1       5.532   3.583  13.474  0.00  0.00    +0.000 A 
ATOM     30  C   UNL     1       5.885   3.833  14.801  0.00  0.00    +0.000 A 
ENDBRANCH  24  25
ENDBRANCH  23  24
ENDBRANCH   6  23
TORSDOF 5
ENDMDL
MODEL 9
REMARK VINA RESULT:      -7.3      5.408      9.724
REMARK  Name = 
REMARK  6 active torsions:
REMARK  status: ('A' for Active; 'I' for Inactive)
REMARK    1  A    between atoms: C_1  and  C_2
REMARK    2  A    between atoms: C_2  and  C_3
REMARK    3  A    between atoms: N_5  and  C_6
REMARK    4  A    between atoms: C_17  and  C_18
REMARK    5  A    between atoms: C_18  and  C_19
REMARK    6  A    between atoms: C_19  and  C_20
REMARK                            x       y       z     vdW  Elec       q    Type
REMARK                         _______ _______ _______ _____ _____    ______ ____
ROOT
ATOM      1  C   UNL     1       1.365  12.567  20.011  0.00  0.00    +0.000 A 
ATOM      2  N   UNL     1       1.798  11.383  20.461  0.00  0.00    +0.000 NA
ATOM      3  N   UNL     1       0.998  10.441  19.872  0.00  0.00    +0.000 N 
ATOM      4  C   UNL     1       0.020  11.060  19.095  0.00  0.00    +0.000 A 
ATOM      5  N   UNL     1      -0.990  10.466  18.408  0.00  0.00    +0.000 NA
ATOM      6  C   UNL     1      -1.658  11.263  17.626  0.00  0.00    +0.000 A 
ATOM      7  N   UNL     1      -1.470  12.633  17.601  0.00  0.00    +0.000 N 
ATOM      8  C   UNL     1      -0.529  13.299  18.366  0.00  0.00    +0.000 A 
ATOM      9  O   UNL     1      -0.423  14.514  18.360  0.00  0.00    +0.000 OA
ATOM     10  C   UNL     1       0.281  12.409  19.142  0.00  0.00    +0.000 A 
ATOM     11  H   UNL     1      -2.038  13.243  17.038  0.00  0.00    +0.000 HD
ENDROOT
BRANCH   3  12
ATOM     12  C   UNL     1       1.243   9.049  20.079  0.00  0.00    +0.000 A 
ATOM     13  C   UNL     1       1.949   8.293  19.112  0.00  0.00    +0.000 A 
ATOM     14 CL   UNL     1       2.676   8.937  17.673  0.00  0.00    +0.000 Cl
ATOM     15  C   UNL     1       2.189   6.924  19.307  0.00  0.00    +0.000 A 
ATOM     16  C   UNL     1       1.764   6.298  20.468  0.00  0.00    +0.000 A 
ATOM     17 CL   UNL     1       2.060   4.622  20.704  0.00  0.00    +0.000 Cl
ATOM     18  C   UNL     1       1.075   7.016  21.431  0.00  0.00    +0.000 A 
ATOM     19  C   UNL     1       0.780   8.373  21.230  0.00  0.00    +0.000 A 
ATOM     20 CL   UNL     1      -0.364   8.992  22.380  0.00  0.00    +0.000 Cl
ENDBRANCH   3  12
BRANCH   1  22
ATOM     21  C   UNL     1       3.129  14.266  19.481  0.00  0.00    +0.000 C 
ATOM     22  C   UNL     1       2.028  13.834  20.439  0.00  0.00    +0.000 C 
ENDBRANCH   1  22
BRANCH   6  23
ATOM     23  C   UNL     1      -2.726  10.670  16.715  0.00  0.00    +0.000 C 
BRANCH  23  24
ATOM     24  C   UNL     1      -3.896  10.020  17.448  0.00  0.00    +0.000 C 
BRANCH  24  25
ATOM     25  C   UNL     1      -5.060  10.944  17.702  0.00  0.00    +0.000 A 
ATOM     26  C   UNL     1      -5.231  12.104  16.931  0.00  0.00    +0.000 A 
ATOM     27  C   UNL     1      -6.352  12.917  17.112  0.00  0.00    +0.000 A 
ATOM     28  C   UNL     1      -7.306  12.587  18.072  0.00  0.00    +0.000 A 
ATOM     29  C   UNL     1      -7.134  11.448  18.858  0.00  0.00    +0.000 A 
ATOM     30  C   UNL     1      -6.017  10.631  18.676  0.00  0.00    +0.000 A 
ENDBRANCH  24  25
ENDBRANCH  23  24
ENDBRANCH   6  23
TORSDOF 5
ENDMDL
