MODEL 1
REMARK VINA RESULT:      -7.7      0.000      0.000
REMARK  Name = 
REMARK  10 active torsions:
REMARK  status: ('A' for Active; 'I' for Inactive)
REMARK    1  A    between atoms: C_1  and  C_2
REMARK    2  A    between atoms: C_2  and  C_3
REMARK    3  A    between atoms: C_2  and  C_4
REMARK    4  A    between atoms: C_4  and  N_5
REMARK    5  A    between atoms: C_4  and  C_6
REMARK    6  A    between atoms: C_6  and  O_8
REMARK    7  A    between atoms: O_8  and  C_9
REMARK    8  A    between atoms: C_11  and  N_12
REMARK    9  A    between atoms: C_21  and  C_22
REMARK   10  A    between atoms: C_22  and  O_23
REMARK                            x       y       z     vdW  Elec       q    Type
REMARK                         _______ _______ _______ _____ _____    ______ ____
ROOT
ATOM      1  C   UNL     1       4.944   5.678  19.207  0.00  0.00    +0.000 C 
ATOM      2  C   UNL     1       4.893   5.828  17.713  0.00  0.00    +0.000 C 
ATOM      3  C   UNL     1       5.396   4.460  17.257  0.00  0.00    +0.000 C 
ATOM      4  O   UNL     1       6.366   4.038  18.207  0.00  0.00    +0.000 OA
ATOM      5  C   UNL     1       6.228   4.864  19.356  0.00  0.00    +0.000 C 
ENDROOT
BRANCH   3   6
ATOM      6  N   UNL     1       5.950   4.545  15.881  0.00  0.00    +0.000 N 
ATOM      7  C   UNL     1       5.452   3.762  14.869  0.00  0.00    +0.000 A 
ATOM      8  C   UNL     1       5.992   3.822  13.585  0.00  0.00    +0.000 A 
ATOM      9  C   UNL     1       7.050   4.696  13.336  0.00  0.00    +0.000 A 
ATOM     10  N   UNL     1       7.633   4.777  12.051  0.00  0.00    +0.000 N 
ATOM     11  N   UNL     1       7.521   5.472  14.345  0.00  0.00    +0.000 NA
ATOM     12  C   UNL     1       6.994   5.413  15.597  0.00  0.00    +0.000 A 
ATOM     13  O   UNL     1       7.454   6.137  16.463  0.00  0.00    +0.000 OA
ATOM     14  H   UNL     1       7.290   4.188  11.276  0.00  0.00    +0.000 HD
ATOM     15  H   UNL     1       8.422   5.416  11.877  0.00  0.00    +0.000 HD
ENDBRANCH   3   6
BRANCH   1  16
ATOM     16  O   UNL     1       3.856   4.956  19.674  0.00  0.00    +0.000 OA
BRANCH  16  17
ATOM     17  C   UNL     1       2.577   5.410  19.556  0.00  0.00    +0.000 C 
ATOM     18  O   UNL     1       2.294   6.561  19.863  0.00  0.00    +0.000 OA
BRANCH  17  19
ATOM     19  C   UNL     1       1.489   4.497  19.043  0.00  0.00    +0.000 C 
BRANCH  19  21
ATOM     20  C   UNL     1       0.806   2.043  18.895  0.00  0.00    +0.000 C 
ATOM     21  C   UNL     1       1.658   3.076  19.645  0.00  0.00    +0.000 C 
ATOM     22  C   UNL     1       1.277   3.067  21.135  0.00  0.00    +0.000 C 
ENDBRANCH  19  21
BRANCH  19  23
ATOM     23  N   UNL     1       1.530   4.447  17.577  0.00  0.00    +0.000 NA
ATOM     24  H   UNL     1       1.057   5.286  17.167  0.00  0.00    +0.000 HD
ATOM     25  H   UNL     1       1.038   3.587  17.238  0.00  0.00    +0.000 HD
ENDBRANCH  19  23
ENDBRANCH  17  19
ENDBRANCH  16  17
ENDBRANCH   1  16
BRANCH   5  26
ATOM     26  C   UNL     1       7.460   5.777  19.487  0.00  0.00    +0.000 C 
BRANCH  26  27
ATOM     27  O   UNL     1       8.179   5.463  20.649  0.00  0.00    +0.000 OA
ATOM     28  H   UNL     1       7.717   4.693  21.069  0.00  0.00    +0.000 HD
ENDBRANCH  26  27
ENDBRANCH   5  26
TORSDOF 8
ENDMDL
MODEL 2
REMARK VINA RESULT:      -7.5      2.335      6.806
REMARK  Name = 
REMARK  10 active torsions:
REMARK  status: ('A' for Active; 'I' for Inactive)
REMARK    1  A    between atoms: C_1  and  C_2
REMARK    2  A    between atoms: C_2  and  C_3
REMARK    3  A    between atoms: C_2  and  C_4
REMARK    4  A    between atoms: C_4  and  N_5
REMARK    5  A    between atoms: C_4  and  C_6
REMARK    6  A    between atoms: C_6  and  O_8
REMARK    7  A    between atoms: O_8  and  C_9
REMARK    8  A    between atoms: C_11  and  N_12
REMARK    9  A    between atoms: C_21  and  C_22
REMARK   10  A    between atoms: C_22  and  O_23
REMARK                            x       y       z     vdW  Elec       q    Type
REMARK                         _______ _______ _______ _____ _____    ______ ____
ROOT
ATOM      1  C   UNL     1       6.281   4.258  15.660  0.00  0.00    +0.000 C 
ATOM      2  C   UNL     1       5.536   3.349  16.597  0.00  0.00    +0.000 C 
ATOM      3  C   UNL     1       4.189   4.063  16.700  0.00  0.00    +0.000 C 
ATOM      4  O   UNL     1       4.454   5.458  16.628  0.00  0.00    +0.000 OA
ATOM      5  C   UNL     1       5.782   5.618  16.146  0.00  0.00    +0.000 C 
ENDROOT
BRANCH   3   6
ATOM      6  N   UNL     1       3.497   3.682  17.958  0.00  0.00    +0.000 N 
ATOM      7  C   UNL     1       4.206   3.266  19.057  0.00  0.00    +0.000 A 
ATOM      8  C   UNL     1       3.554   2.881  20.228  0.00  0.00    +0.000 A 
ATOM      9  C   UNL     1       2.161   2.925  20.271  0.00  0.00    +0.000 A 
ATOM     10  N   UNL     1       1.461   2.530  21.435  0.00  0.00    +0.000 N 
ATOM     11  N   UNL     1       1.476   3.351  19.179  0.00  0.00    +0.000 NA
ATOM     12  C   UNL     1       2.112   3.727  18.039  0.00  0.00    +0.000 A 
ATOM     13  O   UNL     1       1.446   4.105  17.090  0.00  0.00    +0.000 OA
ATOM     14  H   UNL     1       1.969   2.198  22.269  0.00  0.00    +0.000 HD
ATOM     15  H   UNL     1       0.432   2.555  21.456  0.00  0.00    +0.000 HD
ENDBRANCH   3   6
BRANCH   1  16
ATOM     16  O   UNL     1       5.897   4.043  14.346  0.00  0.00    +0.000 OA
BRANCH  16  17
ATOM     17  C   UNL     1       6.694   4.374  13.291  0.00  0.00    +0.000 C 
ATOM     18  O   UNL     1       7.525   5.268  13.396  0.00  0.00    +0.000 OA
BRANCH  17  19
ATOM     19  C   UNL     1       6.562   3.642  11.977  0.00  0.00    +0.000 C 
BRANCH  19  21
ATOM     20  C   UNL     1       5.619   1.359  11.338  0.00  0.00    +0.000 C 
ATOM     21  C   UNL     1       5.324   2.707  12.011  0.00  0.00    +0.000 C 
ATOM     22  C   UNL     1       4.121   3.370  11.318  0.00  0.00    +0.000 C 
ENDBRANCH  19  21
BRANCH  19  23
ATOM     23  N   UNL     1       7.784   2.874  11.710  0.00  0.00    +0.000 NA
ATOM     24  H   UNL     1       8.212   2.543  12.606  0.00  0.00    +0.000 HD
ATOM     25  H   UNL     1       8.480   3.478  11.211  0.00  0.00    +0.000 HD
ENDBRANCH  19  23
ENDBRANCH  17  19
ENDBRANCH  16  17
ENDBRANCH   1  16
BRANCH   5  26
ATOM     26  C   UNL     1       6.675   6.177  17.268  0.00  0.00    +0.000 C 
BRANCH  26  27
ATOM     27  O   UNL     1       7.698   6.969  16.729  0.00  0.00    +0.000 OA
ATOM     28  H   UNL     1       7.860   6.637  15.808  0.00  0.00    +0.000 HD
ENDBRANCH  26  27
ENDBRANCH   5  26
TORSDOF 8
ENDMDL
MODEL 3
REMARK VINA RESULT:      -7.4      2.888      6.787
REMARK  Name = 
REMARK  10 active torsions:
REMARK  status: ('A' for Active; 'I' for Inactive)
REMARK    1  A    between atoms: C_1  and  C_2
REMARK    2  A    between atoms: C_2  and  C_3
REMARK    3  A    between atoms: C_2  and  C_4
REMARK    4  A    between atoms: C_4  and  N_5
REMARK    5  A    between atoms: C_4  and  C_6
REMARK    6  A    between atoms: C_6  and  O_8
REMARK    7  A    between atoms: O_8  and  C_9
REMARK    8  A    between atoms: C_11  and  N_12
REMARK    9  A    between atoms: C_21  and  C_22
REMARK   10  A    between atoms: C_22  and  O_23
REMARK                            x       y       z     vdW  Elec       q    Type
REMARK                         _______ _______ _______ _____ _____    ______ ____
ROOT
ATOM      1  C   UNL     1       3.418   4.181  18.089  0.00  0.00    +0.000 C 
ATOM      2  C   UNL     1       2.939   5.599  17.954  0.00  0.00    +0.000 C 
ATOM      3  C   UNL     1       3.173   6.130  19.367  0.00  0.00    +0.000 C 
ATOM      4  O   UNL     1       2.927   5.052  20.260  0.00  0.00    +0.000 OA
ATOM      5  C   UNL     1       2.912   3.855  19.493  0.00  0.00    +0.000 C 
ENDROOT
BRANCH   3   6
ATOM      6  N   UNL     1       2.292   7.298  19.632  0.00  0.00    +0.000 N 
ATOM      7  C   UNL     1       1.572   7.390  20.796  0.00  0.00    +0.000 A 
ATOM      8  C   UNL     1       0.724   8.472  21.031  0.00  0.00    +0.000 A 
ATOM      9  C   UNL     1       0.618   9.470  20.063  0.00  0.00    +0.000 A 
ATOM     10  N   UNL     1      -0.240  10.577  20.258  0.00  0.00    +0.000 N 
ATOM     11  N   UNL     1       1.348   9.370  18.923  0.00  0.00    +0.000 NA
ATOM     12  C   UNL     1       2.175   8.315  18.695  0.00  0.00    +0.000 A 
ATOM     13  O   UNL     1       2.810   8.279  17.655  0.00  0.00    +0.000 OA
ATOM     14  H   UNL     1      -0.806  10.662  21.116  0.00  0.00    +0.000 HD
ATOM     15  H   UNL     1      -0.322  11.305  19.534  0.00  0.00    +0.000 HD
ENDBRANCH   3   6
BRANCH   1  16
ATOM     16  O   UNL     1       4.802   4.115  18.046  0.00  0.00    +0.000 OA
BRANCH  16  17
ATOM     17  C   UNL     1       5.508   4.371  16.910  0.00  0.00    +0.000 C 
ATOM     18  O   UNL     1       5.032   4.115  15.811  0.00  0.00    +0.000 OA
BRANCH  17  19
ATOM     19  C   UNL     1       6.890   4.976  16.990  0.00  0.00    +0.000 C 
BRANCH  19  21
ATOM     20  C   UNL     1       7.477   7.416  17.451  0.00  0.00    +0.000 C 
ATOM     21  C   UNL     1       6.911   6.117  18.042  0.00  0.00    +0.000 C 
ATOM     22  C   UNL     1       7.742   5.710  19.271  0.00  0.00    +0.000 C 
ENDBRANCH  19  21
BRANCH  19  23
ATOM     23  N   UNL     1       7.291   5.479  15.671  0.00  0.00    +0.000 NA
ATOM     24  H   UNL     1       6.720   5.029  14.918  0.00  0.00    +0.000 HD
ATOM     25  H   UNL     1       8.301   5.261  15.501  0.00  0.00    +0.000 HD
ENDBRANCH  19  23
ENDBRANCH  17  19
ENDBRANCH  16  17
ENDBRANCH   1  16
BRANCH   5  26
ATOM     26  C   UNL     1       1.483   3.283  19.456  0.00  0.00    +0.000 C 
BRANCH  26  27
ATOM     27  O   UNL     1       0.709   3.836  20.485  0.00  0.00    +0.000 OA
ATOM     28  H   UNL     1       1.185   4.649  20.794  0.00  0.00    +0.000 HD
ENDBRANCH  26  27
ENDBRANCH   5  26
TORSDOF 8
ENDMDL
MODEL 4
REMARK VINA RESULT:      -7.4      2.872      6.636
REMARK  Name = 
REMARK  10 active torsions:
REMARK  status: ('A' for Active; 'I' for Inactive)
REMARK    1  A    between atoms: C_1  and  C_2
REMARK    2  A    between atoms: C_2  and  C_3
REMARK    3  A    between atoms: C_2  and  C_4
REMARK    4  A    between atoms: C_4  and  N_5
REMARK    5  A    between atoms: C_4  and  C_6
REMARK    6  A    between atoms: C_6  and  O_8
REMARK    7  A    between atoms: O_8  and  C_9
REMARK    8  A    between atoms: C_11  and  N_12
REMARK    9  A    between atoms: C_21  and  C_22
REMARK   10  A    between atoms: C_22  and  O_23
REMARK                            x       y       z     vdW  Elec       q    Type
REMARK                         _______ _______ _______ _____ _____    ______ ____
ROOT
ATOM      1  C   UNL     1       3.667   4.156  17.997  0.00  0.00    +0.000 C 
ATOM      2  C   UNL     1       3.241   5.543  17.604  0.00  0.00    +0.000 C 
ATOM      3  C   UNL     1       3.427   6.297  18.919  0.00  0.00    +0.000 C 
ATOM      4  O   UNL     1       3.105   5.390  19.965  0.00  0.00    +0.000 OA
ATOM      5  C   UNL     1       3.085   4.083  19.409  0.00  0.00    +0.000 C 
ENDROOT
BRANCH   3   6
ATOM      6  N   UNL     1       2.574   7.514  18.941  0.00  0.00    +0.000 N 
ATOM      7  C   UNL     1       2.588   8.405  17.896  0.00  0.00    +0.000 A 
ATOM      8  C   UNL     1       1.809   9.561  17.931  0.00  0.00    +0.000 A 
ATOM      9  C   UNL     1       1.008   9.804  19.046  0.00  0.00    +0.000 A 
ATOM     10  N   UNL     1       0.214  10.971  19.125  0.00  0.00    +0.000 N 
ATOM     11  N   UNL     1       0.997   8.906  20.064  0.00  0.00    +0.000 NA
ATOM     12  C   UNL     1       1.756   7.779  20.030  0.00  0.00    +0.000 A 
ATOM     13  O   UNL     1       1.703   7.005  20.971  0.00  0.00    +0.000 OA
ATOM     14  H   UNL     1       0.217  11.665  18.362  0.00  0.00    +0.000 HD
ATOM     15  H   UNL     1      -0.368  11.149  19.957  0.00  0.00    +0.000 HD
ENDBRANCH   3   6
BRANCH   1  16
ATOM     16  O   UNL     1       5.049   4.050  18.037  0.00  0.00    +0.000 OA
BRANCH  16  17
ATOM     17  C   UNL     1       5.824   4.220  16.930  0.00  0.00    +0.000 C 
ATOM     18  O   UNL     1       5.464   3.777  15.846  0.00  0.00    +0.000 OA
BRANCH  17  19
ATOM     19  C   UNL     1       7.138   4.957  17.025  0.00  0.00    +0.000 C 
BRANCH  19  21
ATOM     20  C   UNL     1       7.499   7.441  17.483  0.00  0.00    +0.000 C 
ATOM     21  C   UNL     1       7.031   6.102  18.069  0.00  0.00    +0.000 C 
ATOM     22  C   UNL     1       7.861   5.775  19.322  0.00  0.00    +0.000 C 
ENDBRANCH  19  21
BRANCH  19  23
ATOM     23  N   UNL     1       7.506   5.490  15.708  0.00  0.00    +0.000 NA
ATOM     24  H   UNL     1       7.362   6.526  15.678  0.00  0.00    +0.000 HD
ATOM     25  H   UNL     1       6.911   5.049  14.968  0.00  0.00    +0.000 HD
ENDBRANCH  19  23
ENDBRANCH  17  19
ENDBRANCH  16  17
ENDBRANCH   1  16
BRANCH   5  26
ATOM     26  C   UNL     1       1.642   3.548  19.394  0.00  0.00    +0.000 C 
BRANCH  26  27
ATOM     27  O   UNL     1       0.900   4.118  20.438  0.00  0.00    +0.000 OA
ATOM     28  H   UNL     1       0.101   4.534  20.024  0.00  0.00    +0.000 HD
ENDBRANCH  26  27
ENDBRANCH   5  26
TORSDOF 8
ENDMDL
MODEL 5
REMARK VINA RESULT:      -7.3      2.153      6.805
REMARK  Name = 
REMARK  10 active torsions:
REMARK  status: ('A' for Active; 'I' for Inactive)
REMARK    1  A    between atoms: C_1  and  C_2
REMARK    2  A    between atoms: C_2  and  C_3
REMARK    3  A    between atoms: C_2  and  C_4
REMARK    4  A    between atoms: C_4  and  N_5
REMARK    5  A    between atoms: C_4  and  C_6
REMARK    6  A    between atoms: C_6  and  O_8
REMARK    7  A    between atoms: O_8  and  C_9
REMARK    8  A    between atoms: C_11  and  N_12
REMARK    9  A    between atoms: C_21  and  C_22
REMARK   10  A    between atoms: C_22  and  O_23
REMARK                            x       y       z     vdW  Elec       q    Type
REMARK                         _______ _______ _______ _____ _____    ______ ____
ROOT
ATOM      1  C   UNL     1       4.811   6.795  17.307  0.00  0.00    +0.000 C 
ATOM      2  C   UNL     1       4.725   5.736  18.371  0.00  0.00    +0.000 C 
ATOM      3  C   UNL     1       3.462   4.989  17.948  0.00  0.00    +0.000 C 
ATOM      4  O   UNL     1       2.576   5.954  17.395  0.00  0.00    +0.000 OA
ATOM      5  C   UNL     1       3.330   7.130  17.136  0.00  0.00    +0.000 C 
ENDROOT
BRANCH   3   6
ATOM      6  N   UNL     1       2.870   4.275  19.110  0.00  0.00    +0.000 N 
ATOM      7  C   UNL     1       2.761   4.887  20.333  0.00  0.00    +0.000 A 
ATOM      8  C   UNL     1       2.232   4.206  21.430  0.00  0.00    +0.000 A 
ATOM      9  C   UNL     1       1.810   2.887  21.267  0.00  0.00    +0.000 A 
ATOM     10  N   UNL     1       1.281   2.159  22.357  0.00  0.00    +0.000 N 
ATOM     11  N   UNL     1       1.914   2.303  20.047  0.00  0.00    +0.000 NA
ATOM     12  C   UNL     1       2.429   2.967  18.978  0.00  0.00    +0.000 A 
ATOM     13  O   UNL     1       2.494   2.393  17.905  0.00  0.00    +0.000 OA
ATOM     14  H   UNL     1       1.202   2.589  23.292  0.00  0.00    +0.000 HD
ATOM     15  H   UNL     1       0.981   1.181  22.233  0.00  0.00    +0.000 HD
ENDBRANCH   3   6
BRANCH   1  16
ATOM     16  O   UNL     1       5.330   6.279  16.130  0.00  0.00    +0.000 OA
BRANCH  16  17
ATOM     17  C   UNL     1       6.612   5.828  16.035  0.00  0.00    +0.000 C 
ATOM     18  O   UNL     1       7.527   6.437  16.578  0.00  0.00    +0.000 OA
BRANCH  17  19
ATOM     19  C   UNL     1       6.924   4.571  15.260  0.00  0.00    +0.000 C 
BRANCH  19  21
ATOM     20  C   UNL     1       6.058   3.544  13.090  0.00  0.00    +0.000 C 
ATOM     21  C   UNL     1       6.652   4.797  13.748  0.00  0.00    +0.000 C 
ATOM     22  C   UNL     1       7.945   5.194  13.015  0.00  0.00    +0.000 C 
ENDBRANCH  19  21
BRANCH  19  23
ATOM     23  N   UNL     1       6.115   3.457  15.770  0.00  0.00    +0.000 NA
ATOM     24  H   UNL     1       6.588   2.544  15.579  0.00  0.00    +0.000 HD
ATOM     25  H   UNL     1       5.180   3.454  15.299  0.00  0.00    +0.000 HD
ENDBRANCH  19  23
ENDBRANCH  17  19
ENDBRANCH  16  17
ENDBRANCH   1  16
BRANCH   5  26
ATOM     26  C   UNL     1       2.893   8.248  18.099  0.00  0.00    +0.000 C 
BRANCH  26  27
ATOM     27  O   UNL     1       2.084   9.178  17.432  0.00  0.00    +0.000 OA
ATOM     28  H   UNL     1       2.419   9.231  16.500  0.00  0.00    +0.000 HD
ENDBRANCH  26  27
ENDBRANCH   5  26
TORSDOF 8
ENDMDL
MODEL 6
REMARK VINA RESULT:      -7.3      2.040      6.365
REMARK  Name = 
REMARK  10 active torsions:
REMARK  status: ('A' for Active; 'I' for Inactive)
REMARK    1  A    between atoms: C_1  and  C_2
REMARK    2  A    between atoms: C_2  and  C_3
REMARK    3  A    between atoms: C_2  and  C_4
REMARK    4  A    between atoms: C_4  and  N_5
REMARK    5  A    between atoms: C_4  and  C_6
REMARK    6  A    between atoms: C_6  and  O_8
REMARK    7  A    between atoms: O_8  and  C_9
REMARK    8  A    between atoms: C_11  and  N_12
REMARK    9  A    between atoms: C_21  and  C_22
REMARK   10  A    between atoms: C_22  and  O_23
REMARK                            x       y       z     vdW  Elec       q    Type
REMARK                         _______ _______ _______ _____ _____    ______ ____
ROOT
ATOM      1  C   UNL     1       7.059   5.079  16.763  0.00  0.00    +0.000 C 
ATOM      2  C   UNL     1       6.022   4.156  17.340  0.00  0.00    +0.000 C 
ATOM      3  C   UNL     1       5.028   5.154  17.932  0.00  0.00    +0.000 C 
ATOM      4  O   UNL     1       5.786   6.260  18.406  0.00  0.00    +0.000 OA
ATOM      5  C   UNL     1       7.085   6.164  17.839  0.00  0.00    +0.000 C 
ENDROOT
BRANCH   3   6
ATOM      6  N   UNL     1       4.229   4.511  19.008  0.00  0.00    +0.000 N 
ATOM      7  C   UNL     1       4.493   3.226  19.412  0.00  0.00    +0.000 A 
ATOM      8  C   UNL     1       3.724   2.614  20.401  0.00  0.00    +0.000 A 
ATOM      9  C   UNL     1       2.677   3.328  20.982  0.00  0.00    +0.000 A 
ATOM     10  N   UNL     1       1.867   2.738  21.979  0.00  0.00    +0.000 N 
ATOM     11  N   UNL     1       2.439   4.602  20.580  0.00  0.00    +0.000 NA
ATOM     12  C   UNL     1       3.189   5.199  19.616  0.00  0.00    +0.000 A 
ATOM     13  O   UNL     1       2.933   6.347  19.297  0.00  0.00    +0.000 OA
ATOM     14  H   UNL     1       2.032   1.769  22.290  0.00  0.00    +0.000 HD
ATOM     15  H   UNL     1       1.088   3.268  22.397  0.00  0.00    +0.000 HD
ENDBRANCH   3   6
BRANCH   1  16
ATOM     16  O   UNL     1       6.638   5.608  15.553  0.00  0.00    +0.000 OA
BRANCH  16  17
ATOM     17  C   UNL     1       6.942   5.025  14.359  0.00  0.00    +0.000 C 
ATOM     18  O   UNL     1       7.849   5.467  13.665  0.00  0.00    +0.000 OA
BRANCH  17  19
ATOM     19  C   UNL     1       6.164   3.825  13.876  0.00  0.00    +0.000 C 
BRANCH  19  21
ATOM     20  C   UNL     1       4.783   3.562  11.747  0.00  0.00    +0.000 C 
ATOM     21  C   UNL     1       6.190   3.762  12.325  0.00  0.00    +0.000 C 
ATOM     22  C   UNL     1       7.108   2.627  11.841  0.00  0.00    +0.000 C 
ENDBRANCH  19  21
BRANCH  19  23
ATOM     23  N   UNL     1       4.783   3.895  14.368  0.00  0.00    +0.000 NA
ATOM     24  H   UNL     1       4.756   3.758  15.405  0.00  0.00    +0.000 HD
ATOM     25  H   UNL     1       4.207   3.146  13.917  0.00  0.00    +0.000 HD
ENDBRANCH  19  23
ENDBRANCH  17  19
ENDBRANCH  16  17
ENDBRANCH   1  16
BRANCH   5  26
ATOM     26  C   UNL     1       8.108   5.837  18.941  0.00  0.00    +0.000 C 
BRANCH  26  27
ATOM     27  O   UNL     1       7.452   5.539  20.143  0.00  0.00    +0.000 OA
ATOM     28  H   UNL     1       8.158   5.392  20.823  0.00  0.00    +0.000 HD
ENDBRANCH  26  27
ENDBRANCH   5  26
TORSDOF 8
ENDMDL
MODEL 7
REMARK VINA RESULT:      -7.2      3.369      5.489
REMARK  Name = 
REMARK  10 active torsions:
REMARK  status: ('A' for Active; 'I' for Inactive)
REMARK    1  A    between atoms: C_1  and  C_2
REMARK    2  A    between atoms: C_2  and  C_3
REMARK    3  A    between atoms: C_2  and  C_4
REMARK    4  A    between atoms: C_4  and  N_5
REMARK    5  A    between atoms: C_4  and  C_6
REMARK    6  A    between atoms: C_6  and  O_8
REMARK    7  A    between atoms: O_8  and  C_9
REMARK    8  A    between atoms: C_11  and  N_12
REMARK    9  A    between atoms: C_21  and  C_22
REMARK   10  A    between atoms: C_22  and  O_23
REMARK                            x       y       z     vdW  Elec       q    Type
REMARK                         _______ _______ _______ _____ _____    ______ ____
ROOT
ATOM      1  C   UNL     1       4.936   4.633  18.886  0.00  0.00    +0.000 C 
ATOM      2  C   UNL     1       4.037   5.642  19.545  0.00  0.00    +0.000 C 
ATOM      3  C   UNL     1       3.096   6.000  18.396  0.00  0.00    +0.000 C 
ATOM      4  O   UNL     1       3.863   5.944  17.200  0.00  0.00    +0.000 OA
ATOM      5  C   UNL     1       5.069   5.254  17.496  0.00  0.00    +0.000 C 
ENDROOT
BRANCH   3   6
ATOM      6  N   UNL     1       2.491   7.339  18.621  0.00  0.00    +0.000 N 
ATOM      7  C   UNL     1       2.558   8.315  17.658  0.00  0.00    +0.000 A 
ATOM      8  C   UNL     1       2.016   9.580  17.882  0.00  0.00    +0.000 A 
ATOM      9  C   UNL     1       1.397   9.844  19.103  0.00  0.00    +0.000 A 
ATOM     10  N   UNL     1       0.846  11.118  19.373  0.00  0.00    +0.000 N 
ATOM     11  N   UNL     1       1.328   8.863  20.038  0.00  0.00    +0.000 NA
ATOM     12  C   UNL     1       1.856   7.629  19.820  0.00  0.00    +0.000 A 
ATOM     13  O   UNL     1       1.761   6.785  20.694  0.00  0.00    +0.000 OA
ATOM     14  H   UNL     1       0.897  11.875  18.674  0.00  0.00    +0.000 HD
ATOM     15  H   UNL     1       0.400  11.310  20.282  0.00  0.00    +0.000 HD
ENDBRANCH   3   6
BRANCH   1  16
ATOM     16  O   UNL     1       4.320   3.394  18.806  0.00  0.00    +0.000 OA
BRANCH  16  17
ATOM     17  C   UNL     1       4.161   2.588  19.893  0.00  0.00    +0.000 C 
ATOM     18  O   UNL     1       5.136   2.113  20.462  0.00  0.00    +0.000 OA
BRANCH  17  19
ATOM     19  C   UNL     1       2.779   2.269  20.410  0.00  0.00    +0.000 C 
BRANCH  19  21
ATOM     20  C   UNL     1       0.768   3.840  20.462  0.00  0.00    +0.000 C 
ATOM     21  C   UNL     1       1.710   3.020  19.570  0.00  0.00    +0.000 C 
ATOM     22  C   UNL     1       0.885   2.030  18.729  0.00  0.00    +0.000 C 
ENDBRANCH  19  21
BRANCH  19  23
ATOM     23  N   UNL     1       2.679   2.641  21.827  0.00  0.00    +0.000 NA
ATOM     24  H   UNL     1       3.425   3.331  22.078  0.00  0.00    +0.000 HD
ATOM     25  H   UNL     1       2.797   1.790  22.425  0.00  0.00    +0.000 HD
ENDBRANCH  19  23
ENDBRANCH  17  19
ENDBRANCH  16  17
ENDBRANCH   1  16
BRANCH   5  26
ATOM     26  C   UNL     1       6.255   6.233  17.430  0.00  0.00    +0.000 C 
BRANCH  26  27
ATOM     27  O   UNL     1       6.135   7.070  16.312  0.00  0.00    +0.000 OA
ATOM     28  H   UNL     1       5.283   7.566  16.418  0.00  0.00    +0.000 HD
ENDBRANCH  26  27
ENDBRANCH   5  26
TORSDOF 8
ENDMDL
MODEL 8
REMARK VINA RESULT:      -7.2      2.162      6.684
REMARK  Name = 
REMARK  10 active torsions:
REMARK  status: ('A' for Active; 'I' for Inactive)
REMARK    1  A    between atoms: C_1  and  C_2
REMARK    2  A    between atoms: C_2  and  C_3
REMARK    3  A    between atoms: C_2  and  C_4
REMARK    4  A    between atoms: C_4  and  N_5
REMARK    5  A    between atoms: C_4  and  C_6
REMARK    6  A    between atoms: C_6  and  O_8
REMARK    7  A    between atoms: O_8  and  C_9
REMARK    8  A    between atoms: C_11  and  N_12
REMARK    9  A    between atoms: C_21  and  C_22
REMARK   10  A    between atoms: C_22  and  O_23
REMARK                            x       y       z     vdW  Elec       q    Type
REMARK                         _______ _______ _______ _____ _____    ______ ____
ROOT
ATOM      1  C   UNL     1       6.121   5.548  17.821  0.00  0.00    +0.000 C 
ATOM      2  C   UNL     1       5.638   4.829  19.049  0.00  0.00    +0.000 C 
ATOM      3  C   UNL     1       4.558   3.924  18.462  0.00  0.00    +0.000 C 
ATOM      4  O   UNL     1       3.950   4.642  17.396  0.00  0.00    +0.000 OA
ATOM      5  C   UNL     1       4.798   5.738  17.079  0.00  0.00    +0.000 C 
ENDROOT
BRANCH   3   6
ATOM      6  N   UNL     1       3.582   3.534  19.513  0.00  0.00    +0.000 N 
ATOM      7  C   UNL     1       2.336   4.107  19.567  0.00  0.00    +0.000 A 
ATOM      8  C   UNL     1       1.432   3.762  20.571  0.00  0.00    +0.000 A 
ATOM      9  C   UNL     1       1.809   2.819  21.526  0.00  0.00    +0.000 A 
ATOM     10  N   UNL     1       0.926   2.452  22.567  0.00  0.00    +0.000 N 
ATOM     11  N   UNL     1       3.041   2.253  21.449  0.00  0.00    +0.000 NA
ATOM     12  C   UNL     1       3.922   2.589  20.470  0.00  0.00    +0.000 A 
ATOM     13  O   UNL     1       5.013   2.045  20.448  0.00  0.00    +0.000 OA
ATOM     14  H   UNL     1      -0.010   2.878  22.641  0.00  0.00    +0.000 HD
ATOM     15  H   UNL     1       1.216   1.762  23.276  0.00  0.00    +0.000 HD
ENDBRANCH   3   6
BRANCH   1  16
ATOM     16  O   UNL     1       6.980   4.751  17.081  0.00  0.00    +0.000 OA
BRANCH  16  17
ATOM     17  C   UNL     1       7.157   4.920  15.741  0.00  0.00    +0.000 C 
ATOM     18  O   UNL     1       7.612   5.969  15.301  0.00  0.00    +0.000 OA
BRANCH  17  19
ATOM     19  C   UNL     1       6.796   3.814  14.778  0.00  0.00    +0.000 C 
BRANCH  19  21
ATOM     20  C   UNL     1       4.998   3.710  12.970  0.00  0.00    +0.000 C 
ATOM     21  C   UNL     1       6.274   4.418  13.446  0.00  0.00    +0.000 C 
ATOM     22  C   UNL     1       7.348   4.327  12.349  0.00  0.00    +0.000 C 
ENDBRANCH  19  21
BRANCH  19  23
ATOM     23  N   UNL     1       5.783   2.939  15.382  0.00  0.00    +0.000 NA
ATOM     24  H   UNL     1       5.371   2.304  14.660  0.00  0.00    +0.000 HD
ATOM     25  H   UNL     1       5.015   3.519  15.794  0.00  0.00    +0.000 HD
ENDBRANCH  19  23
ENDBRANCH  17  19
ENDBRANCH  16  17
ENDBRANCH   1  16
BRANCH   5  26
ATOM     26  C   UNL     1       4.113   7.056  17.482  0.00  0.00    +0.000 C 
BRANCH  26  27
ATOM     27  O   UNL     1       2.765   6.830  17.793  0.00  0.00    +0.000 OA
ATOM     28  H   UNL     1       2.666   6.993  18.766  0.00  0.00    +0.000 HD
ENDBRANCH  26  27
ENDBRANCH   5  26
TORSDOF 8
ENDMDL
MODEL 9
REMARK VINA RESULT:      -7.2      2.257      6.436
REMARK  Name = 
REMARK  10 active torsions:
REMARK  status: ('A' for Active; 'I' for Inactive)
REMARK    1  A    between atoms: C_1  and  C_2
REMARK    2  A    between atoms: C_2  and  C_3
REMARK    3  A    between atoms: C_2  and  C_4
REMARK    4  A    between atoms: C_4  and  N_5
REMARK    5  A    between atoms: C_4  and  C_6
REMARK    6  A    between atoms: C_6  and  O_8
REMARK    7  A    between atoms: O_8  and  C_9
REMARK    8  A    between atoms: C_11  and  N_12
REMARK    9  A    between atoms: C_21  and  C_22
REMARK   10  A    between atoms: C_22  and  O_23
REMARK                            x       y       z     vdW  Elec       q    Type
REMARK                         _______ _______ _______ _____ _____    ______ ____
ROOT
ATOM      1  C   UNL     1       4.684   7.311  17.598  0.00  0.00    +0.000 C 
ATOM      2  C   UNL     1       4.665   6.239  18.651  0.00  0.00    +0.000 C 
ATOM      3  C   UNL     1       3.597   5.296  18.099  0.00  0.00    +0.000 C 
ATOM      4  O   UNL     1       2.625   6.106  17.451  0.00  0.00    +0.000 OA
ATOM      5  C   UNL     1       3.194   7.395  17.268  0.00  0.00    +0.000 C 
ENDROOT
BRANCH   3   6
ATOM      6  N   UNL     1       3.015   4.477  19.195  0.00  0.00    +0.000 N 
ATOM      7  C   UNL     1       1.747   4.719  19.660  0.00  0.00    +0.000 A 
ATOM      8  C   UNL     1       1.213   3.969  20.707  0.00  0.00    +0.000 A 
ATOM      9  C   UNL     1       1.987   2.961  21.280  0.00  0.00    +0.000 A 
ATOM     10  N   UNL     1       1.486   2.187  22.352  0.00  0.00    +0.000 N 
ATOM     11  N   UNL     1       3.234   2.727  20.798  0.00  0.00    +0.000 NA
ATOM     12  C   UNL     1       3.754   3.458  19.777  0.00  0.00    +0.000 A 
ATOM     13  O   UNL     1       4.879   3.200  19.382  0.00  0.00    +0.000 OA
ATOM     14  H   UNL     1       0.542   2.358  22.732  0.00  0.00    +0.000 HD
ATOM     15  H   UNL     1       2.067   1.450  22.778  0.00  0.00    +0.000 HD
ENDBRANCH   3   6
BRANCH   1  16
ATOM     16  O   UNL     1       5.404   6.905  16.484  0.00  0.00    +0.000 OA
BRANCH  16  17
ATOM     17  C   UNL     1       6.697   6.484  16.567  0.00  0.00    +0.000 C 
ATOM     18  O   UNL     1       7.565   7.227  17.009  0.00  0.00    +0.000 OA
BRANCH  17  19
ATOM     19  C   UNL     1       7.077   5.095  16.115  0.00  0.00    +0.000 C 
BRANCH  19  21
ATOM     20  C   UNL     1       5.319   3.270  15.812  0.00  0.00    +0.000 C 
ATOM     21  C   UNL     1       5.972   4.514  15.192  0.00  0.00    +0.000 C 
ATOM     22  C   UNL     1       6.548   4.155  13.812  0.00  0.00    +0.000 C 
ENDBRANCH  19  21
BRANCH  19  23
ATOM     23  N   UNL     1       7.284   4.230  17.283  0.00  0.00    +0.000 NA
ATOM     24  H   UNL     1       7.636   4.789  18.095  0.00  0.00    +0.000 HD
ATOM     25  H   UNL     1       7.991   3.492  17.056  0.00  0.00    +0.000 HD
ENDBRANCH  19  23
ENDBRANCH  17  19
ENDBRANCH  16  17
ENDBRANCH   1  16
BRANCH   5  26
ATOM     26  C   UNL     1       2.476   8.411  18.174  0.00  0.00    +0.000 C 
BRANCH  26  27
ATOM     27  O   UNL     1       1.922   9.445  17.406  0.00  0.00    +0.000 OA
ATOM     28  H   UNL     1       1.810  10.221  18.013  0.00  0.00    +0.000 HD
ENDBRANCH  26  27
ENDBRANCH   5  26
TORSDOF 8
ENDMDL
