MODEL 1
REMARK VINA RESULT:      -7.2      0.000      0.000
REMARK  Name = 
REMARK  7 active torsions:
REMARK  status: ('A' for Active; 'I' for Inactive)
REMARK    1  A    between atoms: C_1  and  C_2
REMARK    2  A    between atoms: C_4  and  C_5
REMARK    3  A    between atoms: N_6  and  C_7
REMARK    4  A    between atoms: N_9  and  C_10
REMARK    5  A    between atoms: C_10  and  C_11
REMARK    6  A    between atoms: N_13  and  C_14
REMARK    7  A    between atoms: C_14  and  C_15
REMARK                            x       y       z     vdW  Elec       q    Type
REMARK                         _______ _______ _______ _____ _____    ______ ____
ROOT
ATOM      1  C   UNL     1       2.914   3.432  20.751  0.00  0.00    +0.000 C 
ENDROOT
BRANCH   1   4
ATOM      2  C   UNL     1       4.827   4.051  18.719  0.00  0.00    +0.000 C 
ATOM      3  C   UNL     1       3.311   3.979  18.407  0.00  0.00    +0.000 C 
ATOM      4  N   UNL     1       3.168   2.876  19.399  0.00  0.00    +0.000 NA
ATOM      5  C   UNL     1       4.619   2.589  19.190  0.00  0.00    +0.000 C 
BRANCH   2  11
ATOM      6  C   UNL     1       6.230   3.888  14.054  0.00  0.00    +0.000 C 
ATOM      7  C   UNL     1       6.269   4.174  15.510  0.00  0.00    +0.000 A 
ATOM      8  C   UNL     1       7.264   4.875  16.220  0.00  0.00    +0.000 A 
ATOM      9  C   UNL     1       6.838   4.890  17.529  0.00  0.00    +0.000 A 
ATOM     10  C   UNL     1       7.468   5.500  18.725  0.00  0.00    +0.000 C 
ATOM     11  N   UNL     1       5.634   4.216  17.537  0.00  0.00    +0.000 N 
ATOM     12  N   UNL     1       5.280   3.770  16.315  0.00  0.00    +0.000 NA
ENDBRANCH   2  11
ENDBRANCH   1   4
BRANCH   1  13
ATOM     13  C   UNL     1       1.844   4.525  20.722  0.00  0.00    +0.000 C 
ATOM     14  O   UNL     1       0.660   4.262  20.516  0.00  0.00    +0.000 OA
ATOM     15  N   UNL     1       2.290   5.783  21.045  0.00  0.00    +0.000 N 
ATOM     16  H   UNL     1       3.287   5.946  20.960  0.00  0.00    +0.000 HD
BRANCH  15  17
ATOM     17  C   UNL     1       1.397   6.922  21.102  0.00  0.00    +0.000 C 
BRANCH  17  18
ATOM     18  C   UNL     1       1.597   7.877  19.950  0.00  0.00    +0.000 A 
ATOM     19  C   UNL     1       2.372   7.503  18.853  0.00  0.00    +0.000 A 
ATOM     20  C   UNL     1       2.538   8.405  17.806  0.00  0.00    +0.000 A 
ATOM     21  C   UNL     1       1.936   9.654  17.884  0.00  0.00    +0.000 A 
ATOM     22  C   UNL     1       1.193   9.953  19.012  0.00  0.00    +0.000 A 
ATOM     23  N   UNL     1       1.011   9.098  20.044  0.00  0.00    +0.000 NA
ENDBRANCH  17  18
ENDBRANCH  15  17
ENDBRANCH   1  13
TORSDOF 5
ENDMDL
MODEL 2
REMARK VINA RESULT:      -7.1      0.617      1.052
REMARK  Name = 
REMARK  7 active torsions:
REMARK  status: ('A' for Active; 'I' for Inactive)
REMARK    1  A    between atoms: C_1  and  C_2
REMARK    2  A    between atoms: C_4  and  C_5
REMARK    3  A    between atoms: N_6  and  C_7
REMARK    4  A    between atoms: N_9  and  C_10
REMARK    5  A    between atoms: C_10  and  C_11
REMARK    6  A    between atoms: N_13  and  C_14
REMARK    7  A    between atoms: C_14  and  C_15
REMARK                            x       y       z     vdW  Elec       q    Type
REMARK                         _______ _______ _______ _____ _____    ______ ____
ROOT
ATOM      1  C   UNL     1       2.936   3.663  20.603  0.00  0.00    +0.000 C 
ENDROOT
BRANCH   1   4
ATOM      2  C   UNL     1       4.841   4.150  18.528  0.00  0.00    +0.000 C 
ATOM      3  C   UNL     1       3.316   4.202  18.255  0.00  0.00    +0.000 C 
ATOM      4  N   UNL     1       3.111   3.103  19.240  0.00  0.00    +0.000 NA
ATOM      5  C   UNL     1       4.529   2.705  18.992  0.00  0.00    +0.000 C 
BRANCH   2  11
ATOM      6  C   UNL     1       6.117   3.909  13.831  0.00  0.00    +0.000 C 
ATOM      7  C   UNL     1       6.211   4.186  15.286  0.00  0.00    +0.000 A 
ATOM      8  C   UNL     1       7.269   4.813  15.973  0.00  0.00    +0.000 A 
ATOM      9  C   UNL     1       6.876   4.852  17.293  0.00  0.00    +0.000 A 
ATOM     10  C   UNL     1       7.575   5.412  18.474  0.00  0.00    +0.000 C 
ATOM     11  N   UNL     1       5.628   4.263  17.328  0.00  0.00    +0.000 N 
ATOM     12  N   UNL     1       5.215   3.848  16.113  0.00  0.00    +0.000 NA
ENDBRANCH   2  11
ENDBRANCH   1   4
BRANCH   1  13
ATOM     13  C   UNL     1       1.843   4.734  20.639  0.00  0.00    +0.000 C 
ATOM     14  O   UNL     1       0.653   4.444  20.514  0.00  0.00    +0.000 OA
ATOM     15  N   UNL     1       2.282   6.002  20.924  0.00  0.00    +0.000 N 
ATOM     16  H   UNL     1       3.267   6.186  20.772  0.00  0.00    +0.000 HD
BRANCH  15  17
ATOM     17  C   UNL     1       1.370   7.123  21.034  0.00  0.00    +0.000 C 
BRANCH  17  18
ATOM     18  C   UNL     1       1.539   8.121  19.914  0.00  0.00    +0.000 A 
ATOM     19  C   UNL     1       0.928   9.373  19.990  0.00  0.00    +0.000 A 
ATOM     20  C   UNL     1       1.103  10.272  18.942  0.00  0.00    +0.000 A 
ATOM     21  C   UNL     1       1.871   9.900  17.847  0.00  0.00    +0.000 A 
ATOM     22  C   UNL     1       2.434   8.635  17.843  0.00  0.00    +0.000 A 
ATOM     23  N   UNL     1       2.285   7.740  18.845  0.00  0.00    +0.000 NA
ENDBRANCH  17  18
ENDBRANCH  15  17
ENDBRANCH   1  13
TORSDOF 5
ENDMDL
MODEL 3
REMARK VINA RESULT:      -6.9      1.040      1.182
REMARK  Name = 
REMARK  7 active torsions:
REMARK  status: ('A' for Active; 'I' for Inactive)
REMARK    1  A    between atoms: C_1  and  C_2
REMARK    2  A    between atoms: C_4  and  C_5
REMARK    3  A    between atoms: N_6  and  C_7
REMARK    4  A    between atoms: N_9  and  C_10
REMARK    5  A    between atoms: C_10  and  C_11
REMARK    6  A    between atoms: N_13  and  C_14
REMARK    7  A    between atoms: C_14  and  C_15
REMARK                            x       y       z     vdW  Elec       q    Type
REMARK                         _______ _______ _______ _____ _____    ______ ____
ROOT
ATOM      1  C   UNL     1       3.002   4.075  19.744  0.00  0.00    +0.000 C 
ENDROOT
BRANCH   1   4
ATOM      2  C   UNL     1       4.930   4.251  17.641  0.00  0.00    +0.000 C 
ATOM      3  C   UNL     1       3.615   5.070  17.603  0.00  0.00    +0.000 C 
ATOM      4  N   UNL     1       2.904   3.942  18.269  0.00  0.00    +0.000 NA
ATOM      5  C   UNL     1       3.966   3.041  17.731  0.00  0.00    +0.000 C 
BRANCH   2  11
ATOM      6  C   UNL     1       6.278   3.615  13.001  0.00  0.00    +0.000 C 
ATOM      7  C   UNL     1       6.296   4.110  14.400  0.00  0.00    +0.000 A 
ATOM      8  C   UNL     1       7.191   5.037  14.970  0.00  0.00    +0.000 A 
ATOM      9  C   UNL     1       6.785   5.181  16.278  0.00  0.00    +0.000 A 
ATOM     10  C   UNL     1       7.337   6.038  17.354  0.00  0.00    +0.000 C 
ATOM     11  N   UNL     1       5.689   4.354  16.421  0.00  0.00    +0.000 N 
ATOM     12  N   UNL     1       5.385   3.692  15.286  0.00  0.00    +0.000 NA
ENDBRANCH   2  11
ENDBRANCH   1   4
BRANCH   1  13
ATOM     13  C   UNL     1       1.932   5.017  20.300  0.00  0.00    +0.000 C 
ATOM     14  O   UNL     1       0.857   4.594  20.722  0.00  0.00    +0.000 OA
ATOM     15  N   UNL     1       2.307   6.335  20.387  0.00  0.00    +0.000 N 
ATOM     16  H   UNL     1       3.088   6.623  19.808  0.00  0.00    +0.000 HD
BRANCH  15  17
ATOM     17  C   UNL     1       1.425   7.349  20.928  0.00  0.00    +0.000 C 
BRANCH  17  18
ATOM     18  C   UNL     1       1.382   8.596  20.077  0.00  0.00    +0.000 A 
ATOM     19  C   UNL     1       1.894   8.581  18.780  0.00  0.00    +0.000 A 
ATOM     20  C   UNL     1       1.838   9.746  18.020  0.00  0.00    +0.000 A 
ATOM     21  C   UNL     1       1.286  10.893  18.574  0.00  0.00    +0.000 A 
ATOM     22  C   UNL     1       0.811  10.829  19.873  0.00  0.00    +0.000 A 
ATOM     23  N   UNL     1       0.848   9.713  20.635  0.00  0.00    +0.000 NA
ENDBRANCH  17  18
ENDBRANCH  15  17
ENDBRANCH   1  13
TORSDOF 5
ENDMDL
MODEL 4
REMARK VINA RESULT:      -6.8      2.084      6.990
REMARK  Name = 
REMARK  7 active torsions:
REMARK  status: ('A' for Active; 'I' for Inactive)
REMARK    1  A    between atoms: C_1  and  C_2
REMARK    2  A    between atoms: C_4  and  C_5
REMARK    3  A    between atoms: N_6  and  C_7
REMARK    4  A    between atoms: N_9  and  C_10
REMARK    5  A    between atoms: C_10  and  C_11
REMARK    6  A    between atoms: N_13  and  C_14
REMARK    7  A    between atoms: C_14  and  C_15
REMARK                            x       y       z     vdW  Elec       q    Type
REMARK                         _______ _______ _______ _____ _____    ______ ____
ROOT
ATOM      1  C   UNL     1       3.903   3.894  18.595  0.00  0.00    +0.000 C 
ENDROOT
BRANCH   1   4
ATOM      2  C   UNL     1       2.443   6.271  19.219  0.00  0.00    +0.000 C 
ATOM      3  C   UNL     1       3.849   6.005  19.815  0.00  0.00    +0.000 C 
ATOM      4  N   UNL     1       3.538   4.548  19.875  0.00  0.00    +0.000 NA
ATOM      5  C   UNL     1       2.093   4.926  19.903  0.00  0.00    +0.000 C 
BRANCH   2  11
ATOM      6  C   UNL     1       0.265   9.224  22.427  0.00  0.00    +0.000 C 
ATOM      7  C   UNL     1       0.873   8.755  21.157  0.00  0.00    +0.000 A 
ATOM      8  C   UNL     1       1.086   9.502  19.981  0.00  0.00    +0.000 A 
ATOM      9  C   UNL     1       1.690   8.634  19.100  0.00  0.00    +0.000 A 
ATOM     10  C   UNL     1       2.163   8.865  17.714  0.00  0.00    +0.000 C 
ATOM     11  N   UNL     1       1.811   7.438  19.778  0.00  0.00    +0.000 N 
ATOM     12  N   UNL     1       1.311   7.497  21.030  0.00  0.00    +0.000 NA
ENDBRANCH   2  11
ENDBRANCH   1   4
BRANCH   1  13
ATOM     13  C   UNL     1       5.301   4.306  18.126  0.00  0.00    +0.000 C 
ATOM     14  O   UNL     1       6.311   3.972  18.743  0.00  0.00    +0.000 OA
ATOM     15  N   UNL     1       5.338   4.973  16.927  0.00  0.00    +0.000 N 
ATOM     16  H   UNL     1       4.474   5.407  16.623  0.00  0.00    +0.000 HD
BRANCH  15  17
ATOM     17  C   UNL     1       6.585   5.398  16.324  0.00  0.00    +0.000 C 
BRANCH  17  18
ATOM     18  C   UNL     1       6.719   4.950  14.889  0.00  0.00    +0.000 A 
ATOM     19  C   UNL     1       5.844   4.000  14.363  0.00  0.00    +0.000 A 
ATOM     20  C   UNL     1       5.993   3.609  13.035  0.00  0.00    +0.000 A 
ATOM     21  C   UNL     1       7.012   4.165  12.273  0.00  0.00    +0.000 A 
ATOM     22  C   UNL     1       7.846   5.092  12.872  0.00  0.00    +0.000 A 
ATOM     23  N   UNL     1       7.725   5.495  14.157  0.00  0.00    +0.000 NA
ENDBRANCH  17  18
ENDBRANCH  15  17
ENDBRANCH   1  13
TORSDOF 5
ENDMDL
MODEL 5
REMARK VINA RESULT:      -6.6      2.463      4.668
REMARK  Name = 
REMARK  7 active torsions:
REMARK  status: ('A' for Active; 'I' for Inactive)
REMARK    1  A    between atoms: C_1  and  C_2
REMARK    2  A    between atoms: C_4  and  C_5
REMARK    3  A    between atoms: N_6  and  C_7
REMARK    4  A    between atoms: N_9  and  C_10
REMARK    5  A    between atoms: C_10  and  C_11
REMARK    6  A    between atoms: N_13  and  C_14
REMARK    7  A    between atoms: C_14  and  C_15
REMARK                            x       y       z     vdW  Elec       q    Type
REMARK                         _______ _______ _______ _____ _____    ______ ____
ROOT
ATOM      1  C   UNL     1       5.907   5.849  17.535  0.00  0.00    +0.000 C 
ENDROOT
BRANCH   1   4
ATOM      2  C   UNL     1       6.355   4.965  14.854  0.00  0.00    +0.000 C 
ATOM      3  C   UNL     1       5.236   4.350  15.731  0.00  0.00    +0.000 C 
ATOM      4  N   UNL     1       6.104   4.507  16.933  0.00  0.00    +0.000 NA
ATOM      5  C   UNL     1       7.275   4.491  16.007  0.00  0.00    +0.000 C 
BRANCH   2  11
ATOM      6  C   UNL     1       5.654   1.785  11.227  0.00  0.00    +0.000 C 
ATOM      7  C   UNL     1       6.234   2.915  11.994  0.00  0.00    +0.000 A 
ATOM      8  C   UNL     1       7.237   3.811  11.574  0.00  0.00    +0.000 A 
ATOM      9  C   UNL     1       7.413   4.683  12.626  0.00  0.00    +0.000 A 
ATOM     10  C   UNL     1       8.324   5.846  12.752  0.00  0.00    +0.000 C 
ATOM     11  N   UNL     1       6.523   4.277  13.599  0.00  0.00    +0.000 N 
ATOM     12  N   UNL     1       5.803   3.198  13.229  0.00  0.00    +0.000 NA
ENDBRANCH   2  11
ENDBRANCH   1   4
BRANCH   1  13
ATOM     13  C   UNL     1       4.970   5.795  18.744  0.00  0.00    +0.000 C 
ATOM     14  O   UNL     1       5.372   5.453  19.855  0.00  0.00    +0.000 OA
ATOM     15  N   UNL     1       3.698   6.255  18.513  0.00  0.00    +0.000 N 
ATOM     16  H   UNL     1       3.394   6.283  17.546  0.00  0.00    +0.000 HD
BRANCH  15  17
ATOM     17  C   UNL     1       2.700   6.309  19.562  0.00  0.00    +0.000 C 
BRANCH  17  18
ATOM     18  C   UNL     1       2.150   4.947  19.911  0.00  0.00    +0.000 A 
ATOM     19  C   UNL     1       2.263   4.454  21.211  0.00  0.00    +0.000 A 
ATOM     20  C   UNL     1       1.744   3.196  21.502  0.00  0.00    +0.000 A 
ATOM     21  C   UNL     1       1.138   2.460  20.493  0.00  0.00    +0.000 A 
ATOM     22  C   UNL     1       1.076   3.015  19.226  0.00  0.00    +0.000 A 
ATOM     23  N   UNL     1       1.567   4.234  18.912  0.00  0.00    +0.000 NA
ENDBRANCH  17  18
ENDBRANCH  15  17
ENDBRANCH   1  13
TORSDOF 5
ENDMDL
MODEL 6
REMARK VINA RESULT:      -6.6      2.684      4.682
REMARK  Name = 
REMARK  7 active torsions:
REMARK  status: ('A' for Active; 'I' for Inactive)
REMARK    1  A    between atoms: C_1  and  C_2
REMARK    2  A    between atoms: C_4  and  C_5
REMARK    3  A    between atoms: N_6  and  C_7
REMARK    4  A    between atoms: N_9  and  C_10
REMARK    5  A    between atoms: C_10  and  C_11
REMARK    6  A    between atoms: N_13  and  C_14
REMARK    7  A    between atoms: C_14  and  C_15
REMARK                            x       y       z     vdW  Elec       q    Type
REMARK                         _______ _______ _______ _____ _____    ______ ____
ROOT
ATOM      1  C   UNL     1       6.161   6.156  17.574  0.00  0.00    +0.000 C 
ENDROOT
BRANCH   1   4
ATOM      2  C   UNL     1       6.497   5.181  14.908  0.00  0.00    +0.000 C 
ATOM      3  C   UNL     1       5.339   4.685  15.810  0.00  0.00    +0.000 C 
ATOM      4  N   UNL     1       6.232   4.790  16.999  0.00  0.00    +0.000 NA
ATOM      5  C   UNL     1       7.386   4.652  16.061  0.00  0.00    +0.000 C 
BRANCH   2  11
ATOM      6  C   UNL     1       5.502   1.970  11.379  0.00  0.00    +0.000 C 
ATOM      7  C   UNL     1       6.173   3.078  12.103  0.00  0.00    +0.000 A 
ATOM      8  C   UNL     1       7.220   3.898  11.638  0.00  0.00    +0.000 A 
ATOM      9  C   UNL     1       7.478   4.781  12.663  0.00  0.00    +0.000 A 
ATOM     10  C   UNL     1       8.463   5.886  12.738  0.00  0.00    +0.000 C 
ATOM     11  N   UNL     1       6.589   4.455  13.667  0.00  0.00    +0.000 N 
ATOM     12  N   UNL     1       5.793   3.416  13.341  0.00  0.00    +0.000 NA
ENDBRANCH   2  11
ENDBRANCH   1   4
BRANCH   1  13
ATOM     13  C   UNL     1       4.752   6.490  18.068  0.00  0.00    +0.000 C 
ATOM     14  O   UNL     1       4.019   7.263  17.452  0.00  0.00    +0.000 OA
ATOM     15  N   UNL     1       4.343   5.787  19.174  0.00  0.00    +0.000 N 
ATOM     16  H   UNL     1       5.072   5.371  19.742  0.00  0.00    +0.000 HD
BRANCH  15  17
ATOM     17  C   UNL     1       3.022   5.956  19.745  0.00  0.00    +0.000 C 
BRANCH  17  18
ATOM     18  C   UNL     1       2.200   4.691  19.693  0.00  0.00    +0.000 A 
ATOM     19  C   UNL     1       1.851   4.128  18.466  0.00  0.00    +0.000 A 
ATOM     20  C   UNL     1       1.093   2.961  18.451  0.00  0.00    +0.000 A 
ATOM     21  C   UNL     1       0.696   2.393  19.655  0.00  0.00    +0.000 A 
ATOM     22  C   UNL     1       1.073   3.020  20.830  0.00  0.00    +0.000 A 
ATOM     23  N   UNL     1       1.811   4.151  20.877  0.00  0.00    +0.000 NA
ENDBRANCH  17  18
ENDBRANCH  15  17
ENDBRANCH   1  13
TORSDOF 5
ENDMDL
MODEL 7
REMARK VINA RESULT:      -6.5      2.676      7.635
REMARK  Name = 
REMARK  7 active torsions:
REMARK  status: ('A' for Active; 'I' for Inactive)
REMARK    1  A    between atoms: C_1  and  C_2
REMARK    2  A    between atoms: C_4  and  C_5
REMARK    3  A    between atoms: N_6  and  C_7
REMARK    4  A    between atoms: N_9  and  C_10
REMARK    5  A    between atoms: C_10  and  C_11
REMARK    6  A    between atoms: N_13  and  C_14
REMARK    7  A    between atoms: C_14  and  C_15
REMARK                            x       y       z     vdW  Elec       q    Type
REMARK                         _______ _______ _______ _____ _____    ______ ____
ROOT
ATOM      1  C   UNL     1       6.485   5.341  16.767  0.00  0.00    +0.000 C 
ENDROOT
BRANCH   1   4
ATOM      2  C   UNL     1       4.288   5.227  18.593  0.00  0.00    +0.000 C 
ATOM      3  C   UNL     1       5.505   4.279  18.733  0.00  0.00    +0.000 C 
ATOM      4  N   UNL     1       5.626   4.230  17.247  0.00  0.00    +0.000 NA
ATOM      5  C   UNL     1       4.179   4.592  17.184  0.00  0.00    +0.000 C 
BRANCH   2  11
ATOM      6  C   UNL     1       1.500   2.709  21.698  0.00  0.00    +0.000 C 
ATOM      7  C   UNL     1       1.993   3.841  20.875  0.00  0.00    +0.000 A 
ATOM      8  C   UNL     1       1.485   5.155  20.829  0.00  0.00    +0.000 A 
ATOM      9  C   UNL     1       2.290   5.828  19.937  0.00  0.00    +0.000 A 
ATOM     10  C   UNL     1       2.244   7.244  19.501  0.00  0.00    +0.000 C 
ATOM     11  N   UNL     1       3.222   4.906  19.506  0.00  0.00    +0.000 N 
ATOM     12  N   UNL     1       3.048   3.691  20.065  0.00  0.00    +0.000 NA
ENDBRANCH   2  11
ENDBRANCH   1   4
BRANCH   1  13
ATOM     13  C   UNL     1       6.361   5.540  15.255  0.00  0.00    +0.000 C 
ATOM     14  O   UNL     1       5.519   6.296  14.772  0.00  0.00    +0.000 OA
ATOM     15  N   UNL     1       7.317   4.903  14.505  0.00  0.00    +0.000 N 
ATOM     16  H   UNL     1       7.802   4.131  14.949  0.00  0.00    +0.000 HD
BRANCH  15  17
ATOM     17  C   UNL     1       7.365   5.021  13.062  0.00  0.00    +0.000 C 
BRANCH  17  18
ATOM     18  C   UNL     1       6.807   3.806  12.360  0.00  0.00    +0.000 A 
ATOM     19  C   UNL     1       7.660   2.916  11.708  0.00  0.00    +0.000 A 
ATOM     20  C   UNL     1       7.115   1.805  11.071  0.00  0.00    +0.000 A 
ATOM     21  C   UNL     1       5.740   1.615  11.093  0.00  0.00    +0.000 A 
ATOM     22  C   UNL     1       4.961   2.551  11.752  0.00  0.00    +0.000 A 
ATOM     23  N   UNL     1       5.459   3.637  12.381  0.00  0.00    +0.000 NA
ENDBRANCH  17  18
ENDBRANCH  15  17
ENDBRANCH   1  13
TORSDOF 5
ENDMDL
MODEL 8
REMARK VINA RESULT:      -6.4      4.465      9.786
REMARK  Name = 
REMARK  7 active torsions:
REMARK  status: ('A' for Active; 'I' for Inactive)
REMARK    1  A    between atoms: C_1  and  C_2
REMARK    2  A    between atoms: C_4  and  C_5
REMARK    3  A    between atoms: N_6  and  C_7
REMARK    4  A    between atoms: N_9  and  C_10
REMARK    5  A    between atoms: C_10  and  C_11
REMARK    6  A    between atoms: N_13  and  C_14
REMARK    7  A    between atoms: C_14  and  C_15
REMARK                            x       y       z     vdW  Elec       q    Type
REMARK                         _______ _______ _______ _____ _____    ______ ____
ROOT
ATOM      1  C   UNL     1       1.049   9.513  21.604  0.00  0.00    +0.000 C 
ENDROOT
BRANCH   1   4
ATOM      2  C   UNL     1      -0.757  11.495  22.595  0.00  0.00    +0.000 C 
ATOM      3  C   UNL     1      -0.769  10.045  23.141  0.00  0.00    +0.000 C 
ATOM      4  N   UNL     1      -0.424   9.540  21.781  0.00  0.00    +0.000 NA
ATOM      5  C   UNL     1      -1.016  10.797  21.236  0.00  0.00    +0.000 C 
BRANCH   2  11
ATOM      6  C   UNL     1      -5.074  12.688  24.517  0.00  0.00    +0.000 C 
ATOM      7  C   UNL     1      -3.710  12.846  23.953  0.00  0.00    +0.000 A 
ATOM      8  C   UNL     1      -2.972  14.038  23.815  0.00  0.00    +0.000 A 
ATOM      9  C   UNL     1      -1.768  13.661  23.262  0.00  0.00    +0.000 A 
ATOM     10  C   UNL     1      -0.588  14.485  22.907  0.00  0.00    +0.000 C 
ATOM     11  N   UNL     1      -1.843  12.292  23.103  0.00  0.00    +0.000 N 
ATOM     12  N   UNL     1      -3.023  11.785  23.515  0.00  0.00    +0.000 NA
ENDBRANCH   2  11
ENDBRANCH   1   4
BRANCH   1  13
ATOM     13  C   UNL     1       1.457   8.706  20.370  0.00  0.00    +0.000 C 
ATOM     14  O   UNL     1       1.410   9.189  19.240  0.00  0.00    +0.000 OA
ATOM     15  N   UNL     1       1.973   7.461  20.634  0.00  0.00    +0.000 N 
ATOM     16  H   UNL     1       1.752   7.062  21.540  0.00  0.00    +0.000 HD
BRANCH  15  17
ATOM     17  C   UNL     1       2.443   6.586  19.580  0.00  0.00    +0.000 C 
BRANCH  17  18
ATOM     18  C   UNL     1       2.133   5.133  19.849  0.00  0.00    +0.000 A 
ATOM     19  C   UNL     1       1.757   4.289  18.805  0.00  0.00    +0.000 A 
ATOM     20  C   UNL     1       1.479   2.954  19.084  0.00  0.00    +0.000 A 
ATOM     21  C   UNL     1       1.574   2.499  20.393  0.00  0.00    +0.000 A 
ATOM     22  C   UNL     1       1.942   3.404  21.374  0.00  0.00    +0.000 A 
ATOM     23  N   UNL     1       2.221   4.704  21.134  0.00  0.00    +0.000 NA
ENDBRANCH  17  18
ENDBRANCH  15  17
ENDBRANCH   1  13
TORSDOF 5
ENDMDL
MODEL 9
REMARK VINA RESULT:      -6.4      2.882      7.764
REMARK  Name = 
REMARK  7 active torsions:
REMARK  status: ('A' for Active; 'I' for Inactive)
REMARK    1  A    between atoms: C_1  and  C_2
REMARK    2  A    between atoms: C_4  and  C_5
REMARK    3  A    between atoms: N_6  and  C_7
REMARK    4  A    between atoms: N_9  and  C_10
REMARK    5  A    between atoms: C_10  and  C_11
REMARK    6  A    between atoms: N_13  and  C_14
REMARK    7  A    between atoms: C_14  and  C_15
REMARK                            x       y       z     vdW  Elec       q    Type
REMARK                         _______ _______ _______ _____ _____    ______ ____
ROOT
ATOM      1  C   UNL     1       6.053   5.743  16.459  0.00  0.00    +0.000 C 
ENDROOT
BRANCH   1   4
ATOM      2  C   UNL     1       3.899   5.332  18.293  0.00  0.00    +0.000 C 
ATOM      3  C   UNL     1       5.347   5.574  18.788  0.00  0.00    +0.000 C 
ATOM      4  N   UNL     1       5.866   4.824  17.609  0.00  0.00    +0.000 NA
ATOM      5  C   UNL     1       4.542   4.135  17.548  0.00  0.00    +0.000 C 
BRANCH   2  11
ATOM      6  C   UNL     1       1.569   2.709  21.677  0.00  0.00    +0.000 C 
ATOM      7  C   UNL     1       1.970   3.877  20.853  0.00  0.00    +0.000 A 
ATOM      8  C   UNL     1       1.531   5.209  20.984  0.00  0.00    +0.000 A 
ATOM      9  C   UNL     1       2.201   5.913  20.008  0.00  0.00    +0.000 A 
ATOM     10  C   UNL     1       2.154   7.358  19.679  0.00  0.00    +0.000 C 
ATOM     11  N   UNL     1       2.993   4.988  19.359  0.00  0.00    +0.000 N 
ATOM     12  N   UNL     1       2.857   3.744  19.861  0.00  0.00    +0.000 NA
ENDBRANCH   2  11
ENDBRANCH   1   4
BRANCH   1  13
ATOM     13  C   UNL     1       7.000   5.154  15.411  0.00  0.00    +0.000 C 
ATOM     14  O   UNL     1       7.901   4.377  15.722  0.00  0.00    +0.000 OA
ATOM     15  N   UNL     1       6.697   5.473  14.111  0.00  0.00    +0.000 N 
ATOM     16  H   UNL     1       6.111   6.288  13.969  0.00  0.00    +0.000 HD
BRANCH  15  17
ATOM     17  C   UNL     1       7.471   4.965  12.997  0.00  0.00    +0.000 C 
BRANCH  17  18
ATOM     18  C   UNL     1       6.810   3.791  12.317  0.00  0.00    +0.000 A 
ATOM     19  C   UNL     1       5.420   3.677  12.302  0.00  0.00    +0.000 A 
ATOM     20  C   UNL     1       4.840   2.583  11.666  0.00  0.00    +0.000 A 
ATOM     21  C   UNL     1       5.657   1.630  11.072  0.00  0.00    +0.000 A 
ATOM     22  C   UNL     1       7.028   1.810  11.141  0.00  0.00    +0.000 A 
ATOM     23  N   UNL     1       7.621   2.862  11.748  0.00  0.00    +0.000 NA
ENDBRANCH  17  18
ENDBRANCH  15  17
ENDBRANCH   1  13
TORSDOF 5
ENDMDL
