MODEL 1
REMARK VINA RESULT:      -6.7      0.000      0.000
REMARK  Name = 
REMARK  5 active torsions:
REMARK  status: ('A' for Active; 'I' for Inactive)
REMARK    1  A    between atoms: C_1  and  C_2
REMARK    2  A    between atoms: C_2  and  C_3
REMARK    3  A    between atoms: C_2  and  C_4
REMARK    4  A    between atoms: C_2  and  C_5
REMARK    5  A    between atoms: C_7  and  C_8
REMARK                            x       y       z     vdW  Elec       q    Type
REMARK                         _______ _______ _______ _____ _____    ______ ____
ROOT
ATOM      1  C   UNL     1       2.944   3.711  19.158  0.00  0.00    +0.000 A 
ATOM      2  N   UNL     1       3.832   4.681  19.267  0.00  0.00    +0.000 NA
ATOM      3  C   UNL     1       4.730   4.649  18.210  0.00  0.00    +0.000 A 
ATOM      4  C   UNL     1       4.532   3.613  17.319  0.00  0.00    +0.000 A 
ATOM      5  S   UNL     1       3.172   2.688  17.783  0.00  0.00    +0.000 S 
ENDROOT
BRANCH   3   6
ATOM      6  C   UNL     1       5.810   5.617  18.096  0.00  0.00    +0.000 A 
ATOM      7  C   UNL     1       6.913   5.562  18.953  0.00  0.00    +0.000 A 
ATOM      8  C   UNL     1       7.955   6.477  18.806  0.00  0.00    +0.000 A 
ATOM      9  C   UNL     1       7.857   7.433  17.808  0.00  0.00    +0.000 A 
ATOM     10  N   UNL     1       6.802   7.535  16.971  0.00  0.00    +0.000 NA
ATOM     11  C   UNL     1       5.806   6.630  17.140  0.00  0.00    +0.000 A 
ENDBRANCH   3   6
BRANCH   1  13
ATOM     12  C   UNL     1       0.699   2.620  19.469  0.00  0.00    +0.000 C 
ATOM     13  C   UNL     1       1.798   3.471  20.140  0.00  0.00    +0.000 C 
ATOM     14  C   UNL     1       1.165   4.807  20.577  0.00  0.00    +0.000 C 
ATOM     15  C   UNL     1       2.299   2.708  21.382  0.00  0.00    +0.000 C 
ENDBRANCH   1  13
TORSDOF 2
ENDMDL
MODEL 2
REMARK VINA RESULT:      -6.7      2.108      2.895
REMARK  Name = 
REMARK  5 active torsions:
REMARK  status: ('A' for Active; 'I' for Inactive)
REMARK    1  A    between atoms: C_1  and  C_2
REMARK    2  A    between atoms: C_2  and  C_3
REMARK    3  A    between atoms: C_2  and  C_4
REMARK    4  A    between atoms: C_2  and  C_5
REMARK    5  A    between atoms: C_7  and  C_8
REMARK                            x       y       z     vdW  Elec       q    Type
REMARK                         _______ _______ _______ _____ _____    ______ ____
ROOT
ATOM      1  C   UNL     1       2.900   4.370  18.858  0.00  0.00    +0.000 A 
ATOM      2  N   UNL     1       3.748   4.013  17.912  0.00  0.00    +0.000 NA
ATOM      3  C   UNL     1       4.386   5.123  17.377  0.00  0.00    +0.000 A 
ATOM      4  C   UNL     1       3.976   6.331  17.906  0.00  0.00    +0.000 A 
ATOM      5  S   UNL     1       2.809   6.075  19.127  0.00  0.00    +0.000 S 
ENDROOT
BRANCH   3   6
ATOM      6  C   UNL     1       5.371   4.998  16.315  0.00  0.00    +0.000 A 
ATOM      7  C   UNL     1       5.137   4.168  15.215  0.00  0.00    +0.000 A 
ATOM      8  C   UNL     1       6.077   4.089  14.189  0.00  0.00    +0.000 A 
ATOM      9  C   UNL     1       7.238   4.838  14.300  0.00  0.00    +0.000 A 
ATOM     10  N   UNL     1       7.514   5.638  15.352  0.00  0.00    +0.000 NA
ATOM     11  C   UNL     1       6.579   5.693  16.332  0.00  0.00    +0.000 A 
ENDBRANCH   3   6
BRANCH   1  13
ATOM     12  C   UNL     1       0.905   4.155  20.374  0.00  0.00    +0.000 C 
ATOM     13  C   UNL     1       2.050   3.395  19.671  0.00  0.00    +0.000 C 
ATOM     14  C   UNL     1       2.898   2.704  20.757  0.00  0.00    +0.000 C 
ATOM     15  C   UNL     1       1.420   2.329  18.753  0.00  0.00    +0.000 C 
ENDBRANCH   1  13
TORSDOF 2
ENDMDL
MODEL 3
REMARK VINA RESULT:      -6.7      2.051      2.896
REMARK  Name = 
REMARK  5 active torsions:
REMARK  status: ('A' for Active; 'I' for Inactive)
REMARK    1  A    between atoms: C_1  and  C_2
REMARK    2  A    between atoms: C_2  and  C_3
REMARK    3  A    between atoms: C_2  and  C_4
REMARK    4  A    between atoms: C_2  and  C_5
REMARK    5  A    between atoms: C_7  and  C_8
REMARK                            x       y       z     vdW  Elec       q    Type
REMARK                         _______ _______ _______ _____ _____    ______ ____
ROOT
ATOM      1  C   UNL     1       2.953   4.277  19.026  0.00  0.00    +0.000 A 
ATOM      2  N   UNL     1       3.764   3.942  18.040  0.00  0.00    +0.000 NA
ATOM      3  C   UNL     1       4.421   5.057  17.541  0.00  0.00    +0.000 A 
ATOM      4  C   UNL     1       4.064   6.250  18.139  0.00  0.00    +0.000 A 
ATOM      5  S   UNL     1       2.923   5.970  19.378  0.00  0.00    +0.000 S 
ENDROOT
BRANCH   3   6
ATOM      6  C   UNL     1       5.374   4.955  16.447  0.00  0.00    +0.000 A 
ATOM      7  C   UNL     1       5.119   4.125  15.351  0.00  0.00    +0.000 A 
ATOM      8  C   UNL     1       6.027   4.067  14.296  0.00  0.00    +0.000 A 
ATOM      9  C   UNL     1       7.176   4.837  14.372  0.00  0.00    +0.000 A 
ATOM     10  N   UNL     1       7.472   5.638  15.418  0.00  0.00    +0.000 NA
ATOM     11  C   UNL     1       6.568   5.672  16.428  0.00  0.00    +0.000 A 
ENDBRANCH   3   6
BRANCH   1  13
ATOM     12  C   UNL     1       2.894   2.737  21.013  0.00  0.00    +0.000 C 
ATOM     13  C   UNL     1       2.094   3.290  19.815  0.00  0.00    +0.000 C 
ATOM     14  C   UNL     1       1.680   2.098  18.930  0.00  0.00    +0.000 C 
ATOM     15  C   UNL     1       0.834   3.986  20.364  0.00  0.00    +0.000 C 
ENDBRANCH   1  13
TORSDOF 2
ENDMDL
MODEL 4
REMARK VINA RESULT:      -6.7      0.052      1.115
REMARK  Name = 
REMARK  5 active torsions:
REMARK  status: ('A' for Active; 'I' for Inactive)
REMARK    1  A    between atoms: C_1  and  C_2
REMARK    2  A    between atoms: C_2  and  C_3
REMARK    3  A    between atoms: C_2  and  C_4
REMARK    4  A    between atoms: C_2  and  C_5
REMARK    5  A    between atoms: C_7  and  C_8
REMARK                            x       y       z     vdW  Elec       q    Type
REMARK                         _______ _______ _______ _____ _____    ______ ____
ROOT
ATOM      1  C   UNL     1       2.964   3.700  19.148  0.00  0.00    +0.000 A 
ATOM      2  N   UNL     1       3.829   4.692  19.237  0.00  0.00    +0.000 NA
ATOM      3  C   UNL     1       4.752   4.636  18.202  0.00  0.00    +0.000 A 
ATOM      4  C   UNL     1       4.595   3.562  17.350  0.00  0.00    +0.000 A 
ATOM      5  S   UNL     1       3.243   2.629  17.820  0.00  0.00    +0.000 S 
ENDROOT
BRANCH   3   6
ATOM      6  C   UNL     1       5.815   5.621  18.075  0.00  0.00    +0.000 A 
ATOM      7  C   UNL     1       6.933   5.579  18.912  0.00  0.00    +0.000 A 
ATOM      8  C   UNL     1       7.958   6.510  18.751  0.00  0.00    +0.000 A 
ATOM      9  C   UNL     1       7.829   7.468  17.759  0.00  0.00    +0.000 A 
ATOM     10  N   UNL     1       6.759   7.558  16.940  0.00  0.00    +0.000 NA
ATOM     11  C   UNL     1       5.779   6.637  17.123  0.00  0.00    +0.000 A 
ENDBRANCH   3   6
BRANCH   1  13
ATOM     12  C   UNL     1       2.291   2.710  21.360  0.00  0.00    +0.000 C 
ATOM     13  C   UNL     1       1.800   3.476  20.113  0.00  0.00    +0.000 C 
ATOM     14  C   UNL     1       0.691   2.638  19.447  0.00  0.00    +0.000 C 
ATOM     15  C   UNL     1       1.217   4.823  20.580  0.00  0.00    +0.000 C 
ENDBRANCH   1  13
TORSDOF 2
ENDMDL
MODEL 5
REMARK VINA RESULT:      -6.6      2.120      2.720
REMARK  Name = 
REMARK  5 active torsions:
REMARK  status: ('A' for Active; 'I' for Inactive)
REMARK    1  A    between atoms: C_1  and  C_2
REMARK    2  A    between atoms: C_2  and  C_3
REMARK    3  A    between atoms: C_2  and  C_4
REMARK    4  A    between atoms: C_2  and  C_5
REMARK    5  A    between atoms: C_7  and  C_8
REMARK                            x       y       z     vdW  Elec       q    Type
REMARK                         _______ _______ _______ _____ _____    ______ ____
ROOT
ATOM      1  C   UNL     1       2.883   4.410  18.843  0.00  0.00    +0.000 A 
ATOM      2  N   UNL     1       3.735   4.038  17.906  0.00  0.00    +0.000 NA
ATOM      3  C   UNL     1       4.367   5.139  17.347  0.00  0.00    +0.000 A 
ATOM      4  C   UNL     1       3.949   6.356  17.849  0.00  0.00    +0.000 A 
ATOM      5  S   UNL     1       2.782   6.120  19.074  0.00  0.00    +0.000 S 
ENDROOT
BRANCH   3   6
ATOM      6  C   UNL     1       5.354   4.997  16.289  0.00  0.00    +0.000 A 
ATOM      7  C   UNL     1       5.126   4.143  15.207  0.00  0.00    +0.000 A 
ATOM      8  C   UNL     1       6.069   4.046  14.185  0.00  0.00    +0.000 A 
ATOM      9  C   UNL     1       7.224   4.804  14.281  0.00  0.00    +0.000 A 
ATOM     10  N   UNL     1       7.495   5.628  15.316  0.00  0.00    +0.000 NA
ATOM     11  C   UNL     1       6.558   5.699  16.293  0.00  0.00    +0.000 A 
ENDBRANCH   3   6
BRANCH   1  13
ATOM     12  C   UNL     1       1.389   2.389  18.760  0.00  0.00    +0.000 C 
ATOM     13  C   UNL     1       2.037   3.448  19.676  0.00  0.00    +0.000 C 
ATOM     14  C   UNL     1       0.908   4.203  20.403  0.00  0.00    +0.000 C 
ATOM     15  C   UNL     1       2.913   2.712  20.709  0.00  0.00    +0.000 C 
ENDBRANCH   1  13
TORSDOF 2
ENDMDL
MODEL 6
REMARK VINA RESULT:      -6.6      0.161      1.147
REMARK  Name = 
REMARK  5 active torsions:
REMARK  status: ('A' for Active; 'I' for Inactive)
REMARK    1  A    between atoms: C_1  and  C_2
REMARK    2  A    between atoms: C_2  and  C_3
REMARK    3  A    between atoms: C_2  and  C_4
REMARK    4  A    between atoms: C_2  and  C_5
REMARK    5  A    between atoms: C_7  and  C_8
REMARK                            x       y       z     vdW  Elec       q    Type
REMARK                         _______ _______ _______ _____ _____    ______ ____
ROOT
ATOM      1  C   UNL     1       2.990   3.650  19.217  0.00  0.00    +0.000 A 
ATOM      2  N   UNL     1       3.814   4.680  19.248  0.00  0.00    +0.000 NA
ATOM      3  C   UNL     1       4.756   4.590  18.233  0.00  0.00    +0.000 A 
ATOM      4  C   UNL     1       4.656   3.452  17.457  0.00  0.00    +0.000 A 
ATOM      5  S   UNL     1       3.334   2.500  17.972  0.00  0.00    +0.000 S 
ENDROOT
BRANCH   3   6
ATOM      6  C   UNL     1       5.781   5.605  18.051  0.00  0.00    +0.000 A 
ATOM      7  C   UNL     1       6.937   5.603  18.837  0.00  0.00    +0.000 A 
ATOM      8  C   UNL     1       7.925   6.563  18.624  0.00  0.00    +0.000 A 
ATOM      9  C   UNL     1       7.722   7.509  17.633  0.00  0.00    +0.000 A 
ATOM     10  N   UNL     1       6.614   7.560  16.863  0.00  0.00    +0.000 NA
ATOM     11  C   UNL     1       5.672   6.612  17.096  0.00  0.00    +0.000 A 
ENDBRANCH   3   6
BRANCH   1  13
ATOM     12  C   UNL     1       1.283   4.816  20.649  0.00  0.00    +0.000 C 
ATOM     13  C   UNL     1       1.820   3.448  20.178  0.00  0.00    +0.000 C 
ATOM     14  C   UNL     1       2.267   2.659  21.425  0.00  0.00    +0.000 C 
ATOM     15  C   UNL     1       0.667   2.699  19.481  0.00  0.00    +0.000 C 
ENDBRANCH   1  13
TORSDOF 2
ENDMDL
MODEL 7
REMARK VINA RESULT:      -6.5      1.836      5.979
REMARK  Name = 
REMARK  5 active torsions:
REMARK  status: ('A' for Active; 'I' for Inactive)
REMARK    1  A    between atoms: C_1  and  C_2
REMARK    2  A    between atoms: C_2  and  C_3
REMARK    3  A    between atoms: C_2  and  C_4
REMARK    4  A    between atoms: C_2  and  C_5
REMARK    5  A    between atoms: C_7  and  C_8
REMARK                            x       y       z     vdW  Elec       q    Type
REMARK                         _______ _______ _______ _____ _____    ______ ____
ROOT
ATOM      1  C   UNL     1       5.629   5.641  18.209  0.00  0.00    +0.000 A 
ATOM      2  N   UNL     1       5.070   4.837  19.095  0.00  0.00    +0.000 NA
ATOM      3  C   UNL     1       3.687   4.920  19.031  0.00  0.00    +0.000 A 
ATOM      4  C   UNL     1       3.208   5.830  18.109  0.00  0.00    +0.000 A 
ATOM      5  S   UNL     1       4.505   6.563  17.274  0.00  0.00    +0.000 S 
ENDROOT
BRANCH   3   6
ATOM      6  C   UNL     1       2.834   4.131  19.906  0.00  0.00    +0.000 A 
ATOM      7  C   UNL     1       1.466   4.004  19.647  0.00  0.00    +0.000 A 
ATOM      8  C   UNL     1       0.672   3.214  20.477  0.00  0.00    +0.000 A 
ATOM      9  C   UNL     1       1.269   2.581  21.554  0.00  0.00    +0.000 A 
ATOM     10  N   UNL     1       2.582   2.690  21.853  0.00  0.00    +0.000 NA
ATOM     11  C   UNL     1       3.327   3.465  21.026  0.00  0.00    +0.000 A 
ENDBRANCH   3   6
BRANCH   1  13
ATOM     12  C   UNL     1       7.864   5.766  19.357  0.00  0.00    +0.000 C 
ATOM     13  C   UNL     1       7.136   5.779  17.996  0.00  0.00    +0.000 C 
ATOM     14  C   UNL     1       7.469   7.108  17.291  0.00  0.00    +0.000 C 
ATOM     15  C   UNL     1       7.675   4.603  17.158  0.00  0.00    +0.000 C 
ENDBRANCH   1  13
TORSDOF 2
ENDMDL
MODEL 8
REMARK VINA RESULT:      -6.4      1.891      5.980
REMARK  Name = 
REMARK  5 active torsions:
REMARK  status: ('A' for Active; 'I' for Inactive)
REMARK    1  A    between atoms: C_1  and  C_2
REMARK    2  A    between atoms: C_2  and  C_3
REMARK    3  A    between atoms: C_2  and  C_4
REMARK    4  A    between atoms: C_2  and  C_5
REMARK    5  A    between atoms: C_7  and  C_8
REMARK                            x       y       z     vdW  Elec       q    Type
REMARK                         _______ _______ _______ _____ _____    ______ ____
ROOT
ATOM      1  C   UNL     1       5.607   5.787  18.189  0.00  0.00    +0.000 A 
ATOM      2  N   UNL     1       4.997   4.958  19.016  0.00  0.00    +0.000 NA
ATOM      3  C   UNL     1       3.620   5.112  18.942  0.00  0.00    +0.000 A 
ATOM      4  C   UNL     1       3.199   6.101  18.074  0.00  0.00    +0.000 A 
ATOM      5  S   UNL     1       4.542   6.819  17.301  0.00  0.00    +0.000 S 
ENDROOT
BRANCH   3   6
ATOM      6  C   UNL     1       2.718   4.313  19.756  0.00  0.00    +0.000 A 
ATOM      7  C   UNL     1       1.610   3.681  19.186  0.00  0.00    +0.000 A 
ATOM      8  C   UNL     1       0.777   2.890  19.975  0.00  0.00    +0.000 A 
ATOM      9  C   UNL     1       1.072   2.763  21.323  0.00  0.00    +0.000 A 
ATOM     10  N   UNL     1       2.120   3.370  21.920  0.00  0.00    +0.000 NA
ATOM     11  C   UNL     1       2.911   4.131  21.124  0.00  0.00    +0.000 A 
ENDBRANCH   3   6
BRANCH   1  13
ATOM     12  C   UNL     1       7.599   4.708  17.097  0.00  0.00    +0.000 C 
ATOM     13  C   UNL     1       7.122   5.864  18.001  0.00  0.00    +0.000 C 
ATOM     14  C   UNL     1       7.847   5.739  19.355  0.00  0.00    +0.000 C 
ATOM     15  C   UNL     1       7.517   7.192  17.326  0.00  0.00    +0.000 C 
ENDBRANCH   1  13
TORSDOF 2
ENDMDL
MODEL 9
REMARK VINA RESULT:      -6.4      1.891      5.989
REMARK  Name = 
REMARK  5 active torsions:
REMARK  status: ('A' for Active; 'I' for Inactive)
REMARK    1  A    between atoms: C_1  and  C_2
REMARK    2  A    between atoms: C_2  and  C_3
REMARK    3  A    between atoms: C_2  and  C_4
REMARK    4  A    between atoms: C_2  and  C_5
REMARK    5  A    between atoms: C_7  and  C_8
REMARK                            x       y       z     vdW  Elec       q    Type
REMARK                         _______ _______ _______ _____ _____    ______ ____
ROOT
ATOM      1  C   UNL     1       5.618   5.765  18.198  0.00  0.00    +0.000 A 
ATOM      2  N   UNL     1       5.007   4.937  19.024  0.00  0.00    +0.000 NA
ATOM      3  C   UNL     1       3.631   5.100  18.956  0.00  0.00    +0.000 A 
ATOM      4  C   UNL     1       3.212   6.094  18.094  0.00  0.00    +0.000 A 
ATOM      5  S   UNL     1       4.556   6.807  17.318  0.00  0.00    +0.000 S 
ENDROOT
BRANCH   3   6
ATOM      6  C   UNL     1       2.727   4.302  19.770  0.00  0.00    +0.000 A 
ATOM      7  C   UNL     1       1.615   3.675  19.201  0.00  0.00    +0.000 A 
ATOM      8  C   UNL     1       0.781   2.886  19.991  0.00  0.00    +0.000 A 
ATOM      9  C   UNL     1       1.078   2.756  21.338  0.00  0.00    +0.000 A 
ATOM     10  N   UNL     1       2.130   3.357  21.934  0.00  0.00    +0.000 NA
ATOM     11  C   UNL     1       2.922   4.117  21.137  0.00  0.00    +0.000 A 
ENDBRANCH   3   6
BRANCH   1  13
ATOM     12  C   UNL     1       7.517   7.168  17.329  0.00  0.00    +0.000 C 
ATOM     13  C   UNL     1       7.133   5.835  18.005  0.00  0.00    +0.000 C 
ATOM     14  C   UNL     1       7.621   4.686  17.100  0.00  0.00    +0.000 C 
ATOM     15  C   UNL     1       7.856   5.763  19.363  0.00  0.00    +0.000 C 
ENDBRANCH   1  13
TORSDOF 2
ENDMDL
