MODEL 1
REMARK VINA RESULT:      -8.3      0.000      0.000
REMARK  Name = 
REMARK  7 active torsions:
REMARK  status: ('A' for Active; 'I' for Inactive)
REMARK    1  A    between atoms: C_2  and  C_3
REMARK    2  A    between atoms: C_3  and  O_4
REMARK    3  A    between atoms: O_4  and  C_5
REMARK    4  A    between atoms: C_5  and  C_7
REMARK    5  A    between atoms: C_7  and  N_8
REMARK    6  A    between atoms: C_9  and  C_11
REMARK    7  A    between atoms: C_22  and  C_23
REMARK                            x       y       z     vdW  Elec       q    Type
REMARK                         _______ _______ _______ _____ _____    ______ ____
ROOT
ATOM      1  C   UNL     1       3.733   2.810  20.191  0.00  0.00    +0.000 C 
ENDROOT
BRANCH   1   3
ATOM      2  O   UNL     1       4.463   2.106  18.006  0.00  0.00    +0.000 OA
ATOM      3  C   UNL     1       4.561   2.938  18.909  0.00  0.00    +0.000 C 
ATOM      4  N   UNL     1       5.444   3.991  18.929  0.00  0.00    +0.000 N 
ATOM      5  C   UNL     1       6.232   4.330  17.867  0.00  0.00    +0.000 A 
ATOM      6  N   UNL     1       7.260   5.146  17.912  0.00  0.00    +0.000 NA
ATOM      7  N   UNL     1       7.714   5.275  16.618  0.00  0.00    +0.000 NA
ATOM      8  C   UNL     1       6.896   4.572  15.859  0.00  0.00    +0.000 A 
ATOM      9  O   UNL     1       5.938   3.913  16.598  0.00  0.00    +0.000 OA
ATOM     10  H   UNL     1       5.631   4.481  19.793  0.00  0.00    +0.000 HD
BRANCH   8  11
ATOM     11  C   UNL     1       6.816   4.512  14.401  0.00  0.00    +0.000 A 
ATOM     12  C   UNL     1       5.836   3.707  13.794  0.00  0.00    +0.000 A 
ATOM     13  C   UNL     1       5.796   3.537  12.407  0.00  0.00    +0.000 A 
ATOM     14  C   UNL     1       6.739   4.174  11.604  0.00  0.00    +0.000 A 
ATOM     15  C   UNL     1       7.703   4.993  12.185  0.00  0.00    +0.000 A 
ATOM     16  C   UNL     1       7.739   5.168  13.574  0.00  0.00    +0.000 A 
ENDBRANCH   8  11
ENDBRANCH   1   3
BRANCH   1  17
ATOM     17  O   UNL     1       2.358   2.514  19.933  0.00  0.00    +0.000 OA
BRANCH  17  18
ATOM     18  C   UNL     1       1.497   3.509  20.279  0.00  0.00    +0.000 C 
ATOM     19  O   UNL     1       0.306   3.532  20.003  0.00  0.00    +0.000 OA
BRANCH  18  20
ATOM     20  C   UNL     1       2.192   4.578  21.113  0.00  0.00    +0.000 C 
BRANCH  20  21
ATOM     21  N   UNL     1       1.748   5.912  20.761  0.00  0.00    +0.000 N 
ATOM     22  C   UNL     1       2.418   6.639  19.800  0.00  0.00    +0.000 C 
ATOM     23  O   UNL     1       3.378   6.197  19.181  0.00  0.00    +0.000 OA
ATOM     24  H   UNL     1       0.910   6.271  21.196  0.00  0.00    +0.000 HD
BRANCH  22  25
ATOM     25  C   UNL     1       1.912   8.010  19.515  0.00  0.00    +0.000 A 
ATOM     26  C   UNL     1       2.033   8.596  18.248  0.00  0.00    +0.000 A 
ATOM     27  C   UNL     1       1.496   9.866  18.012  0.00  0.00    +0.000 A 
ATOM     28  C   UNL     1       0.839  10.545  19.038  0.00  0.00    +0.000 A 
ATOM     29 BR   UNL     1       0.085  12.245  18.701  0.00  0.00    +0.000 Br
ATOM     30  C   UNL     1       0.716   9.970  20.302  0.00  0.00    +0.000 A 
ATOM     31  C   UNL     1       1.248   8.700  20.539  0.00  0.00    +0.000 A 
ENDBRANCH  22  25
ENDBRANCH  20  21
ENDBRANCH  18  20
ENDBRANCH  17  18
ENDBRANCH   1  17
TORSDOF 7
ENDMDL
MODEL 2
REMARK VINA RESULT:      -8.1      1.619      2.035
REMARK  Name = 
REMARK  7 active torsions:
REMARK  status: ('A' for Active; 'I' for Inactive)
REMARK    1  A    between atoms: C_2  and  C_3
REMARK    2  A    between atoms: C_3  and  O_4
REMARK    3  A    between atoms: O_4  and  C_5
REMARK    4  A    between atoms: C_5  and  C_7
REMARK    5  A    between atoms: C_7  and  N_8
REMARK    6  A    between atoms: C_9  and  C_11
REMARK    7  A    between atoms: C_22  and  C_23
REMARK                            x       y       z     vdW  Elec       q    Type
REMARK                         _______ _______ _______ _____ _____    ______ ____
ROOT
ATOM      1  C   UNL     1       3.199   2.987  20.312  0.00  0.00    +0.000 C 
ENDROOT
BRANCH   1   3
ATOM      2  O   UNL     1       3.872   2.302  18.102  0.00  0.00    +0.000 OA
ATOM      3  C   UNL     1       4.092   3.034  19.068  0.00  0.00    +0.000 C 
ATOM      4  N   UNL     1       5.163   3.886  19.193  0.00  0.00    +0.000 N 
ATOM      5  C   UNL     1       6.048   4.132  18.184  0.00  0.00    +0.000 A 
ATOM      6  N   UNL     1       7.214   4.722  18.321  0.00  0.00    +0.000 NA
ATOM      7  N   UNL     1       7.741   4.845  17.055  0.00  0.00    +0.000 NA
ATOM      8  C   UNL     1       6.835   4.373  16.220  0.00  0.00    +0.000 A 
ATOM      9  O   UNL     1       5.735   3.870  16.879  0.00  0.00    +0.000 OA
ATOM     10  H   UNL     1       5.405   4.269  20.097  0.00  0.00    +0.000 HD
BRANCH   8  11
ATOM     11  C   UNL     1       6.809   4.430  14.761  0.00  0.00    +0.000 A 
ATOM     12  C   UNL     1       5.934   3.589  14.051  0.00  0.00    +0.000 A 
ATOM     13  C   UNL     1       5.957   3.534  12.654  0.00  0.00    +0.000 A 
ATOM     14  C   UNL     1       6.858   4.325  11.945  0.00  0.00    +0.000 A 
ATOM     15  C   UNL     1       7.716   5.181  12.630  0.00  0.00    +0.000 A 
ATOM     16  C   UNL     1       7.689   5.240  14.028  0.00  0.00    +0.000 A 
ENDBRANCH   8  11
ENDBRANCH   1   3
BRANCH   1  17
ATOM     17  O   UNL     1       2.824   4.287  20.771  0.00  0.00    +0.000 OA
BRANCH  17  18
ATOM     18  C   UNL     1       2.103   5.012  19.874  0.00  0.00    +0.000 C 
ATOM     19  O   UNL     1       1.119   4.605  19.274  0.00  0.00    +0.000 OA
BRANCH  18  20
ATOM     20  C   UNL     1       2.641   6.432  19.749  0.00  0.00    +0.000 C 
BRANCH  20  21
ATOM     21  N   UNL     1       1.828   7.386  20.477  0.00  0.00    +0.000 N 
ATOM     22  C   UNL     1       1.427   8.561  19.879  0.00  0.00    +0.000 C 
ATOM     23  O   UNL     1       1.699   8.842  18.718  0.00  0.00    +0.000 OA
ATOM     24  H   UNL     1       1.521   7.143  21.409  0.00  0.00    +0.000 HD
BRANCH  22  25
ATOM     25  C   UNL     1       0.615   9.496  20.704  0.00  0.00    +0.000 A 
ATOM     26  C   UNL     1       0.168  10.726  20.205  0.00  0.00    +0.000 A 
ATOM     27  C   UNL     1      -0.638  11.550  20.999  0.00  0.00    +0.000 A 
ATOM     28  C   UNL     1      -0.997  11.144  22.283  0.00  0.00    +0.000 A 
ATOM     29 BR   UNL     1      -2.114  12.246  23.336  0.00  0.00    +0.000 Br
ATOM     30  C   UNL     1      -0.554   9.922  22.789  0.00  0.00    +0.000 A 
ATOM     31  C   UNL     1       0.247   9.096  21.997  0.00  0.00    +0.000 A 
ENDBRANCH  22  25
ENDBRANCH  20  21
ENDBRANCH  18  20
ENDBRANCH  17  18
ENDBRANCH   1  17
TORSDOF 7
ENDMDL
MODEL 3
REMARK VINA RESULT:      -7.8      1.619      2.075
REMARK  Name = 
REMARK  7 active torsions:
REMARK  status: ('A' for Active; 'I' for Inactive)
REMARK    1  A    between atoms: C_2  and  C_3
REMARK    2  A    between atoms: C_3  and  O_4
REMARK    3  A    between atoms: O_4  and  C_5
REMARK    4  A    between atoms: C_5  and  C_7
REMARK    5  A    between atoms: C_7  and  N_8
REMARK    6  A    between atoms: C_9  and  C_11
REMARK    7  A    between atoms: C_22  and  C_23
REMARK                            x       y       z     vdW  Elec       q    Type
REMARK                         _______ _______ _______ _____ _____    ______ ____
ROOT
ATOM      1  C   UNL     1       1.014   2.920  18.685  0.00  0.00    +0.000 C 
ENDROOT
BRANCH   1   3
ATOM      2  O   UNL     1       2.716   2.143  17.167  0.00  0.00    +0.000 OA
ATOM      3  C   UNL     1       2.276   3.082  17.833  0.00  0.00    +0.000 C 
ATOM      4  N   UNL     1       2.874   4.312  17.967  0.00  0.00    +0.000 N 
ATOM      5  C   UNL     1       3.971   4.695  17.250  0.00  0.00    +0.000 A 
ATOM      6  N   UNL     1       4.727   5.736  17.514  0.00  0.00    +0.000 NA
ATOM      7  N   UNL     1       5.662   5.806  16.506  0.00  0.00    +0.000 NA
ATOM      8  C   UNL     1       5.380   4.835  15.660  0.00  0.00    +0.000 A 
ATOM      9  O   UNL     1       4.324   4.061  16.090  0.00  0.00    +0.000 OA
ATOM     10  H   UNL     1       2.588   4.939  18.706  0.00  0.00    +0.000 HD
BRANCH   8  11
ATOM     11  C   UNL     1       5.943   4.573  14.337  0.00  0.00    +0.000 A 
ATOM     12  C   UNL     1       5.282   3.687  13.467  0.00  0.00    +0.000 A 
ATOM     13  C   UNL     1       5.844   3.325  12.239  0.00  0.00    +0.000 A 
ATOM     14  C   UNL     1       7.078   3.848  11.862  0.00  0.00    +0.000 A 
ATOM     15  C   UNL     1       7.736   4.745  12.700  0.00  0.00    +0.000 A 
ATOM     16  C   UNL     1       7.171   5.111  13.927  0.00  0.00    +0.000 A 
ENDBRANCH   8  11
ENDBRANCH   1   3
BRANCH   1  17
ATOM     17  O   UNL     1       0.819   4.006  19.594  0.00  0.00    +0.000 OA
BRANCH  17  18
ATOM     18  C   UNL     1       1.435   3.847  20.797  0.00  0.00    +0.000 C 
ATOM     19  O   UNL     1       1.271   2.898  21.549  0.00  0.00    +0.000 OA
BRANCH  18  20
ATOM     20  C   UNL     1       2.413   4.984  21.071  0.00  0.00    +0.000 C 
BRANCH  20  21
ATOM     21  N   UNL     1       1.729   6.235  21.333  0.00  0.00    +0.000 N 
ATOM     22  C   UNL     1       1.811   7.275  20.433  0.00  0.00    +0.000 C 
ATOM     23  O   UNL     1       2.422   7.192  19.374  0.00  0.00    +0.000 OA
ATOM     24  H   UNL     1       1.152   6.304  22.159  0.00  0.00    +0.000 HD
BRANCH  22  25
ATOM     25  C   UNL     1       1.100   8.534  20.788  0.00  0.00    +0.000 A 
ATOM     26  C   UNL     1       0.653   8.789  22.090  0.00  0.00    +0.000 A 
ATOM     27  C   UNL     1       0.037  10.009  22.391  0.00  0.00    +0.000 A 
ATOM     28  C   UNL     1      -0.128  10.969  21.393  0.00  0.00    +0.000 A 
ATOM     29 BR   UNL     1      -0.930  12.628  21.814  0.00  0.00    +0.000 Br
ATOM     30  C   UNL     1       0.312  10.723  20.094  0.00  0.00    +0.000 A 
ATOM     31  C   UNL     1       0.931   9.507  19.793  0.00  0.00    +0.000 A 
ENDBRANCH  22  25
ENDBRANCH  20  21
ENDBRANCH  18  20
ENDBRANCH  17  18
ENDBRANCH   1  17
TORSDOF 7
ENDMDL
MODEL 4
REMARK VINA RESULT:      -7.8      1.637      2.170
REMARK  Name = 
REMARK  7 active torsions:
REMARK  status: ('A' for Active; 'I' for Inactive)
REMARK    1  A    between atoms: C_2  and  C_3
REMARK    2  A    between atoms: C_3  and  O_4
REMARK    3  A    between atoms: O_4  and  C_5
REMARK    4  A    between atoms: C_5  and  C_7
REMARK    5  A    between atoms: C_7  and  N_8
REMARK    6  A    between atoms: C_9  and  C_11
REMARK    7  A    between atoms: C_22  and  C_23
REMARK                            x       y       z     vdW  Elec       q    Type
REMARK                         _______ _______ _______ _____ _____    ______ ____
ROOT
ATOM      1  C   UNL     1       1.940   2.262  19.630  0.00  0.00    +0.000 C 
ENDROOT
BRANCH   1   3
ATOM      2  O   UNL     1       3.047   1.765  17.549  0.00  0.00    +0.000 OA
ATOM      3  C   UNL     1       3.039   2.440  18.578  0.00  0.00    +0.000 C 
ATOM      4  N   UNL     1       4.012   3.337  18.949  0.00  0.00    +0.000 N 
ATOM      5  C   UNL     1       5.049   3.698  18.137  0.00  0.00    +0.000 A 
ATOM      6  N   UNL     1       6.129   4.339  18.521  0.00  0.00    +0.000 NA
ATOM      7  N   UNL     1       6.869   4.575  17.384  0.00  0.00    +0.000 NA
ATOM      8  C   UNL     1       6.163   4.113  16.370  0.00  0.00    +0.000 A 
ATOM      9  O   UNL     1       4.996   3.508  16.783  0.00  0.00    +0.000 OA
ATOM     10  H   UNL     1       4.060   3.672  19.902  0.00  0.00    +0.000 HD
BRANCH   8  11
ATOM     11  C   UNL     1       6.400   4.266  14.937  0.00  0.00    +0.000 A 
ATOM     12  C   UNL     1       5.622   3.532  14.024  0.00  0.00    +0.000 A 
ATOM     13  C   UNL     1       5.891   3.566  12.653  0.00  0.00    +0.000 A 
ATOM     14  C   UNL     1       6.942   4.343  12.172  0.00  0.00    +0.000 A 
ATOM     15  C   UNL     1       7.708   5.096  13.059  0.00  0.00    +0.000 A 
ATOM     16  C   UNL     1       7.436   5.064  14.432  0.00  0.00    +0.000 A 
ENDBRANCH   8  11
ENDBRANCH   1   3
BRANCH   1  17
ATOM     17  O   UNL     1       1.326   3.498  20.001  0.00  0.00    +0.000 OA
BRANCH  17  18
ATOM     18  C   UNL     1       1.976   4.173  20.987  0.00  0.00    +0.000 C 
ATOM     19  O   UNL     1       2.217   3.727  22.100  0.00  0.00    +0.000 OA
BRANCH  18  20
ATOM     20  C   UNL     1       2.425   5.549  20.513  0.00  0.00    +0.000 C 
BRANCH  20  21
ATOM     21  N   UNL     1       1.596   6.607  21.057  0.00  0.00    +0.000 N 
ATOM     22  C   UNL     1       1.539   7.836  20.438  0.00  0.00    +0.000 C 
ATOM     23  O   UNL     1       2.142   8.088  19.402  0.00  0.00    +0.000 OA
ATOM     24  H   UNL     1       1.025   6.402  21.865  0.00  0.00    +0.000 HD
BRANCH  22  25
ATOM     25  C   UNL     1       0.683   8.874  21.075  0.00  0.00    +0.000 A 
ATOM     26  C   UNL     1       0.572   8.992  22.466  0.00  0.00    +0.000 A 
ATOM     27  C   UNL     1      -0.202  10.017  23.021  0.00  0.00    +0.000 A 
ATOM     28  C   UNL     1      -0.859  10.921  22.188  0.00  0.00    +0.000 A 
ATOM     29 BR   UNL     1      -1.875  12.324  22.946  0.00  0.00    +0.000 Br
ATOM     30  C   UNL     1      -0.756  10.810  20.803  0.00  0.00    +0.000 A 
ATOM     31  C   UNL     1       0.019   9.790  20.246  0.00  0.00    +0.000 A 
ENDBRANCH  22  25
ENDBRANCH  20  21
ENDBRANCH  18  20
ENDBRANCH  17  18
ENDBRANCH   1  17
TORSDOF 7
ENDMDL
MODEL 5
REMARK VINA RESULT:      -7.5      2.678      3.596
REMARK  Name = 
REMARK  7 active torsions:
REMARK  status: ('A' for Active; 'I' for Inactive)
REMARK    1  A    between atoms: C_2  and  C_3
REMARK    2  A    between atoms: C_3  and  O_4
REMARK    3  A    between atoms: O_4  and  C_5
REMARK    4  A    between atoms: C_5  and  C_7
REMARK    5  A    between atoms: C_7  and  N_8
REMARK    6  A    between atoms: C_9  and  C_11
REMARK    7  A    between atoms: C_22  and  C_23
REMARK                            x       y       z     vdW  Elec       q    Type
REMARK                         _______ _______ _______ _____ _____    ______ ____
ROOT
ATOM      1  C   UNL     1       2.522   5.944  19.748  0.00  0.00    +0.000 C 
ENDROOT
BRANCH   1   3
ATOM      2  O   UNL     1       2.907   4.714  17.712  0.00  0.00    +0.000 OA
ATOM      3  C   UNL     1       3.404   5.331  18.656  0.00  0.00    +0.000 C 
ATOM      4  N   UNL     1       4.749   5.470  18.895  0.00  0.00    +0.000 N 
ATOM      5  C   UNL     1       5.714   5.057  18.022  0.00  0.00    +0.000 A 
ATOM      6  N   UNL     1       6.991   4.930  18.303  0.00  0.00    +0.000 NA
ATOM      7  N   UNL     1       7.616   4.575  17.129  0.00  0.00    +0.000 NA
ATOM      8  C   UNL     1       6.686   4.565  16.193  0.00  0.00    +0.000 A 
ATOM      9  O   UNL     1       5.435   4.835  16.702  0.00  0.00    +0.000 OA
ATOM     10  H   UNL     1       5.076   5.778  19.802  0.00  0.00    +0.000 HD
BRANCH   8  11
ATOM     11  C   UNL     1       6.837   4.430  14.746  0.00  0.00    +0.000 A 
ATOM     12  C   UNL     1       7.756   5.248  14.066  0.00  0.00    +0.000 A 
ATOM     13  C   UNL     1       7.851   5.227  12.672  0.00  0.00    +0.000 A 
ATOM     14  C   UNL     1       7.026   4.382  11.934  0.00  0.00    +0.000 A 
ATOM     15  C   UNL     1       6.126   3.547  12.592  0.00  0.00    +0.000 A 
ATOM     16  C   UNL     1       6.035   3.565  13.989  0.00  0.00    +0.000 A 
ENDBRANCH   8  11
ENDBRANCH   1   3
BRANCH   1  17
ATOM     17  O   UNL     1       2.183   7.307  19.481  0.00  0.00    +0.000 OA
BRANCH  17  18
ATOM     18  C   UNL     1       1.544   7.936  20.505  0.00  0.00    +0.000 C 
ATOM     19  O   UNL     1       1.083   7.379  21.490  0.00  0.00    +0.000 OA
BRANCH  18  20
ATOM     20  C   UNL     1       1.523   9.446  20.300  0.00  0.00    +0.000 C 
BRANCH  20  21
ATOM     21  N   UNL     1       0.217   9.917  19.882  0.00  0.00    +0.000 N 
ATOM     22  C   UNL     1      -0.108   9.974  18.544  0.00  0.00    +0.000 C 
ATOM     23  O   UNL     1       0.654   9.607  17.658  0.00  0.00    +0.000 OA
ATOM     24  H   UNL     1      -0.460  10.150  20.594  0.00  0.00    +0.000 HD
BRANCH  22  25
ATOM     25  C   UNL     1      -1.460  10.493  18.199  0.00  0.00    +0.000 A 
ATOM     26  C   UNL     1      -2.161  10.043  17.073  0.00  0.00    +0.000 A 
ATOM     27  C   UNL     1      -3.451  10.520  16.817  0.00  0.00    +0.000 A 
ATOM     28  C   UNL     1      -4.038  11.440  17.685  0.00  0.00    +0.000 A 
ATOM     29 BR   UNL     1      -5.794  12.052  17.351  0.00  0.00    +0.000 Br
ATOM     30  C   UNL     1      -3.347  11.895  18.806  0.00  0.00    +0.000 A 
ATOM     31  C   UNL     1      -2.060  11.417  19.066  0.00  0.00    +0.000 A 
ENDBRANCH  22  25
ENDBRANCH  20  21
ENDBRANCH  18  20
ENDBRANCH  17  18
ENDBRANCH   1  17
TORSDOF 7
ENDMDL
MODEL 6
REMARK VINA RESULT:      -7.5      3.007      8.168
REMARK  Name = 
REMARK  7 active torsions:
REMARK  status: ('A' for Active; 'I' for Inactive)
REMARK    1  A    between atoms: C_2  and  C_3
REMARK    2  A    between atoms: C_3  and  O_4
REMARK    3  A    between atoms: O_4  and  C_5
REMARK    4  A    between atoms: C_5  and  C_7
REMARK    5  A    between atoms: C_7  and  N_8
REMARK    6  A    between atoms: C_9  and  C_11
REMARK    7  A    between atoms: C_22  and  C_23
REMARK                            x       y       z     vdW  Elec       q    Type
REMARK                         _______ _______ _______ _____ _____    ______ ____
ROOT
ATOM      1  C   UNL     1       2.112   4.866  20.475  0.00  0.00    +0.000 C 
ENDROOT
BRANCH   1   3
ATOM      2  O   UNL     1       2.245   6.887  19.171  0.00  0.00    +0.000 OA
ATOM      3  C   UNL     1       1.989   6.377  20.263  0.00  0.00    +0.000 C 
ATOM      4  N   UNL     1       1.660   7.067  21.405  0.00  0.00    +0.000 N 
ATOM      5  C   UNL     1       1.433   8.413  21.430  0.00  0.00    +0.000 A 
ATOM      6  N   UNL     1       1.371   9.155  22.512  0.00  0.00    +0.000 NA
ATOM      7  N   UNL     1       1.044  10.426  22.098  0.00  0.00    +0.000 NA
ATOM      8  C   UNL     1       0.871  10.365  20.791  0.00  0.00    +0.000 A 
ATOM      9  O   UNL     1       1.134   9.109  20.290  0.00  0.00    +0.000 OA
ATOM     10  H   UNL     1       1.697   6.608  22.305  0.00  0.00    +0.000 HD
BRANCH   8  11
ATOM     11  C   UNL     1       0.344  11.381  19.883  0.00  0.00    +0.000 A 
ATOM     12  C   UNL     1      -0.858  11.139  19.195  0.00  0.00    +0.000 A 
ATOM     13  C   UNL     1      -1.337  12.037  18.236  0.00  0.00    +0.000 A 
ATOM     14  C   UNL     1      -0.619  13.196  17.954  0.00  0.00    +0.000 A 
ATOM     15  C   UNL     1       0.562  13.464  18.642  0.00  0.00    +0.000 A 
ATOM     16  C   UNL     1       1.039  12.567  19.605  0.00  0.00    +0.000 A 
ENDBRANCH   8  11
ENDBRANCH   1   3
BRANCH   1  17
ATOM     17  O   UNL     1       1.485   4.109  19.437  0.00  0.00    +0.000 OA
BRANCH  17  18
ATOM     18  C   UNL     1       1.952   2.838  19.310  0.00  0.00    +0.000 C 
ATOM     19  O   UNL     1       1.265   1.863  19.042  0.00  0.00    +0.000 OA
BRANCH  18  20
ATOM     20  C   UNL     1       3.464   2.783  19.486  0.00  0.00    +0.000 C 
BRANCH  20  21
ATOM     21  N   UNL     1       4.163   3.031  18.240  0.00  0.00    +0.000 N 
ATOM     22  C   UNL     1       4.993   4.123  18.111  0.00  0.00    +0.000 C 
ATOM     23  O   UNL     1       5.208   4.907  19.028  0.00  0.00    +0.000 OA
ATOM     24  H   UNL     1       4.068   2.357  17.493  0.00  0.00    +0.000 HD
BRANCH  22  25
ATOM     25  C   UNL     1       5.653   4.319  16.792  0.00  0.00    +0.000 A 
ATOM     26  C   UNL     1       4.991   4.056  15.586  0.00  0.00    +0.000 A 
ATOM     27  C   UNL     1       5.633   4.306  14.368  0.00  0.00    +0.000 A 
ATOM     28  C   UNL     1       6.930   4.817  14.357  0.00  0.00    +0.000 A 
ATOM     29 BR   UNL     1       7.777   5.184  12.708  0.00  0.00    +0.000 Br
ATOM     30  C   UNL     1       7.597   5.079  15.552  0.00  0.00    +0.000 A 
ATOM     31  C   UNL     1       6.957   4.835  16.769  0.00  0.00    +0.000 A 
ENDBRANCH  22  25
ENDBRANCH  20  21
ENDBRANCH  18  20
ENDBRANCH  17  18
ENDBRANCH   1  17
TORSDOF 7
ENDMDL
MODEL 7
REMARK VINA RESULT:      -7.4      3.400      7.725
REMARK  Name = 
REMARK  7 active torsions:
REMARK  status: ('A' for Active; 'I' for Inactive)
REMARK    1  A    between atoms: C_2  and  C_3
REMARK    2  A    between atoms: C_3  and  O_4
REMARK    3  A    between atoms: O_4  and  C_5
REMARK    4  A    between atoms: C_5  and  C_7
REMARK    5  A    between atoms: C_7  and  N_8
REMARK    6  A    between atoms: C_9  and  C_11
REMARK    7  A    between atoms: C_22  and  C_23
REMARK                            x       y       z     vdW  Elec       q    Type
REMARK                         _______ _______ _______ _____ _____    ______ ____
ROOT
ATOM      1  C   UNL     1       1.943   4.766  19.831  0.00  0.00    +0.000 C 
ENDROOT
BRANCH   1   3
ATOM      2  O   UNL     1       2.243   6.909  18.771  0.00  0.00    +0.000 OA
ATOM      3  C   UNL     1       1.908   6.296  19.786  0.00  0.00    +0.000 C 
ATOM      4  N   UNL     1       1.558   6.873  20.983  0.00  0.00    +0.000 N 
ATOM      5  C   UNL     1       1.399   8.218  21.151  0.00  0.00    +0.000 A 
ATOM      6  N   UNL     1       1.322   8.837  22.307  0.00  0.00    +0.000 NA
ATOM      7  N   UNL     1       1.082  10.163  22.026  0.00  0.00    +0.000 NA
ATOM      8  C   UNL     1       0.971  10.257  20.715  0.00  0.00    +0.000 A 
ATOM      9  O   UNL     1       1.194   9.052  20.086  0.00  0.00    +0.000 OA
ATOM     10  H   UNL     1       1.527   6.315  21.826  0.00  0.00    +0.000 HD
BRANCH   8  11
ATOM     11  C   UNL     1       0.543  11.397  19.906  0.00  0.00    +0.000 A 
ATOM     12  C   UNL     1      -0.806  11.509  19.527  0.00  0.00    +0.000 A 
ATOM     13  C   UNL     1      -1.234  12.522  18.664  0.00  0.00    +0.000 A 
ATOM     14  C   UNL     1      -0.314  13.443  18.167  0.00  0.00    +0.000 A 
ATOM     15  C   UNL     1       1.022  13.361  18.550  0.00  0.00    +0.000 A 
ATOM     16  C   UNL     1       1.449  12.349  19.418  0.00  0.00    +0.000 A 
ENDBRANCH   8  11
ENDBRANCH   1   3
BRANCH   1  17
ATOM     17  O   UNL     1       1.794   4.173  18.539  0.00  0.00    +0.000 OA
BRANCH  17  18
ATOM     18  C   UNL     1       2.009   2.830  18.511  0.00  0.00    +0.000 C 
ATOM     19  O   UNL     1       1.234   1.987  18.937  0.00  0.00    +0.000 OA
BRANCH  18  20
ATOM     20  C   UNL     1       3.326   2.495  17.820  0.00  0.00    +0.000 C 
BRANCH  20  21
ATOM     21  N   UNL     1       4.148   3.672  17.623  0.00  0.00    +0.000 N 
ATOM     22  C   UNL     1       5.144   3.986  18.522  0.00  0.00    +0.000 C 
ATOM     23  O   UNL     1       5.406   3.288  19.495  0.00  0.00    +0.000 OA
ATOM     24  H   UNL     1       4.008   4.222  16.787  0.00  0.00    +0.000 HD
BRANCH  22  25
ATOM     25  C   UNL     1       5.926   5.225  18.260  0.00  0.00    +0.000 A 
ATOM     26  C   UNL     1       5.445   6.241  17.424  0.00  0.00    +0.000 A 
ATOM     27  C   UNL     1       6.191   7.412  17.248  0.00  0.00    +0.000 A 
ATOM     28  C   UNL     1       7.410   7.566  17.908  0.00  0.00    +0.000 A 
ATOM     29 BR   UNL     1       8.394   9.165  17.693  0.00  0.00    +0.000 Br
ATOM     30  C   UNL     1       7.896   6.559  18.740  0.00  0.00    +0.000 A 
ATOM     31  C   UNL     1       7.152   5.391  18.920  0.00  0.00    +0.000 A 
ENDBRANCH  22  25
ENDBRANCH  20  21
ENDBRANCH  18  20
ENDBRANCH  17  18
ENDBRANCH   1  17
TORSDOF 7
ENDMDL
MODEL 8
REMARK VINA RESULT:      -7.3      3.403      8.855
REMARK  Name = 
REMARK  7 active torsions:
REMARK  status: ('A' for Active; 'I' for Inactive)
REMARK    1  A    between atoms: C_2  and  C_3
REMARK    2  A    between atoms: C_3  and  O_4
REMARK    3  A    between atoms: O_4  and  C_5
REMARK    4  A    between atoms: C_5  and  C_7
REMARK    5  A    between atoms: C_7  and  N_8
REMARK    6  A    between atoms: C_9  and  C_11
REMARK    7  A    between atoms: C_22  and  C_23
REMARK                            x       y       z     vdW  Elec       q    Type
REMARK                         _______ _______ _______ _____ _____    ______ ____
ROOT
ATOM      1  C   UNL     1       4.520   4.231  19.616  0.00  0.00    +0.000 C 
ENDROOT
BRANCH   1   3
ATOM      2  O   UNL     1       2.623   5.123  20.804  0.00  0.00    +0.000 OA
ATOM      3  C   UNL     1       3.418   5.263  19.873  0.00  0.00    +0.000 C 
ATOM      4  N   UNL     1       3.373   6.263  18.932  0.00  0.00    +0.000 N 
ATOM      5  C   UNL     1       2.514   7.322  19.002  0.00  0.00    +0.000 A 
ATOM      6  N   UNL     1       2.250   8.155  18.021  0.00  0.00    +0.000 NA
ATOM      7  N   UNL     1       1.407   9.113  18.537  0.00  0.00    +0.000 NA
ATOM      8  C   UNL     1       1.256   8.834  19.817  0.00  0.00    +0.000 A 
ATOM      9  O   UNL     1       1.914   7.679  20.179  0.00  0.00    +0.000 OA
ATOM     10  H   UNL     1       3.903   6.179  18.075  0.00  0.00    +0.000 HD
BRANCH   8  11
ATOM     11  C   UNL     1       0.612   9.626  20.863  0.00  0.00    +0.000 A 
ATOM     12  C   UNL     1       0.117   8.984  22.011  0.00  0.00    +0.000 A 
ATOM     13  C   UNL     1      -0.602   9.689  22.982  0.00  0.00    +0.000 A 
ATOM     14  C   UNL     1      -0.834  11.052  22.817  0.00  0.00    +0.000 A 
ATOM     15  C   UNL     1      -0.331  11.709  21.698  0.00  0.00    +0.000 A 
ATOM     16  C   UNL     1       0.393  11.004  20.729  0.00  0.00    +0.000 A 
ENDBRANCH   8  11
ENDBRANCH   1   3
BRANCH   1  17
ATOM     17  O   UNL     1       5.389   4.607  18.545  0.00  0.00    +0.000 OA
BRANCH  17  18
ATOM     18  C   UNL     1       6.460   5.353  18.926  0.00  0.00    +0.000 C 
ATOM     19  O   UNL     1       6.982   5.316  20.031  0.00  0.00    +0.000 OA
BRANCH  18  20
ATOM     20  C   UNL     1       6.976   6.209  17.776  0.00  0.00    +0.000 C 
BRANCH  20  21
ATOM     21  N   UNL     1       7.075   5.455  16.542  0.00  0.00    +0.000 N 
ATOM     22  C   UNL     1       6.232   5.732  15.487  0.00  0.00    +0.000 C 
ATOM     23  O   UNL     1       5.398   6.629  15.520  0.00  0.00    +0.000 OA
ATOM     24  H   UNL     1       7.807   4.765  16.458  0.00  0.00    +0.000 HD
BRANCH  22  25
ATOM     25  C   UNL     1       6.382   4.896  14.265  0.00  0.00    +0.000 A 
ATOM     26  C   UNL     1       7.489   5.019  13.415  0.00  0.00    +0.000 A 
ATOM     27  C   UNL     1       7.615   4.174  12.306  0.00  0.00    +0.000 A 
ATOM     28  C   UNL     1       6.640   3.210  12.052  0.00  0.00    +0.000 A 
ATOM     29 BR   UNL     1       6.835   2.050  10.572  0.00  0.00    +0.000 Br
ATOM     30  C   UNL     1       5.535   3.083  12.891  0.00  0.00    +0.000 A 
ATOM     31  C   UNL     1       5.409   3.922  14.001  0.00  0.00    +0.000 A 
ENDBRANCH  22  25
ENDBRANCH  20  21
ENDBRANCH  18  20
ENDBRANCH  17  18
ENDBRANCH   1  17
TORSDOF 7
ENDMDL
MODEL 9
REMARK VINA RESULT:      -7.2      4.914      7.564
REMARK  Name = 
REMARK  7 active torsions:
REMARK  status: ('A' for Active; 'I' for Inactive)
REMARK    1  A    between atoms: C_2  and  C_3
REMARK    2  A    between atoms: C_3  and  O_4
REMARK    3  A    between atoms: O_4  and  C_5
REMARK    4  A    between atoms: C_5  and  C_7
REMARK    5  A    between atoms: C_7  and  N_8
REMARK    6  A    between atoms: C_9  and  C_11
REMARK    7  A    between atoms: C_22  and  C_23
REMARK                            x       y       z     vdW  Elec       q    Type
REMARK                         _______ _______ _______ _____ _____    ______ ____
ROOT
ATOM      1  C   UNL     1      -0.472  10.482  22.780  0.00  0.00    +0.000 C 
ENDROOT
BRANCH   1   3
ATOM      2  O   UNL     1       1.361   9.002  22.278  0.00  0.00    +0.000 OA
ATOM      3  C   UNL     1       0.513   9.781  21.840  0.00  0.00    +0.000 C 
ATOM      4  N   UNL     1       0.397  10.175  20.529  0.00  0.00    +0.000 N 
ATOM      5  C   UNL     1       1.129   9.631  19.514  0.00  0.00    +0.000 A 
ATOM      6  N   UNL     1       1.248  10.134  18.306  0.00  0.00    +0.000 NA
ATOM      7  N   UNL     1       1.997   9.236  17.579  0.00  0.00    +0.000 NA
ATOM      8  C   UNL     1       2.239   8.214  18.377  0.00  0.00    +0.000 A 
ATOM      9  O   UNL     1       1.738   8.413  19.644  0.00  0.00    +0.000 OA
ATOM     10  H   UNL     1      -0.159  10.985  20.289  0.00  0.00    +0.000 HD
BRANCH   8  11
ATOM     11  C   UNL     1       2.834   6.918  18.058  0.00  0.00    +0.000 A 
ATOM     12  C   UNL     1       4.093   6.869  17.433  0.00  0.00    +0.000 A 
ATOM     13  C   UNL     1       4.646   5.656  17.013  0.00  0.00    +0.000 A 
ATOM     14  C   UNL     1       3.947   4.469  17.216  0.00  0.00    +0.000 A 
ATOM     15  C   UNL     1       2.710   4.495  17.854  0.00  0.00    +0.000 A 
ATOM     16  C   UNL     1       2.158   5.710  18.279  0.00  0.00    +0.000 A 
ENDBRANCH   8  11
ENDBRANCH   1   3
BRANCH   1  17
ATOM     17  O   UNL     1      -1.584  11.054  22.086  0.00  0.00    +0.000 OA
BRANCH  17  18
ATOM     18  C   UNL     1      -2.085  12.179  22.662  0.00  0.00    +0.000 C 
ATOM     19  O   UNL     1      -2.275  12.328  23.861  0.00  0.00    +0.000 OA
BRANCH  18  20
ATOM     20  C   UNL     1      -2.330  13.269  21.626  0.00  0.00    +0.000 C 
BRANCH  20  21
ATOM     21  N   UNL     1      -2.330  12.742  20.276  0.00  0.00    +0.000 N 
ATOM     22  C   UNL     1      -3.506  12.325  19.690  0.00  0.00    +0.000 C 
ATOM     23  O   UNL     1      -4.593  12.405  20.250  0.00  0.00    +0.000 OA
ATOM     24  H   UNL     1      -1.461  12.739  19.761  0.00  0.00    +0.000 HD
BRANCH  22  25
ATOM     25  C   UNL     1      -3.415  11.774  18.310  0.00  0.00    +0.000 A 
ATOM     26  C   UNL     1      -2.243  11.179  17.826  0.00  0.00    +0.000 A 
ATOM     27  C   UNL     1      -2.220  10.626  16.541  0.00  0.00    +0.000 A 
ATOM     28  C   UNL     1      -3.365  10.666  15.746  0.00  0.00    +0.000 A 
ATOM     29 BR   UNL     1      -3.337   9.886  14.025  0.00  0.00    +0.000 Br
ATOM     30  C   UNL     1      -4.535  11.257  16.219  0.00  0.00    +0.000 A 
ATOM     31  C   UNL     1      -4.561  11.807  17.503  0.00  0.00    +0.000 A 
ENDBRANCH  22  25
ENDBRANCH  20  21
ENDBRANCH  18  20
ENDBRANCH  17  18
ENDBRANCH   1  17
TORSDOF 7
ENDMDL
