MODEL 1
REMARK VINA RESULT:      -7.6      0.000      0.000
REMARK  Name = 
REMARK  8 active torsions:
REMARK  status: ('A' for Active; 'I' for Inactive)
REMARK    1  A    between atoms: C_1  and  C_2
REMARK    2  A    between atoms: C_2  and  O_3
REMARK    3  A    between atoms: O_3  and  C_4
REMARK    4  A    between atoms: C_4  and  C_6
REMARK    5  A    between atoms: C_11  and  N_12
REMARK    6  A    between atoms: N_12  and  S_13
REMARK    7  A    between atoms: S_13  and  C_16
REMARK    8  A    between atoms: C_24  and  C_25
REMARK                            x       y       z     vdW  Elec       q    Type
REMARK                         _______ _______ _______ _____ _____    ______ ____
ROOT
ATOM      1  C   UNL     1       1.681   7.902  20.176  0.00  0.00    +0.000 A 
ATOM      2  O   UNL     1       1.928   6.637  20.637  0.00  0.00    +0.000 OA
ATOM      3  C   UNL     1       2.559   5.956  19.649  0.00  0.00    +0.000 A 
ATOM      4  C   UNL     1       2.999   4.639  19.742  0.00  0.00    +0.000 A 
ATOM      5  C   UNL     1       3.635   4.120  18.611  0.00  0.00    +0.000 A 
ATOM      6  C   UNL     1       3.824   4.899  17.468  0.00  0.00    +0.000 A 
ATOM      7  C   UNL     1       3.385   6.228  17.412  0.00  0.00    +0.000 A 
ATOM      8  C   UNL     1       2.721   6.763  18.532  0.00  0.00    +0.000 A 
ATOM      9  C   UNL     1       2.135   8.025  18.868  0.00  0.00    +0.000 A 
ATOM     10  C   UNL     1       2.061   9.241  18.018  0.00  0.00    +0.000 C 
ENDROOT
BRANCH   1  11
ATOM     11  C   UNL     1       1.103   8.877  21.076  0.00  0.00    +0.000 C 
ATOM     12  O   UNL     1       1.534   9.154  22.189  0.00  0.00    +0.000 OA
BRANCH  11  13
ATOM     13  O   UNL     1      -0.058   9.361  20.550  0.00  0.00    +0.000 OA
BRANCH  13  15
ATOM     14  C   UNL     1      -1.217  11.186  19.535  0.00  0.00    +0.000 C 
ATOM     15  C   UNL     1      -0.222  10.782  20.608  0.00  0.00    +0.000 C 
ENDBRANCH  13  15
ENDBRANCH  11  13
ENDBRANCH   1  11
BRANCH   6  16
ATOM     16  N   UNL     1       4.482   4.317  16.359  0.00  0.00    +0.000 N 
ATOM     17  H   UNL     1       4.414   3.314  16.199  0.00  0.00    +0.000 HD
BRANCH  16  18
ATOM     18  S   UNL     1       5.796   5.091  15.655  0.00  0.00    +0.000 S 
ATOM     19  O   UNL     1       6.534   4.067  14.944  0.00  0.00    +0.000 OA
ATOM     20  O   UNL     1       5.342   6.290  14.984  0.00  0.00    +0.000 OA
BRANCH  18  21
ATOM     21  C   UNL     1       6.771   5.577  17.038  0.00  0.00    +0.000 A 
ATOM     22  C   UNL     1       7.105   6.909  17.270  0.00  0.00    +0.000 A 
ATOM     23  C   UNL     1       7.880   7.220  18.386  0.00  0.00    +0.000 A 
ATOM     24  C   UNL     1       8.295   6.183  19.210  0.00  0.00    +0.000 A 
ATOM     25  N   UNL     1       7.996   4.882  18.990  0.00  0.00    +0.000 NA
ATOM     26  C   UNL     1       7.251   4.603  17.895  0.00  0.00    +0.000 A 
ENDBRANCH  18  21
ENDBRANCH  16  18
ENDBRANCH   6  16
TORSDOF 6
ENDMDL
MODEL 2
REMARK VINA RESULT:      -7.6      2.570      3.834
REMARK  Name = 
REMARK  8 active torsions:
REMARK  status: ('A' for Active; 'I' for Inactive)
REMARK    1  A    between atoms: C_1  and  C_2
REMARK    2  A    between atoms: C_2  and  O_3
REMARK    3  A    between atoms: O_3  and  C_4
REMARK    4  A    between atoms: C_4  and  C_6
REMARK    5  A    between atoms: C_11  and  N_12
REMARK    6  A    between atoms: N_12  and  S_13
REMARK    7  A    between atoms: S_13  and  C_16
REMARK    8  A    between atoms: C_24  and  C_25
REMARK                            x       y       z     vdW  Elec       q    Type
REMARK                         _______ _______ _______ _____ _____    ______ ____
ROOT
ATOM      1  C   UNL     1       0.011  10.769  19.491  0.00  0.00    +0.000 A 
ATOM      2  O   UNL     1       0.731  10.429  18.377  0.00  0.00    +0.000 OA
ATOM      3  C   UNL     1       1.403   9.285  18.655  0.00  0.00    +0.000 A 
ATOM      4  C   UNL     1       2.229   8.607  17.763  0.00  0.00    +0.000 A 
ATOM      5  C   UNL     1       2.827   7.439  18.242  0.00  0.00    +0.000 A 
ATOM      6  C   UNL     1       2.584   6.984  19.540  0.00  0.00    +0.000 A 
ATOM      7  C   UNL     1       1.732   7.679  20.408  0.00  0.00    +0.000 A 
ATOM      8  C   UNL     1       1.139   8.872  19.953  0.00  0.00    +0.000 A 
ATOM      9  C   UNL     1       0.246   9.846  20.503  0.00  0.00    +0.000 A 
ATOM     10  C   UNL     1      -0.351   9.855  21.864  0.00  0.00    +0.000 C 
ENDROOT
BRANCH   1  11
ATOM     11  C   UNL     1      -0.884  11.904  19.430  0.00  0.00    +0.000 C 
ATOM     12  O   UNL     1      -0.558  13.071  19.618  0.00  0.00    +0.000 OA
BRANCH  11  13
ATOM     13  O   UNL     1      -2.164  11.475  19.244  0.00  0.00    +0.000 OA
BRANCH  13  15
ATOM     14  C   UNL     1      -2.997   9.938  17.616  0.00  0.00    +0.000 C 
ATOM     15  C   UNL     1      -2.595  11.378  17.882  0.00  0.00    +0.000 C 
ENDBRANCH  13  15
ENDBRANCH  11  13
ENDBRANCH   1  11
BRANCH   6  16
ATOM     16  N   UNL     1       3.214   5.789  19.962  0.00  0.00    +0.000 N 
ATOM     17  H   UNL     1       3.999   5.833  20.609  0.00  0.00    +0.000 HD
BRANCH  16  18
ATOM     18  S   UNL     1       3.102   4.399  19.027  0.00  0.00    +0.000 S 
ATOM     19  O   UNL     1       3.175   3.285  19.950  0.00  0.00    +0.000 OA
ATOM     20  O   UNL     1       1.999   4.534  18.101  0.00  0.00    +0.000 OA
BRANCH  18  21
ATOM     21  C   UNL     1       4.597   4.412  18.099  0.00  0.00    +0.000 A 
ATOM     22  C   UNL     1       4.607   4.224  16.718  0.00  0.00    +0.000 A 
ATOM     23  C   UNL     1       5.829   4.247  16.049  0.00  0.00    +0.000 A 
ATOM     24  C   UNL     1       6.985   4.444  16.791  0.00  0.00    +0.000 A 
ATOM     25  N   UNL     1       6.996   4.610  18.134  0.00  0.00    +0.000 NA
ATOM     26  C   UNL     1       5.799   4.573  18.765  0.00  0.00    +0.000 A 
ENDBRANCH  18  21
ENDBRANCH  16  18
ENDBRANCH   6  16
TORSDOF 6
ENDMDL
MODEL 3
REMARK VINA RESULT:      -7.5      2.399      3.493
REMARK  Name = 
REMARK  8 active torsions:
REMARK  status: ('A' for Active; 'I' for Inactive)
REMARK    1  A    between atoms: C_1  and  C_2
REMARK    2  A    between atoms: C_2  and  O_3
REMARK    3  A    between atoms: O_3  and  C_4
REMARK    4  A    between atoms: C_4  and  C_6
REMARK    5  A    between atoms: C_11  and  N_12
REMARK    6  A    between atoms: N_12  and  S_13
REMARK    7  A    between atoms: S_13  and  C_16
REMARK    8  A    between atoms: C_24  and  C_25
REMARK                            x       y       z     vdW  Elec       q    Type
REMARK                         _______ _______ _______ _____ _____    ______ ____
ROOT
ATOM      1  C   UNL     1       0.869  10.016  20.212  0.00  0.00    +0.000 A 
ATOM      2  O   UNL     1       1.448   9.985  18.972  0.00  0.00    +0.000 OA
ATOM      3  C   UNL     1       1.969   8.746  18.792  0.00  0.00    +0.000 A 
ATOM      4  C   UNL     1       2.621   8.312  17.642  0.00  0.00    +0.000 A 
ATOM      5  C   UNL     1       3.079   6.993  17.652  0.00  0.00    +0.000 A 
ATOM      6  C   UNL     1       2.870   6.166  18.758  0.00  0.00    +0.000 A 
ATOM      7  C   UNL     1       2.194   6.626  19.895  0.00  0.00    +0.000 A 
ATOM      8  C   UNL     1       1.745   7.960  19.913  0.00  0.00    +0.000 A 
ATOM      9  C   UNL     1       1.044   8.791  20.844  0.00  0.00    +0.000 A 
ATOM     10  C   UNL     1       0.556   8.418  22.198  0.00  0.00    +0.000 C 
ENDROOT
BRANCH   1  11
ATOM     11  C   UNL     1       0.144  11.201  20.619  0.00  0.00    +0.000 C 
ATOM     12  O   UNL     1      -1.027  11.440  20.347  0.00  0.00    +0.000 OA
BRANCH  11  13
ATOM     13  O   UNL     1       0.987  12.063  21.253  0.00  0.00    +0.000 OA
BRANCH  13  15
ATOM     14  C   UNL     1       2.373  13.409  19.848  0.00  0.00    +0.000 C 
ATOM     15  C   UNL     1       1.097  13.367  20.671  0.00  0.00    +0.000 C 
ENDBRANCH  13  15
ENDBRANCH  11  13
ENDBRANCH   1  11
BRANCH   6  16
ATOM     16  N   UNL     1       3.352   4.836  18.704  0.00  0.00    +0.000 N 
ATOM     17  H   UNL     1       2.709   4.059  18.843  0.00  0.00    +0.000 HD
BRANCH  16  18
ATOM     18  S   UNL     1       4.976   4.514  18.989  0.00  0.00    +0.000 S 
ATOM     19  O   UNL     1       5.504   5.677  19.670  0.00  0.00    +0.000 OA
ATOM     20  O   UNL     1       5.107   3.189  19.556  0.00  0.00    +0.000 OA
BRANCH  18  21
ATOM     21  C   UNL     1       5.675   4.487  17.374  0.00  0.00    +0.000 A 
ATOM     22  C   UNL     1       4.904   4.223  16.243  0.00  0.00    +0.000 A 
ATOM     23  C   UNL     1       5.525   4.218  14.996  0.00  0.00    +0.000 A 
ATOM     24  C   UNL     1       6.890   4.464  14.938  0.00  0.00    +0.000 A 
ATOM     25  N   UNL     1       7.657   4.704  16.026  0.00  0.00    +0.000 NA
ATOM     26  C   UNL     1       7.035   4.693  17.228  0.00  0.00    +0.000 A 
ENDBRANCH  18  21
ENDBRANCH  16  18
ENDBRANCH   6  16
TORSDOF 6
ENDMDL
MODEL 4
REMARK VINA RESULT:      -7.5      2.340      3.336
REMARK  Name = 
REMARK  8 active torsions:
REMARK  status: ('A' for Active; 'I' for Inactive)
REMARK    1  A    between atoms: C_1  and  C_2
REMARK    2  A    between atoms: C_2  and  O_3
REMARK    3  A    between atoms: O_3  and  C_4
REMARK    4  A    between atoms: C_4  and  C_6
REMARK    5  A    between atoms: C_11  and  N_12
REMARK    6  A    between atoms: N_12  and  S_13
REMARK    7  A    between atoms: S_13  and  C_16
REMARK    8  A    between atoms: C_24  and  C_25
REMARK                            x       y       z     vdW  Elec       q    Type
REMARK                         _______ _______ _______ _____ _____    ______ ____
ROOT
ATOM      1  C   UNL     1       0.886  10.023  20.204  0.00  0.00    +0.000 A 
ATOM      2  O   UNL     1       1.430   9.977  18.948  0.00  0.00    +0.000 OA
ATOM      3  C   UNL     1       1.964   8.743  18.776  0.00  0.00    +0.000 A 
ATOM      4  C   UNL     1       2.589   8.297  17.617  0.00  0.00    +0.000 A 
ATOM      5  C   UNL     1       3.068   6.985  17.638  0.00  0.00    +0.000 A 
ATOM      6  C   UNL     1       2.904   6.176  18.765  0.00  0.00    +0.000 A 
ATOM      7  C   UNL     1       2.253   6.648  19.912  0.00  0.00    +0.000 A 
ATOM      8  C   UNL     1       1.784   7.975  19.919  0.00  0.00    +0.000 A 
ATOM      9  C   UNL     1       1.098   8.813  20.854  0.00  0.00    +0.000 A 
ATOM     10  C   UNL     1       0.655   8.459  22.228  0.00  0.00    +0.000 C 
ENDROOT
BRANCH   1  11
ATOM     11  C   UNL     1       0.155  11.205  20.609  0.00  0.00    +0.000 C 
ATOM     12  O   UNL     1       0.592  12.094  21.331  0.00  0.00    +0.000 OA
BRANCH  11  13
ATOM     13  O   UNL     1      -1.130  11.129  20.162  0.00  0.00    +0.000 OA
BRANCH  13  15
ATOM     14  C   UNL     1      -1.564  11.994  17.977  0.00  0.00    +0.000 C 
ATOM     15  C   UNL     1      -1.617  12.282  19.468  0.00  0.00    +0.000 C 
ENDBRANCH  13  15
ENDBRANCH  11  13
ENDBRANCH   1  11
BRANCH   6  16
ATOM     16  N   UNL     1       3.405   4.853  18.722  0.00  0.00    +0.000 N 
ATOM     17  H   UNL     1       2.783   4.070  18.916  0.00  0.00    +0.000 HD
BRANCH  16  18
ATOM     18  S   UNL     1       5.046   4.564  18.929  0.00  0.00    +0.000 S 
ATOM     19  O   UNL     1       5.566   5.699  19.663  0.00  0.00    +0.000 OA
ATOM     20  O   UNL     1       5.236   3.211  19.406  0.00  0.00    +0.000 OA
BRANCH  18  21
ATOM     21  C   UNL     1       5.686   4.659  17.292  0.00  0.00    +0.000 A 
ATOM     22  C   UNL     1       5.033   4.068  16.212  0.00  0.00    +0.000 A 
ATOM     23  C   UNL     1       5.598   4.184  14.944  0.00  0.00    +0.000 A 
ATOM     24  C   UNL     1       6.795   4.875  14.815  0.00  0.00    +0.000 A 
ATOM     25  N   UNL     1       7.452   5.440  15.854  0.00  0.00    +0.000 NA
ATOM     26  C   UNL     1       6.890   5.305  17.078  0.00  0.00    +0.000 A 
ENDBRANCH  18  21
ENDBRANCH  16  18
ENDBRANCH   6  16
TORSDOF 6
ENDMDL
MODEL 5
REMARK VINA RESULT:      -7.5      2.426      3.439
REMARK  Name = 
REMARK  8 active torsions:
REMARK  status: ('A' for Active; 'I' for Inactive)
REMARK    1  A    between atoms: C_1  and  C_2
REMARK    2  A    between atoms: C_2  and  O_3
REMARK    3  A    between atoms: O_3  and  C_4
REMARK    4  A    between atoms: C_4  and  C_6
REMARK    5  A    between atoms: C_11  and  N_12
REMARK    6  A    between atoms: N_12  and  S_13
REMARK    7  A    between atoms: S_13  and  C_16
REMARK    8  A    between atoms: C_24  and  C_25
REMARK                            x       y       z     vdW  Elec       q    Type
REMARK                         _______ _______ _______ _____ _____    ______ ____
ROOT
ATOM      1  C   UNL     1       0.982  10.195  20.331  0.00  0.00    +0.000 A 
ATOM      2  O   UNL     1       1.411  10.119  19.033  0.00  0.00    +0.000 OA
ATOM      3  C   UNL     1       1.895   8.869  18.832  0.00  0.00    +0.000 A 
ATOM      4  C   UNL     1       2.403   8.392  17.628  0.00  0.00    +0.000 A 
ATOM      5  C   UNL     1       2.848   7.068  17.626  0.00  0.00    +0.000 A 
ATOM      6  C   UNL     1       2.763   6.277  18.774  0.00  0.00    +0.000 A 
ATOM      7  C   UNL     1       2.229   6.780  19.967  0.00  0.00    +0.000 A 
ATOM      8  C   UNL     1       1.797   8.120  19.996  0.00  0.00    +0.000 A 
ATOM      9  C   UNL     1       1.218   8.987  20.977  0.00  0.00    +0.000 A 
ATOM     10  C   UNL     1       0.890   8.661  22.389  0.00  0.00    +0.000 C 
ENDROOT
BRANCH   1  11
ATOM     11  C   UNL     1       0.321  11.400  20.783  0.00  0.00    +0.000 C 
ATOM     12  O   UNL     1       0.888  12.406  21.193  0.00  0.00    +0.000 OA
BRANCH  11  13
ATOM     13  O   UNL     1      -1.029  11.212  20.790  0.00  0.00    +0.000 OA
BRANCH  13  15
ATOM     14  C   UNL     1      -1.587  11.334  23.110  0.00  0.00    +0.000 C 
ATOM     15  C   UNL     1      -1.760  11.985  21.748  0.00  0.00    +0.000 C 
ENDBRANCH  13  15
ENDBRANCH  11  13
ENDBRANCH   1  11
BRANCH   6  16
ATOM     16  N   UNL     1       3.223   4.941  18.705  0.00  0.00    +0.000 N 
ATOM     17  H   UNL     1       2.562   4.172  18.803  0.00  0.00    +0.000 HD
BRANCH  16  18
ATOM     18  S   UNL     1       4.829   4.582  19.039  0.00  0.00    +0.000 S 
ATOM     19  O   UNL     1       5.363   5.733  19.737  0.00  0.00    +0.000 OA
ATOM     20  O   UNL     1       4.914   3.254  19.607  0.00  0.00    +0.000 OA
BRANCH  18  21
ATOM     21  C   UNL     1       5.576   4.541  17.445  0.00  0.00    +0.000 A 
ATOM     22  C   UNL     1       4.836   4.288  16.293  0.00  0.00    +0.000 A 
ATOM     23  C   UNL     1       5.495   4.270  15.065  0.00  0.00    +0.000 A 
ATOM     24  C   UNL     1       6.864   4.496  15.048  0.00  0.00    +0.000 A 
ATOM     25  N   UNL     1       7.602   4.726  16.158  0.00  0.00    +0.000 NA
ATOM     26  C   UNL     1       6.943   4.727  17.341  0.00  0.00    +0.000 A 
ENDBRANCH  18  21
ENDBRANCH  16  18
ENDBRANCH   6  16
TORSDOF 6
ENDMDL
MODEL 6
REMARK VINA RESULT:      -7.4      2.182      3.012
REMARK  Name = 
REMARK  8 active torsions:
REMARK  status: ('A' for Active; 'I' for Inactive)
REMARK    1  A    between atoms: C_1  and  C_2
REMARK    2  A    between atoms: C_2  and  O_3
REMARK    3  A    between atoms: O_3  and  C_4
REMARK    4  A    between atoms: C_4  and  C_6
REMARK    5  A    between atoms: C_11  and  N_12
REMARK    6  A    between atoms: N_12  and  S_13
REMARK    7  A    between atoms: S_13  and  C_16
REMARK    8  A    between atoms: C_24  and  C_25
REMARK                            x       y       z     vdW  Elec       q    Type
REMARK                         _______ _______ _______ _____ _____    ______ ____
ROOT
ATOM      1  C   UNL     1       0.963   9.834  20.094  0.00  0.00    +0.000 A 
ATOM      2  O   UNL     1       0.837   8.791  20.972  0.00  0.00    +0.000 OA
ATOM      3  C   UNL     1       1.442   7.712  20.418  0.00  0.00    +0.000 A 
ATOM      4  C   UNL     1       1.547   6.461  21.017  0.00  0.00    +0.000 A 
ATOM      5  C   UNL     1       2.216   5.479  20.282  0.00  0.00    +0.000 A 
ATOM      6  C   UNL     1       2.758   5.762  19.026  0.00  0.00    +0.000 A 
ATOM      7  C   UNL     1       2.651   7.038  18.457  0.00  0.00    +0.000 A 
ATOM      8  C   UNL     1       1.959   8.034  19.172  0.00  0.00    +0.000 A 
ATOM      9  C   UNL     1       1.634   9.411  18.953  0.00  0.00    +0.000 A 
ATOM     10  C   UNL     1       1.977  10.243  17.771  0.00  0.00    +0.000 C 
ENDROOT
BRANCH   1  11
ATOM     11  C   UNL     1       0.490  11.144  20.487  0.00  0.00    +0.000 C 
ATOM     12  O   UNL     1       1.188  12.146  20.592  0.00  0.00    +0.000 OA
BRANCH  11  13
ATOM     13  O   UNL     1      -0.827  11.076  20.832  0.00  0.00    +0.000 OA
BRANCH  13  15
ATOM     14  C   UNL     1      -1.113  10.618  23.160  0.00  0.00    +0.000 C 
ATOM     15  C   UNL     1      -1.176  11.685  22.080  0.00  0.00    +0.000 C 
ENDBRANCH  13  15
ENDBRANCH  11  13
ENDBRANCH   1  11
BRANCH   6  16
ATOM     16  N   UNL     1       3.431   4.727  18.335  0.00  0.00    +0.000 N 
ATOM     17  H   UNL     1       2.899   3.959  17.931  0.00  0.00    +0.000 HD
BRANCH  16  18
ATOM     18  S   UNL     1       5.053   4.421  18.645  0.00  0.00    +0.000 S 
ATOM     19  O   UNL     1       5.527   5.529  19.448  0.00  0.00    +0.000 OA
ATOM     20  O   UNL     1       5.204   3.052  19.091  0.00  0.00    +0.000 OA
BRANCH  18  21
ATOM     21  C   UNL     1       5.803   4.562  17.059  0.00  0.00    +0.000 A 
ATOM     22  C   UNL     1       5.402   3.773  15.983  0.00  0.00    +0.000 A 
ATOM     23  C   UNL     1       6.042   3.939  14.756  0.00  0.00    +0.000 A 
ATOM     24  C   UNL     1       7.060   4.878  14.665  0.00  0.00    +0.000 A 
ATOM     25  N   UNL     1       7.475   5.640  15.703  0.00  0.00    +0.000 NA
ATOM     26  C   UNL     1       6.848   5.453  16.888  0.00  0.00    +0.000 A 
ENDBRANCH  18  21
ENDBRANCH  16  18
ENDBRANCH   6  16
TORSDOF 6
ENDMDL
MODEL 7
REMARK VINA RESULT:      -7.4      2.177      2.978
REMARK  Name = 
REMARK  8 active torsions:
REMARK  status: ('A' for Active; 'I' for Inactive)
REMARK    1  A    between atoms: C_1  and  C_2
REMARK    2  A    between atoms: C_2  and  O_3
REMARK    3  A    between atoms: O_3  and  C_4
REMARK    4  A    between atoms: C_4  and  C_6
REMARK    5  A    between atoms: C_11  and  N_12
REMARK    6  A    between atoms: N_12  and  S_13
REMARK    7  A    between atoms: S_13  and  C_16
REMARK    8  A    between atoms: C_24  and  C_25
REMARK                            x       y       z     vdW  Elec       q    Type
REMARK                         _______ _______ _______ _____ _____    ______ ____
ROOT
ATOM      1  C   UNL     1       0.966   9.852  20.111  0.00  0.00    +0.000 A 
ATOM      2  O   UNL     1       0.777   8.832  21.005  0.00  0.00    +0.000 OA
ATOM      3  C   UNL     1       1.360   7.722  20.492  0.00  0.00    +0.000 A 
ATOM      4  C   UNL     1       1.403   6.480  21.118  0.00  0.00    +0.000 A 
ATOM      5  C   UNL     1       2.060   5.461  20.424  0.00  0.00    +0.000 A 
ATOM      6  C   UNL     1       2.650   5.699  19.181  0.00  0.00    +0.000 A 
ATOM      7  C   UNL     1       2.606   6.966  18.584  0.00  0.00    +0.000 A 
ATOM      8  C   UNL     1       1.927   8.000  19.256  0.00  0.00    +0.000 A 
ATOM      9  C   UNL     1       1.657   9.382  19.000  0.00  0.00    +0.000 A 
ATOM     10  C   UNL     1       2.066  10.177  17.813  0.00  0.00    +0.000 C 
ENDROOT
BRANCH   1  11
ATOM     11  C   UNL     1       0.527  11.185  20.463  0.00  0.00    +0.000 C 
ATOM     12  O   UNL     1       0.710  11.727  21.547  0.00  0.00    +0.000 OA
BRANCH  11  13
ATOM     13  O   UNL     1      -0.218  11.709  19.449  0.00  0.00    +0.000 OA
BRANCH  13  15
ATOM     14  C   UNL     1      -1.953  11.394  17.837  0.00  0.00    +0.000 C 
ATOM     15  C   UNL     1      -1.515  11.131  19.268  0.00  0.00    +0.000 C 
ENDBRANCH  13  15
ENDBRANCH  11  13
ENDBRANCH   1  11
BRANCH   6  16
ATOM     16  N   UNL     1       3.308   4.627  18.532  0.00  0.00    +0.000 N 
ATOM     17  H   UNL     1       2.764   3.849  18.164  0.00  0.00    +0.000 HD
BRANCH  16  18
ATOM     18  S   UNL     1       4.928   4.315  18.848  0.00  0.00    +0.000 S 
ATOM     19  O   UNL     1       5.413   5.441  19.619  0.00  0.00    +0.000 OA
ATOM     20  O   UNL     1       5.067   2.959  19.332  0.00  0.00    +0.000 OA
BRANCH  18  21
ATOM     21  C   UNL     1       5.676   4.405  17.257  0.00  0.00    +0.000 A 
ATOM     22  C   UNL     1       5.003   4.006  16.104  0.00  0.00    +0.000 A 
ATOM     23  C   UNL     1       5.659   4.105  14.879  0.00  0.00    +0.000 A 
ATOM     24  C   UNL     1       6.961   4.587  14.864  0.00  0.00    +0.000 A 
ATOM     25  N   UNL     1       7.636   4.962  15.975  0.00  0.00    +0.000 NA
ATOM     26  C   UNL     1       6.983   4.847  17.155  0.00  0.00    +0.000 A 
ENDBRANCH  18  21
ENDBRANCH  16  18
ENDBRANCH   6  16
TORSDOF 6
ENDMDL
MODEL 8
REMARK VINA RESULT:      -7.1      2.523      3.491
REMARK  Name = 
REMARK  8 active torsions:
REMARK  status: ('A' for Active; 'I' for Inactive)
REMARK    1  A    between atoms: C_1  and  C_2
REMARK    2  A    between atoms: C_2  and  O_3
REMARK    3  A    between atoms: O_3  and  C_4
REMARK    4  A    between atoms: C_4  and  C_6
REMARK    5  A    between atoms: C_11  and  N_12
REMARK    6  A    between atoms: N_12  and  S_13
REMARK    7  A    between atoms: S_13  and  C_16
REMARK    8  A    between atoms: C_24  and  C_25
REMARK                            x       y       z     vdW  Elec       q    Type
REMARK                         _______ _______ _______ _____ _____    ______ ____
ROOT
ATOM      1  C   UNL     1       0.511  10.027  19.195  0.00  0.00    +0.000 A 
ATOM      2  O   UNL     1       1.297   9.783  18.101  0.00  0.00    +0.000 OA
ATOM      3  C   UNL     1       2.011   8.659  18.350  0.00  0.00    +0.000 A 
ATOM      4  C   UNL     1       2.910   8.071  17.465  0.00  0.00    +0.000 A 
ATOM      5  C   UNL     1       3.543   6.907  17.909  0.00  0.00    +0.000 A 
ATOM      6  C   UNL     1       3.262   6.370  19.168  0.00  0.00    +0.000 A 
ATOM      7  C   UNL     1       2.338   6.975  20.029  0.00  0.00    +0.000 A 
ATOM      8  C   UNL     1       1.708   8.162  19.609  0.00  0.00    +0.000 A 
ATOM      9  C   UNL     1       0.744   9.060  20.167  0.00  0.00    +0.000 A 
ATOM     10  C   UNL     1       0.084   8.966  21.495  0.00  0.00    +0.000 C 
ENDROOT
BRANCH   1  11
ATOM     11  C   UNL     1      -0.436  11.121  19.151  0.00  0.00    +0.000 C 
ATOM     12  O   UNL     1      -1.654  11.004  19.215  0.00  0.00    +0.000 OA
BRANCH  11  13
ATOM     13  O   UNL     1       0.222  12.291  18.916  0.00  0.00    +0.000 OA
BRANCH  13  15
ATOM     14  C   UNL     1      -0.026  14.666  18.833  0.00  0.00    +0.000 C 
ATOM     15  C   UNL     1      -0.560  13.336  18.328  0.00  0.00    +0.000 C 
ENDBRANCH  13  15
ENDBRANCH  11  13
ENDBRANCH   1  11
BRANCH   6  16
ATOM     16  N   UNL     1       3.930   5.184  19.556  0.00  0.00    +0.000 N 
ATOM     17  H   UNL     1       4.701   5.232  20.220  0.00  0.00    +0.000 HD
BRANCH  16  18
ATOM     18  S   UNL     1       3.891   3.829  18.565  0.00  0.00    +0.000 S 
ATOM     19  O   UNL     1       4.356   2.723  19.376  0.00  0.00    +0.000 OA
ATOM     20  O   UNL     1       2.617   3.774  17.881  0.00  0.00    +0.000 OA
BRANCH  18  21
ATOM     21  C   UNL     1       5.137   4.163  17.368  0.00  0.00    +0.000 A 
ATOM     22  C   UNL     1       4.888   4.069  16.001  0.00  0.00    +0.000 A 
ATOM     23  C   UNL     1       5.923   4.348  15.111  0.00  0.00    +0.000 A 
ATOM     24  C   UNL     1       7.163   4.698  15.630  0.00  0.00    +0.000 A 
ATOM     25  N   UNL     1       7.428   4.777  16.954  0.00  0.00    +0.000 NA
ATOM     26  C   UNL     1       6.411   4.491  17.800  0.00  0.00    +0.000 A 
ENDBRANCH  18  21
ENDBRANCH  16  18
ENDBRANCH   6  16
TORSDOF 6
ENDMDL
MODEL 9
REMARK VINA RESULT:      -7.1      0.706      1.028
REMARK  Name = 
REMARK  8 active torsions:
REMARK  status: ('A' for Active; 'I' for Inactive)
REMARK    1  A    between atoms: C_1  and  C_2
REMARK    2  A    between atoms: C_2  and  O_3
REMARK    3  A    between atoms: O_3  and  C_4
REMARK    4  A    between atoms: C_4  and  C_6
REMARK    5  A    between atoms: C_11  and  N_12
REMARK    6  A    between atoms: N_12  and  S_13
REMARK    7  A    between atoms: S_13  and  C_16
REMARK    8  A    between atoms: C_24  and  C_25
REMARK                            x       y       z     vdW  Elec       q    Type
REMARK                         _______ _______ _______ _____ _____    ______ ____
ROOT
ATOM      1  C   UNL     1       1.655   7.951  20.084  0.00  0.00    +0.000 A 
ATOM      2  O   UNL     1       1.860   6.685  20.562  0.00  0.00    +0.000 OA
ATOM      3  C   UNL     1       2.536   5.991  19.614  0.00  0.00    +0.000 A 
ATOM      4  C   UNL     1       2.953   4.670  19.736  0.00  0.00    +0.000 A 
ATOM      5  C   UNL     1       3.644   4.137  18.645  0.00  0.00    +0.000 A 
ATOM      6  C   UNL     1       3.907   4.909  17.512  0.00  0.00    +0.000 A 
ATOM      7  C   UNL     1       3.490   6.244  17.426  0.00  0.00    +0.000 A 
ATOM      8  C   UNL     1       2.771   6.791  18.505  0.00  0.00    +0.000 A 
ATOM      9  C   UNL     1       2.184   8.062  18.803  0.00  0.00    +0.000 A 
ATOM     10  C   UNL     1       2.173   9.276  17.945  0.00  0.00    +0.000 C 
ENDROOT
BRANCH   1  11
ATOM     11  C   UNL     1       1.040   8.937  20.947  0.00  0.00    +0.000 C 
ATOM     12  O   UNL     1       1.403   9.203  22.087  0.00  0.00    +0.000 OA
BRANCH  11  13
ATOM     13  O   UNL     1      -0.071   9.448  20.346  0.00  0.00    +0.000 OA
BRANCH  13  15
ATOM     14  C   UNL     1      -0.164  11.726  19.629  0.00  0.00    +0.000 C 
ATOM     15  C   UNL     1      -0.457  10.761  20.766  0.00  0.00    +0.000 C 
ENDBRANCH  13  15
ENDBRANCH  11  13
ENDBRANCH   1  11
BRANCH   6  16
ATOM     16  N   UNL     1       4.619   4.314  16.443  0.00  0.00    +0.000 N 
ATOM     17  H   UNL     1       4.665   3.299  16.369  0.00  0.00    +0.000 HD
BRANCH  16  18
ATOM     18  S   UNL     1       5.830   5.169  15.655  0.00  0.00    +0.000 S 
ATOM     19  O   UNL     1       6.637   4.183  14.966  0.00  0.00    +0.000 OA
ATOM     20  O   UNL     1       5.243   6.285  14.945  0.00  0.00    +0.000 OA
BRANCH  18  21
ATOM     21  C   UNL     1       6.799   5.813  16.976  0.00  0.00    +0.000 A 
ATOM     22  C   UNL     1       7.241   5.008  18.023  0.00  0.00    +0.000 A 
ATOM     23  C   UNL     1       8.004   5.586  19.036  0.00  0.00    +0.000 A 
ATOM     24  C   UNL     1       8.280   6.944  18.959  0.00  0.00    +0.000 A 
ATOM     25  N   UNL     1       7.845   7.745  17.960  0.00  0.00    +0.000 NA
ATOM     26  C   UNL     1       7.096   7.164  16.993  0.00  0.00    +0.000 A 
ENDBRANCH  18  21
ENDBRANCH  16  18
ENDBRANCH   6  16
TORSDOF 6
ENDMDL
