MODEL 1
REMARK VINA RESULT:      -6.3      0.000      0.000
REMARK  Name = 
REMARK  3 active torsions:
REMARK  status: ('A' for Active; 'I' for Inactive)
REMARK    1  A    between atoms: C_1  and  O_2
REMARK    2  A    between atoms: O_2  and  C_3
REMARK    3  A    between atoms: C_7  and  C_8
REMARK                            x       y       z     vdW  Elec       q    Type
REMARK                         _______ _______ _______ _____ _____    ______ ____
ROOT
ATOM      1  C   UNL     1       2.132   4.079  19.858  0.00  0.00    +0.000 A 
ATOM      2  C   UNL     1       1.563   3.558  18.696  0.00  0.00    +0.000 A 
ATOM      3  C   UNL     1       2.235   3.648  17.481  0.00  0.00    +0.000 A 
ATOM      4  C   UNL     1       3.489   4.257  17.423  0.00  0.00    +0.000 A 
ATOM      5  C   UNL     1       4.100   4.787  18.575  0.00  0.00    +0.000 A 
ATOM      6  C   UNL     1       3.387   4.692  19.790  0.00  0.00    +0.000 A 
ENDROOT
BRANCH   5   7
ATOM      7  C   UNL     1       5.445   5.397  18.523  0.00  0.00    +0.000 A 
ATOM      8  N   UNL     1       6.306   5.120  19.525  0.00  0.00    +0.000 NA
ATOM      9  C   UNL     1       7.505   5.726  19.474  0.00  0.00    +0.000 A 
ATOM     10  C   UNL     1       7.878   6.593  18.475  0.00  0.00    +0.000 A 
ATOM     11  C   UNL     1       6.938   6.807  17.499  0.00  0.00    +0.000 A 
ATOM     12  N   UNL     1       5.724   6.226  17.495  0.00  0.00    +0.000 NA
ENDBRANCH   5   7
BRANCH   1  14
ATOM     13  C   UNL     1       1.504   2.684  21.676  0.00  0.00    +0.000 C 
ATOM     14  O   UNL     1       1.377   3.923  20.988  0.00  0.00    +0.000 OA
ENDBRANCH   1  14
TORSDOF 2
ENDMDL
MODEL 2
REMARK VINA RESULT:      -6.3      3.160      5.518
REMARK  Name = 
REMARK  3 active torsions:
REMARK  status: ('A' for Active; 'I' for Inactive)
REMARK    1  A    between atoms: C_1  and  O_2
REMARK    2  A    between atoms: O_2  and  C_3
REMARK    3  A    between atoms: C_7  and  C_8
REMARK                            x       y       z     vdW  Elec       q    Type
REMARK                         _______ _______ _______ _____ _____    ______ ____
ROOT
ATOM      1  C   UNL     1       5.383   4.360  15.948  0.00  0.00    +0.000 A 
ATOM      2  C   UNL     1       5.570   5.729  15.761  0.00  0.00    +0.000 A 
ATOM      3  C   UNL     1       4.870   6.648  16.537  0.00  0.00    +0.000 A 
ATOM      4  C   UNL     1       3.980   6.199  17.514  0.00  0.00    +0.000 A 
ATOM      5  C   UNL     1       3.771   4.825  17.739  0.00  0.00    +0.000 A 
ATOM      6  C   UNL     1       4.486   3.919  16.926  0.00  0.00    +0.000 A 
ENDROOT
BRANCH   5   7
ATOM      7  C   UNL     1       2.860   4.348  18.799  0.00  0.00    +0.000 A 
ATOM      8  N   UNL     1       1.892   3.473  18.456  0.00  0.00    +0.000 NA
ATOM      9  C   UNL     1       1.049   3.092  19.432  0.00  0.00    +0.000 A 
ATOM     10  C   UNL     1       1.130   3.546  20.727  0.00  0.00    +0.000 A 
ATOM     11  C   UNL     1       2.151   4.427  20.980  0.00  0.00    +0.000 A 
ATOM     12  N   UNL     1       3.026   4.841  20.045  0.00  0.00    +0.000 NA
ENDBRANCH   5   7
BRANCH   1  14
ATOM     13  C   UNL     1       6.169   3.913  13.751  0.00  0.00    +0.000 C 
ATOM     14  O   UNL     1       6.132   3.560  15.129  0.00  0.00    +0.000 OA
ENDBRANCH   1  14
TORSDOF 2
ENDMDL
MODEL 3
REMARK VINA RESULT:      -6.3      0.269      1.285
REMARK  Name = 
REMARK  3 active torsions:
REMARK  status: ('A' for Active; 'I' for Inactive)
REMARK    1  A    between atoms: C_1  and  O_2
REMARK    2  A    between atoms: O_2  and  C_3
REMARK    3  A    between atoms: C_7  and  C_8
REMARK                            x       y       z     vdW  Elec       q    Type
REMARK                         _______ _______ _______ _____ _____    ______ ____
ROOT
ATOM      1  C   UNL     1       2.147   3.976  19.549  0.00  0.00    +0.000 A 
ATOM      2  C   UNL     1       1.725   3.332  18.387  0.00  0.00    +0.000 A 
ATOM      3  C   UNL     1       2.496   3.388  17.230  0.00  0.00    +0.000 A 
ATOM      4  C   UNL     1       3.704   4.087  17.232  0.00  0.00    +0.000 A 
ATOM      5  C   UNL     1       4.169   4.742  18.388  0.00  0.00    +0.000 A 
ATOM      6  C   UNL     1       3.357   4.678  19.541  0.00  0.00    +0.000 A 
ENDROOT
BRANCH   5   7
ATOM      7  C   UNL     1       5.466   5.449  18.404  0.00  0.00    +0.000 A 
ATOM      8  N   UNL     1       5.707   6.355  17.433  0.00  0.00    +0.000 NA
ATOM      9  C   UNL     1       6.914   6.948  17.448  0.00  0.00    +0.000 A 
ATOM     10  C   UNL     1       7.884   6.676  18.382  0.00  0.00    +0.000 A 
ATOM     11  C   UNL     1       7.544   5.746  19.332  0.00  0.00    +0.000 A 
ATOM     12  N   UNL     1       6.351   5.123  19.370  0.00  0.00    +0.000 NA
ENDBRANCH   5   7
BRANCH   1  14
ATOM     13  C   UNL     1       1.631   2.830  21.565  0.00  0.00    +0.000 C 
ATOM     14  O   UNL     1       1.306   3.842  20.619  0.00  0.00    +0.000 OA
ENDBRANCH   1  14
TORSDOF 2
ENDMDL
MODEL 4
REMARK VINA RESULT:      -6.2      3.194      5.555
REMARK  Name = 
REMARK  3 active torsions:
REMARK  status: ('A' for Active; 'I' for Inactive)
REMARK    1  A    between atoms: C_1  and  O_2
REMARK    2  A    between atoms: O_2  and  C_3
REMARK    3  A    between atoms: C_7  and  C_8
REMARK                            x       y       z     vdW  Elec       q    Type
REMARK                         _______ _______ _______ _____ _____    ______ ____
ROOT
ATOM      1  C   UNL     1       5.349   4.363  15.970  0.00  0.00    +0.000 A 
ATOM      2  C   UNL     1       5.525   5.741  15.858  0.00  0.00    +0.000 A 
ATOM      3  C   UNL     1       4.786   6.613  16.653  0.00  0.00    +0.000 A 
ATOM      4  C   UNL     1       3.867   6.105  17.573  0.00  0.00    +0.000 A 
ATOM      5  C   UNL     1       3.667   4.720  17.721  0.00  0.00    +0.000 A 
ATOM      6  C   UNL     1       4.423   3.863  16.891  0.00  0.00    +0.000 A 
ENDROOT
BRANCH   5   7
ATOM      7  C   UNL     1       2.724   4.179  18.722  0.00  0.00    +0.000 A 
ATOM      8  N   UNL     1       2.133   5.047  19.569  0.00  0.00    +0.000 NA
ATOM      9  C   UNL     1       1.316   4.521  20.498  0.00  0.00    +0.000 A 
ATOM     10  C   UNL     1       1.067   3.174  20.618  0.00  0.00    +0.000 A 
ATOM     11  C   UNL     1       1.709   2.373  19.707  0.00  0.00    +0.000 A 
ATOM     12  N   UNL     1       2.535   2.843  18.754  0.00  0.00    +0.000 NA
ENDBRANCH   5   7
BRANCH   1  14
ATOM     13  C   UNL     1       6.093   3.934  13.754  0.00  0.00    +0.000 C 
ATOM     14  O   UNL     1       6.137   3.613  15.140  0.00  0.00    +0.000 OA
ENDBRANCH   1  14
TORSDOF 2
ENDMDL
MODEL 5
REMARK VINA RESULT:      -6.2      3.097      5.350
REMARK  Name = 
REMARK  3 active torsions:
REMARK  status: ('A' for Active; 'I' for Inactive)
REMARK    1  A    between atoms: C_1  and  O_2
REMARK    2  A    between atoms: O_2  and  C_3
REMARK    3  A    between atoms: C_7  and  C_8
REMARK                            x       y       z     vdW  Elec       q    Type
REMARK                         _______ _______ _______ _____ _____    ______ ____
ROOT
ATOM      1  C   UNL     1       5.318   4.412  16.156  0.00  0.00    +0.000 A 
ATOM      2  C   UNL     1       5.356   5.791  15.952  0.00  0.00    +0.000 A 
ATOM      3  C   UNL     1       4.618   6.644  16.766  0.00  0.00    +0.000 A 
ATOM      4  C   UNL     1       3.839   6.119  17.799  0.00  0.00    +0.000 A 
ATOM      5  C   UNL     1       3.782   4.734  18.042  0.00  0.00    +0.000 A 
ATOM      6  C   UNL     1       4.531   3.895  17.190  0.00  0.00    +0.000 A 
ENDROOT
BRANCH   5   7
ATOM      7  C   UNL     1       2.990   4.180  19.160  0.00  0.00    +0.000 A 
ATOM      8  N   UNL     1       3.573   3.258  19.954  0.00  0.00    +0.000 NA
ATOM      9  C   UNL     1       2.813   2.738  20.933  0.00  0.00    +0.000 A 
ATOM     10  C   UNL     1       1.504   3.095  21.151  0.00  0.00    +0.000 A 
ATOM     11  C   UNL     1       1.001   4.044  20.296  0.00  0.00    +0.000 A 
ATOM     12  N   UNL     1       1.715   4.601  19.301  0.00  0.00    +0.000 NA
ENDBRANCH   5   7
BRANCH   1  14
ATOM     13  C   UNL     1       6.012   4.027  13.916  0.00  0.00    +0.000 C 
ATOM     14  O   UNL     1       6.090   3.681  15.295  0.00  0.00    +0.000 OA
ENDBRANCH   1  14
TORSDOF 2
ENDMDL
MODEL 6
REMARK VINA RESULT:      -6.2      3.065      5.736
REMARK  Name = 
REMARK  3 active torsions:
REMARK  status: ('A' for Active; 'I' for Inactive)
REMARK    1  A    between atoms: C_1  and  O_2
REMARK    2  A    between atoms: O_2  and  C_3
REMARK    3  A    between atoms: C_7  and  C_8
REMARK                            x       y       z     vdW  Elec       q    Type
REMARK                         _______ _______ _______ _____ _____    ______ ____
ROOT
ATOM      1  C   UNL     1       6.842   4.853  16.750  0.00  0.00    +0.000 A 
ATOM      2  C   UNL     1       7.509   5.447  17.821  0.00  0.00    +0.000 A 
ATOM      3  C   UNL     1       6.894   5.546  19.066  0.00  0.00    +0.000 A 
ATOM      4  C   UNL     1       5.605   5.042  19.247  0.00  0.00    +0.000 A 
ATOM      5  C   UNL     1       4.903   4.429  18.193  0.00  0.00    +0.000 A 
ATOM      6  C   UNL     1       5.549   4.356  16.939  0.00  0.00    +0.000 A 
ENDROOT
BRANCH   5   7
ATOM      7  C   UNL     1       3.554   3.860  18.392  0.00  0.00    +0.000 A 
ATOM      8  N   UNL     1       2.640   4.610  19.043  0.00  0.00    +0.000 NA
ATOM      9  C   UNL     1       1.436   4.047  19.250  0.00  0.00    +0.000 A 
ATOM     10  C   UNL     1       1.109   2.777  18.840  0.00  0.00    +0.000 A 
ATOM     11  C   UNL     1       2.102   2.095  18.182  0.00  0.00    +0.000 A 
ATOM     12  N   UNL     1       3.324   2.608  17.943  0.00  0.00    +0.000 NA
ENDBRANCH   5   7
BRANCH   1  14
ATOM     13  C   UNL     1       6.809   4.615  14.386  0.00  0.00    +0.000 C 
ATOM     14  O   UNL     1       7.554   4.811  15.582  0.00  0.00    +0.000 OA
ENDBRANCH   1  14
TORSDOF 2
ENDMDL
MODEL 7
REMARK VINA RESULT:      -6.2      2.937      5.656
REMARK  Name = 
REMARK  3 active torsions:
REMARK  status: ('A' for Active; 'I' for Inactive)
REMARK    1  A    between atoms: C_1  and  O_2
REMARK    2  A    between atoms: O_2  and  C_3
REMARK    3  A    between atoms: C_7  and  C_8
REMARK                            x       y       z     vdW  Elec       q    Type
REMARK                         _______ _______ _______ _____ _____    ______ ____
ROOT
ATOM      1  C   UNL     1       6.787   5.419  16.720  0.00  0.00    +0.000 A 
ATOM      2  C   UNL     1       7.526   5.836  17.826  0.00  0.00    +0.000 A 
ATOM      3  C   UNL     1       7.017   5.682  19.113  0.00  0.00    +0.000 A 
ATOM      4  C   UNL     1       5.761   5.101  19.299  0.00  0.00    +0.000 A 
ATOM      5  C   UNL     1       4.989   4.661  18.208  0.00  0.00    +0.000 A 
ATOM      6  C   UNL     1       5.528   4.843  16.916  0.00  0.00    +0.000 A 
ENDROOT
BRANCH   5   7
ATOM      7  C   UNL     1       3.677   4.010  18.405  0.00  0.00    +0.000 A 
ATOM      8  N   UNL     1       3.625   2.911  19.186  0.00  0.00    +0.000 NA
ATOM      9  C   UNL     1       2.427   2.315  19.309  0.00  0.00    +0.000 A 
ATOM     10  C   UNL     1       1.286   2.764  18.688  0.00  0.00    +0.000 A 
ATOM     11  C   UNL     1       1.437   3.891  17.919  0.00  0.00    +0.000 A 
ATOM     12  N   UNL     1       2.610   4.532  17.762  0.00  0.00    +0.000 NA
ENDBRANCH   5   7
BRANCH   1  14
ATOM     13  C   UNL     1       6.932   4.831  14.422  0.00  0.00    +0.000 C 
ATOM     14  O   UNL     1       7.398   5.618  15.512  0.00  0.00    +0.000 OA
ENDBRANCH   1  14
TORSDOF 2
ENDMDL
MODEL 8
REMARK VINA RESULT:      -6.1      2.833      5.296
REMARK  Name = 
REMARK  3 active torsions:
REMARK  status: ('A' for Active; 'I' for Inactive)
REMARK    1  A    between atoms: C_1  and  O_2
REMARK    2  A    between atoms: O_2  and  C_3
REMARK    3  A    between atoms: C_7  and  C_8
REMARK                            x       y       z     vdW  Elec       q    Type
REMARK                         _______ _______ _______ _____ _____    ______ ____
ROOT
ATOM      1  C   UNL     1       5.818   6.317  16.766  0.00  0.00    +0.000 A 
ATOM      2  C   UNL     1       6.059   5.397  15.747  0.00  0.00    +0.000 A 
ATOM      3  C   UNL     1       5.339   4.207  15.686  0.00  0.00    +0.000 A 
ATOM      4  C   UNL     1       4.365   3.934  16.647  0.00  0.00    +0.000 A 
ATOM      5  C   UNL     1       4.086   4.842  17.686  0.00  0.00    +0.000 A 
ATOM      6  C   UNL     1       4.843   6.033  17.727  0.00  0.00    +0.000 A 
ENDROOT
BRANCH   5   7
ATOM      7  C   UNL     1       3.028   4.573  18.682  0.00  0.00    +0.000 A 
ATOM      8  N   UNL     1       3.126   5.170  19.888  0.00  0.00    +0.000 NA
ATOM      9  C   UNL     1       2.173   4.870  20.788  0.00  0.00    +0.000 A 
ATOM     10  C   UNL     1       1.135   4.004  20.538  0.00  0.00    +0.000 A 
ATOM     11  C   UNL     1       1.117   3.452  19.282  0.00  0.00    +0.000 A 
ATOM     12  N   UNL     1       2.041   3.717  18.339  0.00  0.00    +0.000 NA
ENDBRANCH   5   7
BRANCH   1  14
ATOM     13  C   UNL     1       7.658   7.539  17.642  0.00  0.00    +0.000 C 
ATOM     14  O   UNL     1       6.585   7.449  16.712  0.00  0.00    +0.000 OA
ENDBRANCH   1  14
TORSDOF 2
ENDMDL
MODEL 9
REMARK VINA RESULT:      -6.1      2.843      5.333
REMARK  Name = 
REMARK  3 active torsions:
REMARK  status: ('A' for Active; 'I' for Inactive)
REMARK    1  A    between atoms: C_1  and  O_2
REMARK    2  A    between atoms: O_2  and  C_3
REMARK    3  A    between atoms: C_7  and  C_8
REMARK                            x       y       z     vdW  Elec       q    Type
REMARK                         _______ _______ _______ _____ _____    ______ ____
ROOT
ATOM      1  C   UNL     1       5.854   6.285  16.747  0.00  0.00    +0.000 A 
ATOM      2  C   UNL     1       6.050   5.394  15.692  0.00  0.00    +0.000 A 
ATOM      3  C   UNL     1       5.303   4.222  15.611  0.00  0.00    +0.000 A 
ATOM      4  C   UNL     1       4.347   3.938  16.587  0.00  0.00    +0.000 A 
ATOM      5  C   UNL     1       4.114   4.815  17.663  0.00  0.00    +0.000 A 
ATOM      6  C   UNL     1       4.897   5.989  17.723  0.00  0.00    +0.000 A 
ENDROOT
BRANCH   5   7
ATOM      7  C   UNL     1       3.075   4.536  18.675  0.00  0.00    +0.000 A 
ATOM      8  N   UNL     1       2.169   3.574  18.404  0.00  0.00    +0.000 NA
ATOM      9  C   UNL     1       1.208   3.374  19.324  0.00  0.00    +0.000 A 
ATOM     10  C   UNL     1       1.114   4.090  20.494  0.00  0.00    +0.000 A 
ATOM     11  C   UNL     1       2.085   5.042  20.683  0.00  0.00    +0.000 A 
ATOM     12  N   UNL     1       3.071   5.283  19.799  0.00  0.00    +0.000 NA
ENDBRANCH   5   7
BRANCH   1  14
ATOM     13  C   UNL     1       7.660   7.498  17.701  0.00  0.00    +0.000 C 
ATOM     14  O   UNL     1       6.643   7.402  16.711  0.00  0.00    +0.000 OA
ENDBRANCH   1  14
TORSDOF 2
ENDMDL
