MODEL 1
REMARK VINA RESULT:      -7.6      0.000      0.000
REMARK  Name = 
REMARK  5 active torsions:
REMARK  status: ('A' for Active; 'I' for Inactive)
REMARK    1  A    between atoms: C_1  and  C_2
REMARK    2  A    between atoms: N_13  and  C_14
REMARK    3  A    between atoms: C_14  and  C_15
REMARK    4  A    between atoms: N_17  and  C_18
REMARK    5  A    between atoms: C_18  and  C_19
REMARK                            x       y       z     vdW  Elec       q    Type
REMARK                         _______ _______ _______ _____ _____    ______ ____
ROOT
ATOM      1  C   UNL     1       1.026   4.749  20.516  0.00  0.00    +0.000 C 
ATOM      2  C   UNL     1       1.930   4.657  19.312  0.00  0.00    +0.000 A 
ATOM      3  C   UNL     1       1.872   3.482  18.662  0.00  0.00    +0.000 A 
ATOM      4  C   UNL     1       2.713   3.223  17.492  0.00  0.00    +0.000 A 
ATOM      5  O   UNL     1       2.611   2.172  16.873  0.00  0.00    +0.000 OA
ATOM      6  C   UNL     1       3.680   4.266  17.120  0.00  0.00    +0.000 A 
ATOM      7  C   UNL     1       4.565   3.980  16.064  0.00  0.00    +0.000 A 
ATOM      8  C   UNL     1       5.515   4.917  15.698  0.00  0.00    +0.000 A 
ATOM      9 BR   UNL     1       6.731   4.534  14.305  0.00  0.00    +0.000 Br
ATOM     10  C   UNL     1       5.576   6.134  16.365  0.00  0.00    +0.000 A 
ATOM     11  C   UNL     1       4.677   6.416  17.410  0.00  0.00    +0.000 A 
ATOM     12  C   UNL     1       3.704   5.485  17.829  0.00  0.00    +0.000 A 
ATOM     13  N   UNL     1       2.789   5.712  18.924  0.00  0.00    +0.000 N 
ENDROOT
BRANCH  13  14
ATOM     14  C   UNL     1       2.877   7.086  19.509  0.00  0.00    +0.000 C 
BRANCH  14  15
ATOM     15  C   UNL     1       1.895   8.161  19.051  0.00  0.00    +0.000 C 
ATOM     16  O   UNL     1       1.667   8.358  17.857  0.00  0.00    +0.000 OA
ATOM     17  N   UNL     1       1.238   8.877  20.039  0.00  0.00    +0.000 N 
ATOM     18  H   UNL     1       1.239   8.552  20.997  0.00  0.00    +0.000 HD
BRANCH  17  19
ATOM     19  C   UNL     1       0.251   9.859  19.634  0.00  0.00    +0.000 C 
BRANCH  19  20
ATOM     20  C   UNL     1      -0.422  10.576  20.774  0.00  0.00    +0.000 A 
ATOM     21  C   UNL     1      -1.184  11.736  20.565  0.00  0.00    +0.000 A 
ATOM     22  C   UNL     1      -1.861  12.342  21.628  0.00  0.00    +0.000 A 
ATOM     23  C   UNL     1      -1.789  11.797  22.910  0.00  0.00    +0.000 A 
ATOM     24  C   UNL     1      -1.046  10.641  23.129  0.00  0.00    +0.000 A 
ATOM     25  C   UNL     1      -0.368  10.034  22.069  0.00  0.00    +0.000 A 
ENDBRANCH  19  20
ENDBRANCH  17  19
ENDBRANCH  14  15
ENDBRANCH  13  14
TORSDOF 4
ENDMDL
MODEL 2
REMARK VINA RESULT:      -7.5      3.352      8.445
REMARK  Name = 
REMARK  5 active torsions:
REMARK  status: ('A' for Active; 'I' for Inactive)
REMARK    1  A    between atoms: C_1  and  C_2
REMARK    2  A    between atoms: N_13  and  C_14
REMARK    3  A    between atoms: C_14  and  C_15
REMARK    4  A    between atoms: N_17  and  C_18
REMARK    5  A    between atoms: C_18  and  C_19
REMARK                            x       y       z     vdW  Elec       q    Type
REMARK                         _______ _______ _______ _____ _____    ______ ____
ROOT
ATOM      1  C   UNL     1       3.207   7.570  17.689  0.00  0.00    +0.000 C 
ATOM      2  C   UNL     1       2.225   8.340  18.538  0.00  0.00    +0.000 A 
ATOM      3  C   UNL     1       1.782   9.479  17.978  0.00  0.00    +0.000 A 
ATOM      4  C   UNL     1       0.849  10.356  18.689  0.00  0.00    +0.000 A 
ATOM      5  O   UNL     1       0.406  11.361  18.148  0.00  0.00    +0.000 OA
ATOM      6  C   UNL     1       0.496   9.981  20.066  0.00  0.00    +0.000 A 
ATOM      7  C   UNL     1      -0.313  10.875  20.792  0.00  0.00    +0.000 A 
ATOM      8  C   UNL     1      -0.646  10.582  22.102  0.00  0.00    +0.000 A 
ATOM      9 BR   UNL     1      -1.704  11.787  23.099  0.00  0.00    +0.000 Br
ATOM     10  C   UNL     1      -0.193   9.405  22.683  0.00  0.00    +0.000 A 
ATOM     11  C   UNL     1       0.604   8.511  21.944  0.00  0.00    +0.000 A 
ATOM     12  C   UNL     1       0.983   8.774  20.611  0.00  0.00    +0.000 A 
ATOM     13  N   UNL     1       1.834   7.909  19.828  0.00  0.00    +0.000 N 
ENDROOT
BRANCH  13  14
ATOM     14  C   UNL     1       2.188   6.628  20.514  0.00  0.00    +0.000 C 
BRANCH  14  15
ATOM     15  C   UNL     1       2.528   5.398  19.678  0.00  0.00    +0.000 C 
ATOM     16  O   UNL     1       1.683   4.842  18.976  0.00  0.00    +0.000 OA
ATOM     17  N   UNL     1       3.843   4.959  19.708  0.00  0.00    +0.000 N 
ATOM     18  H   UNL     1       4.575   5.551  20.080  0.00  0.00    +0.000 HD
BRANCH  17  19
ATOM     19  C   UNL     1       4.211   3.833  18.874  0.00  0.00    +0.000 C 
BRANCH  19  20
ATOM     20  C   UNL     1       5.127   4.175  17.729  0.00  0.00    +0.000 A 
ATOM     21  C   UNL     1       6.464   4.540  17.942  0.00  0.00    +0.000 A 
ATOM     22  C   UNL     1       7.316   4.781  16.859  0.00  0.00    +0.000 A 
ATOM     23  C   UNL     1       6.844   4.658  15.552  0.00  0.00    +0.000 A 
ATOM     24  C   UNL     1       5.522   4.286  15.326  0.00  0.00    +0.000 A 
ATOM     25  C   UNL     1       4.669   4.046  16.407  0.00  0.00    +0.000 A 
ENDBRANCH  19  20
ENDBRANCH  17  19
ENDBRANCH  14  15
ENDBRANCH  13  14
TORSDOF 4
ENDMDL
MODEL 3
REMARK VINA RESULT:      -7.5      0.541      1.121
REMARK  Name = 
REMARK  5 active torsions:
REMARK  status: ('A' for Active; 'I' for Inactive)
REMARK    1  A    between atoms: C_1  and  C_2
REMARK    2  A    between atoms: N_13  and  C_14
REMARK    3  A    between atoms: C_14  and  C_15
REMARK    4  A    between atoms: N_17  and  C_18
REMARK    5  A    between atoms: C_18  and  C_19
REMARK                            x       y       z     vdW  Elec       q    Type
REMARK                         _______ _______ _______ _____ _____    ______ ____
ROOT
ATOM      1  C   UNL     1       1.892   5.083  20.985  0.00  0.00    +0.000 C 
ATOM      2  C   UNL     1       2.547   4.805  19.655  0.00  0.00    +0.000 A 
ATOM      3  C   UNL     1       2.477   3.522  19.259  0.00  0.00    +0.000 A 
ATOM      4  C   UNL     1       3.092   3.085  18.005  0.00  0.00    +0.000 A 
ATOM      5  O   UNL     1       2.973   1.927  17.625  0.00  0.00    +0.000 OA
ATOM      6  C   UNL     1       3.862   4.086  17.252  0.00  0.00    +0.000 A 
ATOM      7  C   UNL     1       4.547   3.647  16.104  0.00  0.00    +0.000 A 
ATOM      8  C   UNL     1       5.310   4.544  15.381  0.00  0.00    +0.000 A 
ATOM      9 BR   UNL     1       6.261   3.962  13.856  0.00  0.00    +0.000 Br
ATOM     10  C   UNL     1       5.383   5.871  15.785  0.00  0.00    +0.000 A 
ATOM     11  C   UNL     1       4.684   6.304  16.927  0.00  0.00    +0.000 A 
ATOM     12  C   UNL     1       3.906   5.421  17.705  0.00  0.00    +0.000 A 
ATOM     13  N   UNL     1       3.207   5.809  18.908  0.00  0.00    +0.000 N 
ENDROOT
BRANCH  13  14
ATOM     14  C   UNL     1       3.274   7.275  19.200  0.00  0.00    +0.000 C 
BRANCH  14  15
ATOM     15  C   UNL     1       2.089   8.166  18.839  0.00  0.00    +0.000 C 
ATOM     16  O   UNL     1       1.697   8.278  17.677  0.00  0.00    +0.000 OA
ATOM     17  N   UNL     1       1.446   8.813  19.883  0.00  0.00    +0.000 N 
ATOM     18  H   UNL     1       1.609   8.531  20.842  0.00  0.00    +0.000 HD
BRANCH  17  19
ATOM     19  C   UNL     1       0.277   9.614  19.579  0.00  0.00    +0.000 C 
BRANCH  19  20
ATOM     20  C   UNL     1      -0.369  10.258  20.777  0.00  0.00    +0.000 A 
ATOM     21  C   UNL     1      -0.316   9.665  22.047  0.00  0.00    +0.000 A 
ATOM     22  C   UNL     1      -0.860  10.318  23.158  0.00  0.00    +0.000 A 
ATOM     23  C   UNL     1      -1.459  11.570  23.015  0.00  0.00    +0.000 A 
ATOM     24  C   UNL     1      -1.509  12.174  21.762  0.00  0.00    +0.000 A 
ATOM     25  C   UNL     1      -0.968  11.523  20.651  0.00  0.00    +0.000 A 
ENDBRANCH  19  20
ENDBRANCH  17  19
ENDBRANCH  14  15
ENDBRANCH  13  14
TORSDOF 4
ENDMDL
MODEL 4
REMARK VINA RESULT:      -7.3      3.990      7.100
REMARK  Name = 
REMARK  5 active torsions:
REMARK  status: ('A' for Active; 'I' for Inactive)
REMARK    1  A    between atoms: C_1  and  C_2
REMARK    2  A    between atoms: N_13  and  C_14
REMARK    3  A    between atoms: C_14  and  C_15
REMARK    4  A    between atoms: N_17  and  C_18
REMARK    5  A    between atoms: C_18  and  C_19
REMARK                            x       y       z     vdW  Elec       q    Type
REMARK                         _______ _______ _______ _____ _____    ______ ____
ROOT
ATOM      1  C   UNL     1       3.399   1.159  18.389  0.00  0.00    +0.000 C 
ATOM      2  C   UNL     1       3.075   2.497  19.008  0.00  0.00    +0.000 A 
ATOM      3  C   UNL     1       2.765   2.443  20.315  0.00  0.00    +0.000 A 
ATOM      4  C   UNL     1       2.396   3.653  21.053  0.00  0.00    +0.000 A 
ATOM      5  O   UNL     1       2.171   3.602  22.256  0.00  0.00    +0.000 OA
ATOM      6  C   UNL     1       2.292   4.901  20.284  0.00  0.00    +0.000 A 
ATOM      7  C   UNL     1       1.832   6.044  20.964  0.00  0.00    +0.000 A 
ATOM      8  C   UNL     1       1.687   7.234  20.275  0.00  0.00    +0.000 A 
ATOM      9 BR   UNL     1       1.041   8.769  21.166  0.00  0.00    +0.000 Br
ATOM     10  C   UNL     1       2.009   7.294  18.925  0.00  0.00    +0.000 A 
ATOM     11  C   UNL     1       2.481   6.149  18.257  0.00  0.00    +0.000 A 
ATOM     12  C   UNL     1       2.629   4.910  18.913  0.00  0.00    +0.000 A 
ATOM     13  N   UNL     1       3.068   3.698  18.261  0.00  0.00    +0.000 N 
ENDROOT
BRANCH  13  14
ATOM     14  C   UNL     1       3.478   3.895  16.835  0.00  0.00    +0.000 C 
BRANCH  14  15
ATOM     15  C   UNL     1       4.926   4.251  16.514  0.00  0.00    +0.000 C 
ATOM     16  O   UNL     1       5.259   4.648  15.397  0.00  0.00    +0.000 OA
ATOM     17  N   UNL     1       5.846   4.148  17.546  0.00  0.00    +0.000 N 
ATOM     18  H   UNL     1       5.534   4.063  18.505  0.00  0.00    +0.000 HD
BRANCH  17  19
ATOM     19  C   UNL     1       7.216   4.541  17.287  0.00  0.00    +0.000 C 
BRANCH  19  20
ATOM     20  C   UNL     1       7.560   5.939  17.728  0.00  0.00    +0.000 A 
ATOM     21  C   UNL     1       8.187   6.188  18.959  0.00  0.00    +0.000 A 
ATOM     22  C   UNL     1       8.564   7.487  19.314  0.00  0.00    +0.000 A 
ATOM     23  C   UNL     1       8.323   8.551  18.445  0.00  0.00    +0.000 A 
ATOM     24  C   UNL     1       7.712   8.317  17.217  0.00  0.00    +0.000 A 
ATOM     25  C   UNL     1       7.333   7.020  16.861  0.00  0.00    +0.000 A 
ENDBRANCH  19  20
ENDBRANCH  17  19
ENDBRANCH  14  15
ENDBRANCH  13  14
TORSDOF 4
ENDMDL
MODEL 5
REMARK VINA RESULT:      -7.1      1.610      2.286
REMARK  Name = 
REMARK  5 active torsions:
REMARK  status: ('A' for Active; 'I' for Inactive)
REMARK    1  A    between atoms: C_1  and  C_2
REMARK    2  A    between atoms: N_13  and  C_14
REMARK    3  A    between atoms: C_14  and  C_15
REMARK    4  A    between atoms: N_17  and  C_18
REMARK    5  A    between atoms: C_18  and  C_19
REMARK                            x       y       z     vdW  Elec       q    Type
REMARK                         _______ _______ _______ _____ _____    ______ ____
ROOT
ATOM      1  C   UNL     1       1.254   4.885  20.741  0.00  0.00    +0.000 C 
ATOM      2  C   UNL     1       2.096   4.726  19.500  0.00  0.00    +0.000 A 
ATOM      3  C   UNL     1       2.090   3.486  18.980  0.00  0.00    +0.000 A 
ATOM      4  C   UNL     1       2.882   3.160  17.793  0.00  0.00    +0.000 A 
ATOM      5  O   UNL     1       2.825   2.044  17.294  0.00  0.00    +0.000 OA
ATOM      6  C   UNL     1       3.748   4.220  17.256  0.00  0.00    +0.000 A 
ATOM      7  C   UNL     1       4.593   3.883  16.183  0.00  0.00    +0.000 A 
ATOM      8  C   UNL     1       5.449   4.837  15.664  0.00  0.00    +0.000 A 
ATOM      9 BR   UNL     1       6.613   4.390  14.244  0.00  0.00    +0.000 Br
ATOM     10  C   UNL     1       5.457   6.120  16.195  0.00  0.00    +0.000 A 
ATOM     11  C   UNL     1       4.598   6.451  17.259  0.00  0.00    +0.000 A 
ATOM     12  C   UNL     1       3.720   5.507  17.832  0.00  0.00    +0.000 A 
ATOM     13  N   UNL     1       2.852   5.788  18.952  0.00  0.00    +0.000 N 
ENDROOT
BRANCH  13  14
ATOM     14  C   UNL     1       2.869   7.220  19.385  0.00  0.00    +0.000 C 
BRANCH  14  15
ATOM     15  C   UNL     1       1.921   8.215  18.723  0.00  0.00    +0.000 C 
ATOM     16  O   UNL     1       1.711   8.196  17.510  0.00  0.00    +0.000 OA
ATOM     17  N   UNL     1       1.273   9.117  19.553  0.00  0.00    +0.000 N 
ATOM     18  H   UNL     1       1.256   8.973  20.554  0.00  0.00    +0.000 HD
BRANCH  17  19
ATOM     19  C   UNL     1       0.317  10.031  18.960  0.00  0.00    +0.000 C 
BRANCH  19  20
ATOM     20  C   UNL     1       0.759  11.470  18.937  0.00  0.00    +0.000 A 
ATOM     21  C   UNL     1       2.016  11.845  18.440  0.00  0.00    +0.000 A 
ATOM     22  C   UNL     1       2.375  13.194  18.360  0.00  0.00    +0.000 A 
ATOM     23  C   UNL     1       1.483  14.185  18.771  0.00  0.00    +0.000 A 
ATOM     24  C   UNL     1       0.228  13.828  19.256  0.00  0.00    +0.000 A 
ATOM     25  C   UNL     1      -0.132  12.480  19.338  0.00  0.00    +0.000 A 
ENDBRANCH  19  20
ENDBRANCH  17  19
ENDBRANCH  14  15
ENDBRANCH  13  14
TORSDOF 4
ENDMDL
MODEL 6
REMARK VINA RESULT:      -7.0      4.500      7.083
REMARK  Name = 
REMARK  5 active torsions:
REMARK  status: ('A' for Active; 'I' for Inactive)
REMARK    1  A    between atoms: C_1  and  C_2
REMARK    2  A    between atoms: N_13  and  C_14
REMARK    3  A    between atoms: C_14  and  C_15
REMARK    4  A    between atoms: N_17  and  C_18
REMARK    5  A    between atoms: C_18  and  C_19
REMARK                            x       y       z     vdW  Elec       q    Type
REMARK                         _______ _______ _______ _____ _____    ______ ____
ROOT
ATOM      1  C   UNL     1       5.090   3.756  18.006  0.00  0.00    +0.000 C 
ATOM      2  C   UNL     1       4.221   4.903  18.456  0.00  0.00    +0.000 A 
ATOM      3  C   UNL     1       3.424   4.619  19.501  0.00  0.00    +0.000 A 
ATOM      4  C   UNL     1       2.496   5.617  20.037  0.00  0.00    +0.000 A 
ATOM      5  O   UNL     1       1.817   5.367  21.024  0.00  0.00    +0.000 OA
ATOM      6  C   UNL     1       2.413   6.902  19.327  0.00  0.00    +0.000 A 
ATOM      7  C   UNL     1       1.447   7.824  19.770  0.00  0.00    +0.000 A 
ATOM      8  C   UNL     1       1.308   9.034  19.115  0.00  0.00    +0.000 A 
ATOM      9 BR   UNL     1      -0.006  10.268  19.678  0.00  0.00    +0.000 Br
ATOM     10  C   UNL     1       2.132   9.333  18.037  0.00  0.00    +0.000 A 
ATOM     11  C   UNL     1       3.104   8.409  17.610  0.00  0.00    +0.000 A 
ATOM     12  C   UNL     1       3.271   7.157  18.236  0.00  0.00    +0.000 A 
ATOM     13  N   UNL     1       4.225   6.161  17.808  0.00  0.00    +0.000 N 
ENDROOT
BRANCH  13  14
ATOM     14  C   UNL     1       5.122   6.620  16.702  0.00  0.00    +0.000 C 
BRANCH  14  15
ATOM     15  C   UNL     1       6.599   6.872  16.991  0.00  0.00    +0.000 C 
ATOM     16  O   UNL     1       7.458   6.028  16.736  0.00  0.00    +0.000 OA
ATOM     17  N   UNL     1       6.937   8.111  17.513  0.00  0.00    +0.000 N 
ATOM     18  H   UNL     1       6.276   8.877  17.490  0.00  0.00    +0.000 HD
BRANCH  17  19
ATOM     19  C   UNL     1       8.339   8.403  17.737  0.00  0.00    +0.000 C 
BRANCH  19  20
ATOM     20  C   UNL     1       8.615   9.793  18.246  0.00  0.00    +0.000 A 
ATOM     21  C   UNL     1       9.296  10.010  19.454  0.00  0.00    +0.000 A 
ATOM     22  C   UNL     1       9.607  11.309  19.869  0.00  0.00    +0.000 A 
ATOM     23  C   UNL     1       9.246  12.404  19.085  0.00  0.00    +0.000 A 
ATOM     24  C   UNL     1       8.580  12.202  17.879  0.00  0.00    +0.000 A 
ATOM     25  C   UNL     1       8.267  10.906  17.463  0.00  0.00    +0.000 A 
ENDBRANCH  19  20
ENDBRANCH  17  19
ENDBRANCH  14  15
ENDBRANCH  13  14
TORSDOF 4
ENDMDL
MODEL 7
REMARK VINA RESULT:      -7.0      3.566      8.541
REMARK  Name = 
REMARK  5 active torsions:
REMARK  status: ('A' for Active; 'I' for Inactive)
REMARK    1  A    between atoms: C_1  and  C_2
REMARK    2  A    between atoms: N_13  and  C_14
REMARK    3  A    between atoms: C_14  and  C_15
REMARK    4  A    between atoms: N_17  and  C_18
REMARK    5  A    between atoms: C_18  and  C_19
REMARK                            x       y       z     vdW  Elec       q    Type
REMARK                         _______ _______ _______ _____ _____    ______ ____
ROOT
ATOM      1  C   UNL     1       2.198   8.523  18.002  0.00  0.00    +0.000 C 
ATOM      2  C   UNL     1       1.193   9.241  18.868  0.00  0.00    +0.000 A 
ATOM      3  C   UNL     1       0.473  10.176  18.223  0.00  0.00    +0.000 A 
ATOM      4  C   UNL     1      -0.522  10.984  18.931  0.00  0.00    +0.000 A 
ATOM      5  O   UNL     1      -1.213  11.792  18.324  0.00  0.00    +0.000 OA
ATOM      6  C   UNL     1      -0.631  10.789  20.384  0.00  0.00    +0.000 A 
ATOM      7  C   UNL     1      -1.506  11.637  21.087  0.00  0.00    +0.000 A 
ATOM      8  C   UNL     1      -1.619  11.514  22.460  0.00  0.00    +0.000 A 
ATOM      9 BR   UNL     1      -2.766  12.666  23.420  0.00  0.00    +0.000 Br
ATOM     10  C   UNL     1      -0.879  10.547  23.129  0.00  0.00    +0.000 A 
ATOM     11  C   UNL     1      -0.016   9.695  22.415  0.00  0.00    +0.000 A 
ATOM     12  C   UNL     1       0.144   9.794  21.018  0.00  0.00    +0.000 A 
ATOM     13  N   UNL     1       1.048   8.971  20.248  0.00  0.00    +0.000 N 
ENDROOT
BRANCH  13  14
ATOM     14  C   UNL     1       1.723   7.904  21.051  0.00  0.00    +0.000 C 
BRANCH  14  15
ATOM     15  C   UNL     1       1.950   6.529  20.429  0.00  0.00    +0.000 C 
ATOM     16  O   UNL     1       1.048   5.693  20.367  0.00  0.00    +0.000 OA
ATOM     17  N   UNL     1       3.206   6.277  19.898  0.00  0.00    +0.000 N 
ATOM     18  H   UNL     1       3.855   7.035  19.729  0.00  0.00    +0.000 HD
BRANCH  17  19
ATOM     19  C   UNL     1       3.431   5.004  19.243  0.00  0.00    +0.000 C 
BRANCH  19  20
ATOM     20  C   UNL     1       4.119   5.101  17.907  0.00  0.00    +0.000 A 
ATOM     21  C   UNL     1       4.649   6.313  17.439  0.00  0.00    +0.000 A 
ATOM     22  C   UNL     1       5.348   6.362  16.229  0.00  0.00    +0.000 A 
ATOM     23  C   UNL     1       5.530   5.203  15.474  0.00  0.00    +0.000 A 
ATOM     24  C   UNL     1       5.019   3.992  15.932  0.00  0.00    +0.000 A 
ATOM     25  C   UNL     1       4.319   3.941  17.140  0.00  0.00    +0.000 A 
ENDBRANCH  19  20
ENDBRANCH  17  19
ENDBRANCH  14  15
ENDBRANCH  13  14
TORSDOF 4
ENDMDL
MODEL 8
REMARK VINA RESULT:      -7.0      1.464      2.089
REMARK  Name = 
REMARK  5 active torsions:
REMARK  status: ('A' for Active; 'I' for Inactive)
REMARK    1  A    between atoms: C_1  and  C_2
REMARK    2  A    between atoms: N_13  and  C_14
REMARK    3  A    between atoms: C_14  and  C_15
REMARK    4  A    between atoms: N_17  and  C_18
REMARK    5  A    between atoms: C_18  and  C_19
REMARK                            x       y       z     vdW  Elec       q    Type
REMARK                         _______ _______ _______ _____ _____    ______ ____
ROOT
ATOM      1  C   UNL     1       1.216   4.949  20.732  0.00  0.00    +0.000 C 
ATOM      2  C   UNL     1       2.048   4.769  19.487  0.00  0.00    +0.000 A 
ATOM      3  C   UNL     1       1.992   3.535  18.956  0.00  0.00    +0.000 A 
ATOM      4  C   UNL     1       2.769   3.191  17.763  0.00  0.00    +0.000 A 
ATOM      5  O   UNL     1       2.667   2.082  17.254  0.00  0.00    +0.000 OA
ATOM      6  C   UNL     1       3.673   4.221  17.233  0.00  0.00    +0.000 A 
ATOM      7  C   UNL     1       4.502   3.862  16.154  0.00  0.00    +0.000 A 
ATOM      8  C   UNL     1       5.392   4.787  15.641  0.00  0.00    +0.000 A 
ATOM      9 BR   UNL     1       6.534   4.309  14.214  0.00  0.00    +0.000 Br
ATOM     10  C   UNL     1       5.451   6.064  16.185  0.00  0.00    +0.000 A 
ATOM     11  C   UNL     1       4.608   6.418  17.255  0.00  0.00    +0.000 A 
ATOM     12  C   UNL     1       3.696   5.503  17.821  0.00  0.00    +0.000 A 
ATOM     13  N   UNL     1       2.843   5.807  18.947  0.00  0.00    +0.000 N 
ENDROOT
BRANCH  13  14
ATOM     14  C   UNL     1       2.917   7.233  19.393  0.00  0.00    +0.000 C 
BRANCH  14  15
ATOM     15  C   UNL     1       1.936   8.250  18.818  0.00  0.00    +0.000 C 
ATOM     16  O   UNL     1       1.721   8.326  17.608  0.00  0.00    +0.000 OA
ATOM     17  N   UNL     1       1.263   9.058  19.723  0.00  0.00    +0.000 N 
ATOM     18  H   UNL     1       1.254   8.829  20.709  0.00  0.00    +0.000 HD
BRANCH  17  19
ATOM     19  C   UNL     1       0.277   9.988  19.211  0.00  0.00    +0.000 C 
BRANCH  19  20
ATOM     20  C   UNL     1       0.694  11.434  19.263  0.00  0.00    +0.000 A 
ATOM     21  C   UNL     1       0.071  12.347  20.127  0.00  0.00    +0.000 A 
ATOM     22  C   UNL     1       0.526  13.667  20.211  0.00  0.00    +0.000 A 
ATOM     23  C   UNL     1       1.607  14.090  19.438  0.00  0.00    +0.000 A 
ATOM     24  C   UNL     1       2.240  13.191  18.585  0.00  0.00    +0.000 A 
ATOM     25  C   UNL     1       1.787  11.872  18.498  0.00  0.00    +0.000 A 
ENDBRANCH  19  20
ENDBRANCH  17  19
ENDBRANCH  14  15
ENDBRANCH  13  14
TORSDOF 4
ENDMDL
MODEL 9
REMARK VINA RESULT:      -6.9      3.924      8.338
REMARK  Name = 
REMARK  5 active torsions:
REMARK  status: ('A' for Active; 'I' for Inactive)
REMARK    1  A    between atoms: C_1  and  C_2
REMARK    2  A    between atoms: N_13  and  C_14
REMARK    3  A    between atoms: C_14  and  C_15
REMARK    4  A    between atoms: N_17  and  C_18
REMARK    5  A    between atoms: C_18  and  C_19
REMARK                            x       y       z     vdW  Elec       q    Type
REMARK                         _______ _______ _______ _____ _____    ______ ____
ROOT
ATOM      1  C   UNL     1      -2.044  10.095  18.644  0.00  0.00    +0.000 C 
ATOM      2  C   UNL     1      -1.086  11.245  18.831  0.00  0.00    +0.000 A 
ATOM      3  C   UNL     1      -1.659  12.377  19.276  0.00  0.00    +0.000 A 
ATOM      4  C   UNL     1      -0.870  13.594  19.479  0.00  0.00    +0.000 A 
ATOM      5  O   UNL     1      -1.390  14.602  19.939  0.00  0.00    +0.000 OA
ATOM      6  C   UNL     1       0.546  13.545  19.088  0.00  0.00    +0.000 A 
ATOM      7  C   UNL     1       1.284  14.740  19.178  0.00  0.00    +0.000 A 
ATOM      8  C   UNL     1       2.611  14.753  18.791  0.00  0.00    +0.000 A 
ATOM      9 BR   UNL     1       3.605  16.357  18.875  0.00  0.00    +0.000 Br
ATOM     10  C   UNL     1       3.208  13.585  18.334  0.00  0.00    +0.000 A 
ATOM     11  C   UNL     1       2.466  12.391  18.261  0.00  0.00    +0.000 A 
ATOM     12  C   UNL     1       1.105  12.334  18.628  0.00  0.00    +0.000 A 
ATOM     13  N   UNL     1       0.292  11.144  18.530  0.00  0.00    +0.000 N 
ENDROOT
BRANCH  13  14
ATOM     14  C   UNL     1       1.055   9.925  18.117  0.00  0.00    +0.000 C 
BRANCH  14  15
ATOM     15  C   UNL     1       1.505   8.926  19.179  0.00  0.00    +0.000 C 
ATOM     16  O   UNL     1       1.237   9.088  20.370  0.00  0.00    +0.000 OA
ATOM     17  N   UNL     1       2.193   7.806  18.740  0.00  0.00    +0.000 N 
ATOM     18  H   UNL     1       2.194   7.555  17.759  0.00  0.00    +0.000 HD
BRANCH  17  19
ATOM     19  C   UNL     1       2.576   6.808  19.718  0.00  0.00    +0.000 C 
BRANCH  19  20
ATOM     20  C   UNL     1       2.088   5.415  19.417  0.00  0.00    +0.000 A 
ATOM     21  C   UNL     1       1.427   4.643  20.384  0.00  0.00    +0.000 A 
ATOM     22  C   UNL     1       0.917   3.382  20.058  0.00  0.00    +0.000 A 
ATOM     23  C   UNL     1       1.058   2.879  18.765  0.00  0.00    +0.000 A 
ATOM     24  C   UNL     1       1.703   3.639  17.793  0.00  0.00    +0.000 A 
ATOM     25  C   UNL     1       2.213   4.899  18.116  0.00  0.00    +0.000 A 
ENDBRANCH  19  20
ENDBRANCH  17  19
ENDBRANCH  14  15
ENDBRANCH  13  14
TORSDOF 4
ENDMDL
