MODEL 1
REMARK VINA RESULT:      -8.6      0.000      0.000
REMARK  Name = 
REMARK  6 active torsions:
REMARK  status: ('A' for Active; 'I' for Inactive)
REMARK    1  A    between atoms: C_1  and  C_2
REMARK    2  A    between atoms: N_4  and  C_5
REMARK    3  A    between atoms: C_13  and  C_14
REMARK    4  A    between atoms: N_21  and  C_22
REMARK    5  A    between atoms: C_24  and  C_25
REMARK    6  A    between atoms: C_27  and  C_28
REMARK                            x       y       z     vdW  Elec       q    Type
REMARK                         _______ _______ _______ _____ _____    ______ ____
ROOT
ATOM      1  C   UNL     1       3.813   6.600  17.524  0.00  0.00    +0.000 C 
ATOM      2  C   UNL     1       3.045   7.149  18.487  0.00  0.00    +0.000 C 
ATOM      3  C   UNL     1       2.922   6.582  19.840  0.00  0.00    +0.000 C 
ATOM      4  O   UNL     1       3.801   5.940  20.397  0.00  0.00    +0.000 OA
ATOM      5  N   UNL     1       1.741   6.866  20.446  0.00  0.00    +0.000 N 
ATOM      6  C   UNL     1       1.135   8.082  20.327  0.00  0.00    +0.000 C 
ATOM      7  O   UNL     1       0.492   8.491  21.295  0.00  0.00    +0.000 OA
ATOM      8  N   UNL     1       1.386   8.797  19.161  0.00  0.00    +0.000 N 
ATOM      9  C   UNL     1       2.262   8.379  18.158  0.00  0.00    +0.000 C 
ATOM     10  O   UNL     1       2.388   8.914  17.063  0.00  0.00    +0.000 OA
ATOM     11  H   UNL     1       1.662   6.495  21.384  0.00  0.00    +0.000 HD
ENDROOT
BRANCH   8  12
ATOM     12  C   UNL     1       0.757  10.069  19.011  0.00  0.00    +0.000 A 
ATOM     13  C   UNL     1      -0.535  10.147  18.479  0.00  0.00    +0.000 A 
ATOM     14  C   UNL     1      -1.123  11.390  18.217  0.00  0.00    +0.000 A 
ATOM     15  C   UNL     1      -2.452  11.468  17.527  0.00  0.00    +0.000 C 
ATOM     16  C   UNL     1      -0.429  12.560  18.552  0.00  0.00    +0.000 A 
ATOM     17  C   UNL     1       0.855  12.499  19.108  0.00  0.00    +0.000 A 
ATOM     18  C   UNL     1       1.626  13.746  19.426  0.00  0.00    +0.000 C 
ATOM     19  C   UNL     1       1.448  11.248  19.320  0.00  0.00    +0.000 A 
ENDBRANCH   8  12
BRANCH   1  26
ATOM     20  C   UNL     1       2.729   3.573  17.645  0.00  0.00    +0.000 C 
ATOM     21  C   UNL     1       3.922   4.187  16.992  0.00  0.00    +0.000 C 
ATOM     22  N   UNL     1       4.413   3.765  15.868  0.00  0.00    +0.000 NA
ATOM     23  N   UNL     1       5.531   4.539  15.613  0.00  0.00    +0.000 N 
ATOM     24  C   UNL     1       5.807   5.493  16.611  0.00  0.00    +0.000 C 
ATOM     25  O   UNL     1       6.686   6.338  16.684  0.00  0.00    +0.000 OA
ATOM     26  C   UNL     1       4.662   5.354  17.593  0.00  0.00    +0.000 C 
BRANCH  23  27
ATOM     27  C   UNL     1       6.161   4.427  14.351  0.00  0.00    +0.000 A 
ATOM     28  C   UNL     1       7.277   5.203  14.015  0.00  0.00    +0.000 A 
ATOM     29  C   UNL     1       7.825   5.158  12.730  0.00  0.00    +0.000 A 
ATOM     30  C   UNL     1       7.266   4.334  11.758  0.00  0.00    +0.000 A 
ATOM     31  C   UNL     1       6.172   3.535  12.081  0.00  0.00    +0.000 A 
ATOM     32  C   UNL     1       5.635   3.569  13.370  0.00  0.00    +0.000 A 
ENDBRANCH  23  27
ENDBRANCH   1  26
TORSDOF 3
ENDMDL
MODEL 2
REMARK VINA RESULT:      -8.5      0.162      1.556
REMARK  Name = 
REMARK  6 active torsions:
REMARK  status: ('A' for Active; 'I' for Inactive)
REMARK    1  A    between atoms: C_1  and  C_2
REMARK    2  A    between atoms: N_4  and  C_5
REMARK    3  A    between atoms: C_13  and  C_14
REMARK    4  A    between atoms: N_21  and  C_22
REMARK    5  A    between atoms: C_24  and  C_25
REMARK    6  A    between atoms: C_27  and  C_28
REMARK                            x       y       z     vdW  Elec       q    Type
REMARK                         _______ _______ _______ _____ _____    ______ ____
ROOT
ATOM      1  C   UNL     1       3.887   6.614  17.508  0.00  0.00    +0.000 C 
ATOM      2  C   UNL     1       3.093   7.146  18.459  0.00  0.00    +0.000 C 
ATOM      3  C   UNL     1       2.936   6.556  19.799  0.00  0.00    +0.000 C 
ATOM      4  O   UNL     1       3.802   5.906  20.368  0.00  0.00    +0.000 OA
ATOM      5  N   UNL     1       1.739   6.828  20.378  0.00  0.00    +0.000 N 
ATOM      6  C   UNL     1       1.134   8.045  20.264  0.00  0.00    +0.000 C 
ATOM      7  O   UNL     1       0.465   8.436  21.222  0.00  0.00    +0.000 OA
ATOM      8  N   UNL     1       1.414   8.780  19.117  0.00  0.00    +0.000 N 
ATOM      9  C   UNL     1       2.317   8.380  18.131  0.00  0.00    +0.000 C 
ATOM     10  O   UNL     1       2.471   8.934  17.049  0.00  0.00    +0.000 OA
ATOM     11  H   UNL     1       1.636   6.441  21.308  0.00  0.00    +0.000 HD
ENDROOT
BRANCH   8  12
ATOM     12  C   UNL     1       0.787  10.053  18.973  0.00  0.00    +0.000 A 
ATOM     13  C   UNL     1       1.438  11.204  19.433  0.00  0.00    +0.000 A 
ATOM     14  C   UNL     1       0.793  12.445  19.406  0.00  0.00    +0.000 A 
ATOM     15  C   UNL     1       1.443  13.650  20.020  0.00  0.00    +0.000 C 
ATOM     16  C   UNL     1      -0.492  12.538  18.854  0.00  0.00    +0.000 A 
ATOM     17  C   UNL     1      -1.147  11.400  18.367  0.00  0.00    +0.000 A 
ATOM     18  C   UNL     1      -2.540  11.480  17.816  0.00  0.00    +0.000 C 
ATOM     19  C   UNL     1      -0.505  10.157  18.444  0.00  0.00    +0.000 A 
ENDBRANCH   8  12
BRANCH   1  26
ATOM     20  C   UNL     1       2.804   3.589  17.659  0.00  0.00    +0.000 C 
ATOM     21  C   UNL     1       3.991   4.198  16.991  0.00  0.00    +0.000 C 
ATOM     22  N   UNL     1       4.473   3.768  15.867  0.00  0.00    +0.000 NA
ATOM     23  N   UNL     1       5.588   4.540  15.597  0.00  0.00    +0.000 N 
ATOM     24  C   UNL     1       5.873   5.501  16.585  0.00  0.00    +0.000 C 
ATOM     25  O   UNL     1       6.753   6.346  16.645  0.00  0.00    +0.000 OA
ATOM     26  C   UNL     1       4.736   5.369  17.578  0.00  0.00    +0.000 C 
BRANCH  23  27
ATOM     27  C   UNL     1       6.207   4.420  14.330  0.00  0.00    +0.000 A 
ATOM     28  C   UNL     1       7.325   5.188  13.981  0.00  0.00    +0.000 A 
ATOM     29  C   UNL     1       7.862   5.134  12.692  0.00  0.00    +0.000 A 
ATOM     30  C   UNL     1       7.290   4.309  11.728  0.00  0.00    +0.000 A 
ATOM     31  C   UNL     1       6.196   3.516  12.063  0.00  0.00    +0.000 A 
ATOM     32  C   UNL     1       5.670   3.559  13.357  0.00  0.00    +0.000 A 
ENDBRANCH  23  27
ENDBRANCH   1  26
TORSDOF 3
ENDMDL
MODEL 3
REMARK VINA RESULT:      -8.2      3.652     10.521
REMARK  Name = 
REMARK  6 active torsions:
REMARK  status: ('A' for Active; 'I' for Inactive)
REMARK    1  A    between atoms: C_1  and  C_2
REMARK    2  A    between atoms: N_4  and  C_5
REMARK    3  A    between atoms: C_13  and  C_14
REMARK    4  A    between atoms: N_21  and  C_22
REMARK    5  A    between atoms: C_24  and  C_25
REMARK    6  A    between atoms: C_27  and  C_28
REMARK                            x       y       z     vdW  Elec       q    Type
REMARK                         _______ _______ _______ _____ _____    ______ ____
ROOT
ATOM      1  C   UNL     1      -0.023  10.643  20.636  0.00  0.00    +0.000 C 
ATOM      2  C   UNL     1       0.846   9.996  19.833  0.00  0.00    +0.000 C 
ATOM      3  C   UNL     1       1.470  10.618  18.654  0.00  0.00    +0.000 C 
ATOM      4  O   UNL     1       1.702  11.814  18.552  0.00  0.00    +0.000 OA
ATOM      5  N   UNL     1       1.807   9.731  17.682  0.00  0.00    +0.000 N 
ATOM      6  C   UNL     1       2.324   8.502  17.965  0.00  0.00    +0.000 C 
ATOM      7  O   UNL     1       3.140   8.035  17.169  0.00  0.00    +0.000 OA
ATOM      8  N   UNL     1       1.963   7.934  19.182  0.00  0.00    +0.000 N 
ATOM      9  C   UNL     1       1.173   8.570  20.141  0.00  0.00    +0.000 C 
ATOM     10  O   UNL     1       0.721   8.039  21.149  0.00  0.00    +0.000 OA
ATOM     11  H   UNL     1       2.255  10.153  16.879  0.00  0.00    +0.000 HD
ENDROOT
BRANCH   8  12
ATOM     12  C   UNL     1       2.487   6.645  19.497  0.00  0.00    +0.000 A 
ATOM     13  C   UNL     1       3.822   6.346  19.200  0.00  0.00    +0.000 A 
ATOM     14  C   UNL     1       4.322   5.054  19.394  0.00  0.00    +0.000 A 
ATOM     15  C   UNL     1       5.712   4.706  18.952  0.00  0.00    +0.000 C 
ATOM     16  C   UNL     1       3.490   4.074  19.951  0.00  0.00    +0.000 A 
ATOM     17  C   UNL     1       2.159   4.362  20.277  0.00  0.00    +0.000 A 
ATOM     18  C   UNL     1       1.246   3.308  20.830  0.00  0.00    +0.000 C 
ATOM     19  C   UNL     1       1.660   5.649  20.032  0.00  0.00    +0.000 A 
ENDBRANCH   8  12
BRANCH   1  26
ATOM     20  C   UNL     1      -1.655  11.869  18.150  0.00  0.00    +0.000 C 
ATOM     21  C   UNL     1      -1.745  12.100  19.621  0.00  0.00    +0.000 C 
ATOM     22  N   UNL     1      -2.858  12.358  20.234  0.00  0.00    +0.000 NA
ATOM     23  N   UNL     1      -2.535  12.560  21.565  0.00  0.00    +0.000 N 
ATOM     24  C   UNL     1      -1.159  12.456  21.843  0.00  0.00    +0.000 C 
ATOM     25  O   UNL     1      -0.551  12.550  22.897  0.00  0.00    +0.000 OA
ATOM     26  C   UNL     1      -0.536  12.058  20.521  0.00  0.00    +0.000 C 
BRANCH  23  27
ATOM     27  C   UNL     1      -3.584  12.670  22.508  0.00  0.00    +0.000 A 
ATOM     28  C   UNL     1      -3.395  12.354  23.859  0.00  0.00    +0.000 A 
ATOM     29  C   UNL     1      -4.464  12.368  24.759  0.00  0.00    +0.000 A 
ATOM     30  C   UNL     1      -5.743  12.701  24.323  0.00  0.00    +0.000 A 
ATOM     31  C   UNL     1      -5.946  13.046  22.989  0.00  0.00    +0.000 A 
ATOM     32  C   UNL     1      -4.874  13.047  22.094  0.00  0.00    +0.000 A 
ENDBRANCH  23  27
ENDBRANCH   1  26
TORSDOF 3
ENDMDL
MODEL 4
REMARK VINA RESULT:      -8.0      3.665     10.428
REMARK  Name = 
REMARK  6 active torsions:
REMARK  status: ('A' for Active; 'I' for Inactive)
REMARK    1  A    between atoms: C_1  and  C_2
REMARK    2  A    between atoms: N_4  and  C_5
REMARK    3  A    between atoms: C_13  and  C_14
REMARK    4  A    between atoms: N_21  and  C_22
REMARK    5  A    between atoms: C_24  and  C_25
REMARK    6  A    between atoms: C_27  and  C_28
REMARK                            x       y       z     vdW  Elec       q    Type
REMARK                         _______ _______ _______ _____ _____    ______ ____
ROOT
ATOM      1  C   UNL     1       0.011  10.684  20.629  0.00  0.00    +0.000 C 
ATOM      2  C   UNL     1       0.862  10.052  19.795  0.00  0.00    +0.000 C 
ATOM      3  C   UNL     1       1.472  10.701  18.623  0.00  0.00    +0.000 C 
ATOM      4  O   UNL     1       1.712  11.897  18.549  0.00  0.00    +0.000 OA
ATOM      5  N   UNL     1       1.785   9.838  17.623  0.00  0.00    +0.000 N 
ATOM      6  C   UNL     1       2.298   8.597  17.865  0.00  0.00    +0.000 C 
ATOM      7  O   UNL     1       3.097   8.145  17.043  0.00  0.00    +0.000 OA
ATOM      8  N   UNL     1       1.951   7.999  19.071  0.00  0.00    +0.000 N 
ATOM      9  C   UNL     1       1.182   8.616  20.060  0.00  0.00    +0.000 C 
ATOM     10  O   UNL     1       0.742   8.062  21.061  0.00  0.00    +0.000 OA
ATOM     11  H   UNL     1       2.224  10.277  16.824  0.00  0.00    +0.000 HD
ENDROOT
BRANCH   8  12
ATOM     12  C   UNL     1       2.470   6.698  19.344  0.00  0.00    +0.000 A 
ATOM     13  C   UNL     1       1.636   5.719  19.897  0.00  0.00    +0.000 A 
ATOM     14  C   UNL     1       2.153   4.476  20.278  0.00  0.00    +0.000 A 
ATOM     15  C   UNL     1       1.285   3.481  20.988  0.00  0.00    +0.000 C 
ATOM     16  C   UNL     1       3.505   4.196  20.042  0.00  0.00    +0.000 A 
ATOM     17  C   UNL     1       4.348   5.156  19.468  0.00  0.00    +0.000 A 
ATOM     18  C   UNL     1       5.808   4.882  19.254  0.00  0.00    +0.000 C 
ATOM     19  C   UNL     1       3.825   6.412  19.135  0.00  0.00    +0.000 A 
ENDBRANCH   8  12
BRANCH   1  26
ATOM     20  C   UNL     1      -1.592  12.008  18.174  0.00  0.00    +0.000 C 
ATOM     21  C   UNL     1      -1.693  12.187  19.652  0.00  0.00    +0.000 C 
ATOM     22  N   UNL     1      -2.810  12.430  20.264  0.00  0.00    +0.000 NA
ATOM     23  N   UNL     1      -2.498  12.583  21.603  0.00  0.00    +0.000 N 
ATOM     24  C   UNL     1      -1.125  12.460  21.889  0.00  0.00    +0.000 C 
ATOM     25  O   UNL     1      -0.525  12.513  22.952  0.00  0.00    +0.000 OA
ATOM     26  C   UNL     1      -0.492  12.105  20.560  0.00  0.00    +0.000 C 
BRANCH  23  27
ATOM     27  C   UNL     1      -3.554  12.666  22.541  0.00  0.00    +0.000 A 
ATOM     28  C   UNL     1      -3.367  12.345  23.891  0.00  0.00    +0.000 A 
ATOM     29  C   UNL     1      -4.441  12.333  24.784  0.00  0.00    +0.000 A 
ATOM     30  C   UNL     1      -5.724  12.643  24.343  0.00  0.00    +0.000 A 
ATOM     31  C   UNL     1      -5.926  12.991  23.010  0.00  0.00    +0.000 A 
ATOM     32  C   UNL     1      -4.849  13.019  22.121  0.00  0.00    +0.000 A 
ENDBRANCH  23  27
ENDBRANCH   1  26
TORSDOF 3
ENDMDL
MODEL 5
REMARK VINA RESULT:      -7.8      7.299      8.810
REMARK  Name = 
REMARK  6 active torsions:
REMARK  status: ('A' for Active; 'I' for Inactive)
REMARK    1  A    between atoms: C_1  and  C_2
REMARK    2  A    between atoms: N_4  and  C_5
REMARK    3  A    between atoms: C_13  and  C_14
REMARK    4  A    between atoms: N_21  and  C_22
REMARK    5  A    between atoms: C_24  and  C_25
REMARK    6  A    between atoms: C_27  and  C_28
REMARK                            x       y       z     vdW  Elec       q    Type
REMARK                         _______ _______ _______ _____ _____    ______ ____
ROOT
ATOM      1  C   UNL     1       5.413  14.961  19.809  0.00  0.00    +0.000 C 
ATOM      2  C   UNL     1       4.096  14.851  19.535  0.00  0.00    +0.000 C 
ATOM      3  C   UNL     1       3.491  15.336  18.284  0.00  0.00    +0.000 C 
ATOM      4  O   UNL     1       4.081  15.398  17.215  0.00  0.00    +0.000 OA
ATOM      5  N   UNL     1       2.184  15.684  18.409  0.00  0.00    +0.000 N 
ATOM      6  C   UNL     1       1.310  14.970  19.176  0.00  0.00    +0.000 C 
ATOM      7  O   UNL     1       0.140  14.914  18.796  0.00  0.00    +0.000 OA
ATOM      8  N   UNL     1       1.844  14.283  20.261  0.00  0.00    +0.000 N 
ATOM      9  C   UNL     1       3.206  14.227  20.560  0.00  0.00    +0.000 C 
ATOM     10  O   UNL     1       3.684  13.755  21.586  0.00  0.00    +0.000 OA
ATOM     11  H   UNL     1       1.759  15.998  17.547  0.00  0.00    +0.000 HD
ENDROOT
BRANCH   8  12
ATOM     12  C   UNL     1       0.948  13.535  21.081  0.00  0.00    +0.000 A 
ATOM     13  C   UNL     1       0.805  12.157  20.877  0.00  0.00    +0.000 A 
ATOM     14  C   UNL     1      -0.151  11.427  21.592  0.00  0.00    +0.000 A 
ATOM     15  C   UNL     1      -0.390   9.980  21.277  0.00  0.00    +0.000 C 
ATOM     16  C   UNL     1      -0.924  12.077  22.563  0.00  0.00    +0.000 A 
ATOM     17  C   UNL     1      -0.777  13.450  22.797  0.00  0.00    +0.000 A 
ATOM     18  C   UNL     1      -1.632  14.165  23.801  0.00  0.00    +0.000 C 
ATOM     19  C   UNL     1       0.153  14.175  22.039  0.00  0.00    +0.000 A 
ENDBRANCH   8  12
BRANCH   1  26
ATOM     20  C   UNL     1       7.313  17.415  20.657  0.00  0.00    +0.000 C 
ATOM     21  C   UNL     1       7.560  16.188  19.844  0.00  0.00    +0.000 C 
ATOM     22  N   UNL     1       8.695  15.563  19.828  0.00  0.00    +0.000 NA
ATOM     23  N   UNL     1       8.556  14.519  18.930  0.00  0.00    +0.000 N 
ATOM     24  C   UNL     1       7.294  14.462  18.310  0.00  0.00    +0.000 C 
ATOM     25  O   UNL     1       6.838  13.667  17.502  0.00  0.00    +0.000 OA
ATOM     26  C   UNL     1       6.501  15.575  18.964  0.00  0.00    +0.000 C 
BRANCH  23  27
ATOM     27  C   UNL     1       9.583  13.549  18.853  0.00  0.00    +0.000 A 
ATOM     28  C   UNL     1      10.013  12.841  19.983  0.00  0.00    +0.000 A 
ATOM     29  C   UNL     1      11.096  11.962  19.913  0.00  0.00    +0.000 A 
ATOM     30  C   UNL     1      11.769  11.773  18.709  0.00  0.00    +0.000 A 
ATOM     31  C   UNL     1      11.339  12.446  17.568  0.00  0.00    +0.000 A 
ATOM     32  C   UNL     1      10.246  13.313  17.636  0.00  0.00    +0.000 A 
ENDBRANCH  23  27
ENDBRANCH   1  26
TORSDOF 3
ENDMDL
MODEL 6
REMARK VINA RESULT:      -7.8      7.168      8.812
REMARK  Name = 
REMARK  6 active torsions:
REMARK  status: ('A' for Active; 'I' for Inactive)
REMARK    1  A    between atoms: C_1  and  C_2
REMARK    2  A    between atoms: N_4  and  C_5
REMARK    3  A    between atoms: C_13  and  C_14
REMARK    4  A    between atoms: N_21  and  C_22
REMARK    5  A    between atoms: C_24  and  C_25
REMARK    6  A    between atoms: C_27  and  C_28
REMARK                            x       y       z     vdW  Elec       q    Type
REMARK                         _______ _______ _______ _____ _____    ______ ____
ROOT
ATOM      1  C   UNL     1       5.261  14.945  19.727  0.00  0.00    +0.000 C 
ATOM      2  C   UNL     1       3.955  14.812  19.417  0.00  0.00    +0.000 C 
ATOM      3  C   UNL     1       3.373  15.298  18.156  0.00  0.00    +0.000 C 
ATOM      4  O   UNL     1       3.989  15.384  17.104  0.00  0.00    +0.000 OA
ATOM      5  N   UNL     1       2.057  15.619  18.250  0.00  0.00    +0.000 N 
ATOM      6  C   UNL     1       1.178  14.880  18.986  0.00  0.00    +0.000 C 
ATOM      7  O   UNL     1       0.019  14.804  18.575  0.00  0.00    +0.000 OA
ATOM      8  N   UNL     1       1.697  14.192  20.078  0.00  0.00    +0.000 N 
ATOM      9  C   UNL     1       3.051  14.159  20.413  0.00  0.00    +0.000 C 
ATOM     10  O   UNL     1       3.512  13.686  21.445  0.00  0.00    +0.000 OA
ATOM     11  H   UNL     1       1.648  15.934  17.380  0.00  0.00    +0.000 HD
ENDROOT
BRANCH   8  12
ATOM     12  C   UNL     1       0.795  13.417  20.867  0.00  0.00    +0.000 A 
ATOM     13  C   UNL     1       0.005  14.045  21.838  0.00  0.00    +0.000 A 
ATOM     14  C   UNL     1      -0.799  13.290  22.698  0.00  0.00    +0.000 A 
ATOM     15  C   UNL     1      -1.540  13.954  23.819  0.00  0.00    +0.000 C 
ATOM     16  C   UNL     1      -0.855  11.899  22.538  0.00  0.00    +0.000 A 
ATOM     17  C   UNL     1      -0.090  11.257  21.556  0.00  0.00    +0.000 A 
ATOM     18  C   UNL     1      -0.108   9.765  21.407  0.00  0.00    +0.000 C 
ATOM     19  C   UNL     1       0.745  12.024  20.733  0.00  0.00    +0.000 A 
ENDBRANCH   8  12
BRANCH   1  26
ATOM     20  C   UNL     1       7.086  17.429  20.649  0.00  0.00    +0.000 C 
ATOM     21  C   UNL     1       7.381  16.216  19.832  0.00  0.00    +0.000 C 
ATOM     22  N   UNL     1       8.529  15.615  19.841  0.00  0.00    +0.000 NA
ATOM     23  N   UNL     1       8.436  14.577  18.930  0.00  0.00    +0.000 N 
ATOM     24  C   UNL     1       7.192  14.500  18.275  0.00  0.00    +0.000 C 
ATOM     25  O   UNL     1       6.775  13.704  17.448  0.00  0.00    +0.000 OA
ATOM     26  C   UNL     1       6.359  15.590  18.917  0.00  0.00    +0.000 C 
BRANCH  23  27
ATOM     27  C   UNL     1       9.484  13.629  18.872  0.00  0.00    +0.000 A 
ATOM     28  C   UNL     1      10.146  13.337  17.672  0.00  0.00    +0.000 A 
ATOM     29  C   UNL     1      11.108  12.325  17.608  0.00  0.00    +0.000 A 
ATOM     30  C   UNL     1      11.425  11.587  18.744  0.00  0.00    +0.000 A 
ATOM     31  C   UNL     1      10.798  11.880  19.952  0.00  0.00    +0.000 A 
ATOM     32  C   UNL     1       9.848  12.902  20.019  0.00  0.00    +0.000 A 
ENDBRANCH  23  27
ENDBRANCH   1  26
TORSDOF 3
ENDMDL
MODEL 7
REMARK VINA RESULT:      -7.5      7.759      9.136
REMARK  Name = 
REMARK  6 active torsions:
REMARK  status: ('A' for Active; 'I' for Inactive)
REMARK    1  A    between atoms: C_1  and  C_2
REMARK    2  A    between atoms: N_4  and  C_5
REMARK    3  A    between atoms: C_13  and  C_14
REMARK    4  A    between atoms: N_21  and  C_22
REMARK    5  A    between atoms: C_24  and  C_25
REMARK    6  A    between atoms: C_27  and  C_28
REMARK                            x       y       z     vdW  Elec       q    Type
REMARK                         _______ _______ _______ _____ _____    ______ ____
ROOT
ATOM      1  C   UNL     1       4.523  14.873  18.964  0.00  0.00    +0.000 C 
ATOM      2  C   UNL     1       3.237  15.221  18.757  0.00  0.00    +0.000 C 
ATOM      3  C   UNL     1       2.835  16.505  18.159  0.00  0.00    +0.000 C 
ATOM      4  O   UNL     1       3.514  17.131  17.358  0.00  0.00    +0.000 OA
ATOM      5  N   UNL     1       1.607  16.930  18.552  0.00  0.00    +0.000 N 
ATOM      6  C   UNL     1       0.558  16.073  18.717  0.00  0.00    +0.000 C 
ATOM      7  O   UNL     1      -0.568  16.501  18.457  0.00  0.00    +0.000 OA
ATOM      8  N   UNL     1       0.866  14.762  19.062  0.00  0.00    +0.000 N 
ATOM      9  C   UNL     1       2.166  14.266  19.177  0.00  0.00    +0.000 C 
ATOM     10  O   UNL     1       2.464  13.163  19.620  0.00  0.00    +0.000 OA
ATOM     11  H   UNL     1       1.319  17.801  18.127  0.00  0.00    +0.000 HD
ENDROOT
BRANCH   8  12
ATOM     12  C   UNL     1      -0.216  13.850  19.245  0.00  0.00    +0.000 A 
ATOM     13  C   UNL     1      -0.829  13.742  20.499  0.00  0.00    +0.000 A 
ATOM     14  C   UNL     1      -1.811  12.773  20.730  0.00  0.00    +0.000 A 
ATOM     15  C   UNL     1      -2.370  12.575  22.107  0.00  0.00    +0.000 C 
ATOM     16  C   UNL     1      -2.224  11.950  19.673  0.00  0.00    +0.000 A 
ATOM     17  C   UNL     1      -1.638  12.062  18.406  0.00  0.00    +0.000 A 
ATOM     18  C   UNL     1      -2.039  11.155  17.280  0.00  0.00    +0.000 C 
ATOM     19  C   UNL     1      -0.622  13.005  18.204  0.00  0.00    +0.000 A 
ENDBRANCH   8  12
BRANCH   1  26
ATOM     20  C   UNL     1       5.555  17.463  20.570  0.00  0.00    +0.000 C 
ATOM     21  C   UNL     1       6.278  16.333  19.917  0.00  0.00    +0.000 C 
ATOM     22  N   UNL     1       7.390  15.844  20.370  0.00  0.00    +0.000 NA
ATOM     23  N   UNL     1       7.776  14.857  19.480  0.00  0.00    +0.000 N 
ATOM     24  C   UNL     1       6.904  14.699  18.386  0.00  0.00    +0.000 C 
ATOM     25  O   UNL     1       6.935  13.917  17.450  0.00  0.00    +0.000 OA
ATOM     26  C   UNL     1       5.772  15.666  18.664  0.00  0.00    +0.000 C 
BRANCH  23  27
ATOM     27  C   UNL     1       8.862  14.018  19.826  0.00  0.00    +0.000 A 
ATOM     28  C   UNL     1      10.019  13.951  19.040  0.00  0.00    +0.000 A 
ATOM     29  C   UNL     1      11.039  13.043  19.336  0.00  0.00    +0.000 A 
ATOM     30  C   UNL     1      10.920  12.185  20.425  0.00  0.00    +0.000 A 
ATOM     31  C   UNL     1       9.789  12.255  21.235  0.00  0.00    +0.000 A 
ATOM     32  C   UNL     1       8.777  13.175  20.948  0.00  0.00    +0.000 A 
ENDBRANCH  23  27
ENDBRANCH   1  26
TORSDOF 3
ENDMDL
MODEL 8
REMARK VINA RESULT:      -7.4      7.837      9.065
REMARK  Name = 
REMARK  6 active torsions:
REMARK  status: ('A' for Active; 'I' for Inactive)
REMARK    1  A    between atoms: C_1  and  C_2
REMARK    2  A    between atoms: N_4  and  C_5
REMARK    3  A    between atoms: C_13  and  C_14
REMARK    4  A    between atoms: N_21  and  C_22
REMARK    5  A    between atoms: C_24  and  C_25
REMARK    6  A    between atoms: C_27  and  C_28
REMARK                            x       y       z     vdW  Elec       q    Type
REMARK                         _______ _______ _______ _____ _____    ______ ____
ROOT
ATOM      1  C   UNL     1       4.530  14.827  18.948  0.00  0.00    +0.000 C 
ATOM      2  C   UNL     1       3.237  15.161  18.759  0.00  0.00    +0.000 C 
ATOM      3  C   UNL     1       2.814  16.445  18.176  0.00  0.00    +0.000 C 
ATOM      4  O   UNL     1       3.477  17.086  17.373  0.00  0.00    +0.000 OA
ATOM      5  N   UNL     1       1.586  16.852  18.586  0.00  0.00    +0.000 N 
ATOM      6  C   UNL     1       0.548  15.982  18.754  0.00  0.00    +0.000 C 
ATOM      7  O   UNL     1      -0.585  16.399  18.510  0.00  0.00    +0.000 OA
ATOM      8  N   UNL     1       0.876  14.672  19.084  0.00  0.00    +0.000 N 
ATOM      9  C   UNL     1       2.182  14.191  19.181  0.00  0.00    +0.000 C 
ATOM     10  O   UNL     1       2.498  13.087  19.612  0.00  0.00    +0.000 OA
ATOM     11  H   UNL     1       1.283  17.724  18.171  0.00  0.00    +0.000 HD
ENDROOT
BRANCH   8  12
ATOM     12  C   UNL     1      -0.193  13.745  19.272  0.00  0.00    +0.000 A 
ATOM     13  C   UNL     1      -0.600  12.930  18.209  0.00  0.00    +0.000 A 
ATOM     14  C   UNL     1      -1.719  12.100  18.337  0.00  0.00    +0.000 A 
ATOM     15  C   UNL     1      -2.229  11.329  17.156  0.00  0.00    +0.000 C 
ATOM     16  C   UNL     1      -2.393  12.043  19.564  0.00  0.00    +0.000 A 
ATOM     17  C   UNL     1      -1.984  12.834  20.645  0.00  0.00    +0.000 A 
ATOM     18  C   UNL     1      -2.726  12.816  21.948  0.00  0.00    +0.000 C 
ATOM     19  C   UNL     1      -0.890  13.695  20.485  0.00  0.00    +0.000 A 
ENDBRANCH   8  12
BRANCH   1  26
ATOM     20  C   UNL     1       5.523  17.444  20.535  0.00  0.00    +0.000 C 
ATOM     21  C   UNL     1       6.263  16.321  19.890  0.00  0.00    +0.000 C 
ATOM     22  N   UNL     1       7.383  15.853  20.345  0.00  0.00    +0.000 NA
ATOM     23  N   UNL     1       7.783  14.865  19.462  0.00  0.00    +0.000 N 
ATOM     24  C   UNL     1       6.913  14.686  18.370  0.00  0.00    +0.000 C 
ATOM     25  O   UNL     1       6.956  13.897  17.439  0.00  0.00    +0.000 OA
ATOM     26  C   UNL     1       5.766  15.637  18.641  0.00  0.00    +0.000 C 
BRANCH  23  27
ATOM     27  C   UNL     1       8.882  14.046  19.813  0.00  0.00    +0.000 A 
ATOM     28  C   UNL     1      10.075  14.060  19.079  0.00  0.00    +0.000 A 
ATOM     29  C   UNL     1      11.113  13.172  19.374  0.00  0.00    +0.000 A 
ATOM     30  C   UNL     1      10.976  12.254  20.410  0.00  0.00    +0.000 A 
ATOM     31  C   UNL     1       9.809  12.242  21.169  0.00  0.00    +0.000 A 
ATOM     32  C   UNL     1       8.779  13.141  20.884  0.00  0.00    +0.000 A 
ENDBRANCH  23  27
ENDBRANCH   1  26
TORSDOF 3
ENDMDL
MODEL 9
REMARK VINA RESULT:      -7.4      7.272      8.745
REMARK  Name = 
REMARK  6 active torsions:
REMARK  status: ('A' for Active; 'I' for Inactive)
REMARK    1  A    between atoms: C_1  and  C_2
REMARK    2  A    between atoms: N_4  and  C_5
REMARK    3  A    between atoms: C_13  and  C_14
REMARK    4  A    between atoms: N_21  and  C_22
REMARK    5  A    between atoms: C_24  and  C_25
REMARK    6  A    between atoms: C_27  and  C_28
REMARK                            x       y       z     vdW  Elec       q    Type
REMARK                         _______ _______ _______ _____ _____    ______ ____
ROOT
ATOM      1  C   UNL     1       4.741  14.876  19.796  0.00  0.00    +0.000 C 
ATOM      2  C   UNL     1       3.498  15.234  19.415  0.00  0.00    +0.000 C 
ATOM      3  C   UNL     1       3.204  16.485  18.698  0.00  0.00    +0.000 C 
ATOM      4  O   UNL     1       3.991  17.047  17.949  0.00  0.00    +0.000 OA
ATOM      5  N   UNL     1       1.950  16.957  18.913  0.00  0.00    +0.000 N 
ATOM      6  C   UNL     1       0.866  16.133  19.000  0.00  0.00    +0.000 C 
ATOM      7  O   UNL     1      -0.208  16.566  18.581  0.00  0.00    +0.000 OA
ATOM      8  N   UNL     1       1.096  14.841  19.457  0.00  0.00    +0.000 N 
ATOM      9  C   UNL     1       2.359  14.328  19.758  0.00  0.00    +0.000 C 
ATOM     10  O   UNL     1       2.573  13.249  20.299  0.00  0.00    +0.000 OA
ATOM     11  H   UNL     1       1.738  17.806  18.406  0.00  0.00    +0.000 HD
ENDROOT
BRANCH   8  12
ATOM     12  C   UNL     1      -0.023  13.962  19.562  0.00  0.00    +0.000 A 
ATOM     13  C   UNL     1      -0.680  13.817  20.790  0.00  0.00    +0.000 A 
ATOM     14  C   UNL     1      -1.704  12.876  20.943  0.00  0.00    +0.000 A 
ATOM     15  C   UNL     1      -2.314  12.634  22.291  0.00  0.00    +0.000 C 
ATOM     16  C   UNL     1      -2.112  12.122  19.835  0.00  0.00    +0.000 A 
ATOM     17  C   UNL     1      -1.482  12.272  18.593  0.00  0.00    +0.000 A 
ATOM     18  C   UNL     1      -1.879  11.436  17.412  0.00  0.00    +0.000 C 
ATOM     19  C   UNL     1      -0.426  13.185  18.469  0.00  0.00    +0.000 A 
ENDBRANCH   8  12
BRANCH   1  26
ATOM     20  C   UNL     1       6.589  16.098  22.129  0.00  0.00    +0.000 C 
ATOM     21  C   UNL     1       6.915  15.466  20.818  0.00  0.00    +0.000 C 
ATOM     22  N   UNL     1       7.972  14.741  20.621  0.00  0.00    +0.000 NA
ATOM     23  N   UNL     1       7.956  14.378  19.286  0.00  0.00    +0.000 N 
ATOM     24  C   UNL     1       6.865  14.897  18.564  0.00  0.00    +0.000 C 
ATOM     25  O   UNL     1       6.542  14.753  17.395  0.00  0.00    +0.000 OA
ATOM     26  C   UNL     1       6.037  15.624  19.603  0.00  0.00    +0.000 C 
BRANCH  23  27
ATOM     27  C   UNL     1       8.894  13.420  18.832  0.00  0.00    +0.000 A 
ATOM     28  C   UNL     1       9.033  12.174  19.455  0.00  0.00    +0.000 A 
ATOM     29  C   UNL     1      10.032  11.280  19.062  0.00  0.00    +0.000 A 
ATOM     30  C   UNL     1      10.911  11.617  18.037  0.00  0.00    +0.000 A 
ATOM     31  C   UNL     1      10.772  12.840  17.387  0.00  0.00    +0.000 A 
ATOM     32  C   UNL     1       9.763  13.726  17.770  0.00  0.00    +0.000 A 
ENDBRANCH  23  27
ENDBRANCH   1  26
TORSDOF 3
ENDMDL
