MODEL 1
REMARK VINA RESULT:      -7.8      0.000      0.000
REMARK  Name = 
REMARK  8 active torsions:
REMARK  status: ('A' for Active; 'I' for Inactive)
REMARK    1  A    between atoms: C_1  and  O_2
REMARK    2  A    between atoms: O_2  and  C_3
REMARK    3  A    between atoms: C_6  and  C_7
REMARK    4  A    between atoms: N_9  and  C_10
REMARK    5  A    between atoms: C_13  and  N_14
REMARK    6  A    between atoms: C_21  and  C_22
REMARK    7  A    between atoms: N_23  and  C_24
REMARK    8  A    between atoms: C_24  and  C_25
REMARK                            x       y       z     vdW  Elec       q    Type
REMARK                         _______ _______ _______ _____ _____    ______ ____
ROOT
ATOM      1  C   UNL     1       1.538   9.380  18.850  0.00  0.00    +0.000 A 
ATOM      2  N   UNL     1       2.434   8.833  17.933  0.00  0.00    +0.000 N 
ATOM      3  N   UNL     1       2.682   7.519  18.392  0.00  0.00    +0.000 N 
ATOM      4  C   UNL     1       2.069   7.346  19.642  0.00  0.00    +0.000 A 
ATOM      5  O   UNL     1       2.176   6.424  20.432  0.00  0.00    +0.000 OA
ATOM      6  C   UNL     1       1.291   8.580  19.899  0.00  0.00    +0.000 A 
ATOM      7  H   UNL     1       2.072   8.872  16.979  0.00  0.00    +0.000 HD
ENDROOT
BRANCH   1  11
ATOM      8  C   UNL     1      -0.397  13.186  18.635  0.00  0.00    +0.000 A 
ATOM      9  C   UNL     1       0.990  13.094  18.764  0.00  0.00    +0.000 A 
ATOM     10  C   UNL     1       1.632  11.851  18.759  0.00  0.00    +0.000 A 
ATOM     11  C   UNL     1       0.885  10.676  18.649  0.00  0.00    +0.000 A 
ATOM     12  C   UNL     1      -0.510  10.768  18.516  0.00  0.00    +0.000 A 
ATOM     13  C   UNL     1      -1.149  12.020  18.504  0.00  0.00    +0.000 A 
BRANCH   8  15
ATOM     14  C   UNL     1       0.056  15.505  18.851  0.00  0.00    +0.000 C 
ATOM     15  O   UNL     1      -0.894  14.456  18.712  0.00  0.00    +0.000 OA
ENDBRANCH   8  15
ENDBRANCH   1  11
BRANCH   3  16
ATOM     16  C   UNL     1       3.650   6.664  17.816  0.00  0.00    +0.000 A 
ATOM     17  C   UNL     1       4.896   7.186  17.422  0.00  0.00    +0.000 A 
ATOM     18  C   UNL     1       5.856   6.400  16.780  0.00  0.00    +0.000 A 
ATOM     19  C   UNL     1       5.581   5.057  16.534  0.00  0.00    +0.000 A 
ATOM     20  C   UNL     1       4.361   4.500  16.947  0.00  0.00    +0.000 A 
ATOM     21  C   UNL     1       3.405   5.303  17.595  0.00  0.00    +0.000 A 
BRANCH  19  22
ATOM     22  N   UNL     1       6.574   4.236  15.831  0.00  0.00    +0.000 N 
ATOM     23  O   UNL     1       6.176   3.510  14.907  0.00  0.00    +0.000 OA
ATOM     24  O   UNL     1       7.753   4.320  16.202  0.00  0.00    +0.000 OA
ENDBRANCH  19  22
ENDBRANCH   3  16
BRANCH   6  25
ATOM     25  C   UNL     1       0.440   8.814  21.067  0.00  0.00    +0.000 C 
ATOM     26  N   UNL     1       0.579   9.868  21.783  0.00  0.00    +0.000 NA
BRANCH  26  27
ATOM     27  C   UNL     1      -0.377  10.065  22.867  0.00  0.00    +0.000 C 
BRANCH  27  28
ATOM     28  C   UNL     1      -1.024  11.432  22.783  0.00  0.00    +0.000 A 
ATOM     29  C   UNL     1      -2.307  11.664  23.304  0.00  0.00    +0.000 A 
ATOM     30  C   UNL     1      -2.886  12.932  23.237  0.00  0.00    +0.000 A 
ATOM     31  C   UNL     1      -2.185  13.987  22.658  0.00  0.00    +0.000 A 
ATOM     32  C   UNL     1      -0.904  13.775  22.151  0.00  0.00    +0.000 A 
ATOM     33  C   UNL     1      -0.323  12.507  22.220  0.00  0.00    +0.000 A 
ENDBRANCH  27  28
ENDBRANCH  26  27
ENDBRANCH   6  25
TORSDOF 7
ENDMDL
MODEL 2
REMARK VINA RESULT:      -7.8      2.326      9.201
REMARK  Name = 
REMARK  8 active torsions:
REMARK  status: ('A' for Active; 'I' for Inactive)
REMARK    1  A    between atoms: C_1  and  O_2
REMARK    2  A    between atoms: O_2  and  C_3
REMARK    3  A    between atoms: C_6  and  C_7
REMARK    4  A    between atoms: N_9  and  C_10
REMARK    5  A    between atoms: C_13  and  N_14
REMARK    6  A    between atoms: C_21  and  C_22
REMARK    7  A    between atoms: N_23  and  C_24
REMARK    8  A    between atoms: C_24  and  C_25
REMARK                            x       y       z     vdW  Elec       q    Type
REMARK                         _______ _______ _______ _____ _____    ______ ____
ROOT
ATOM      1  C   UNL     1       2.664   7.545  18.429  0.00  0.00    +0.000 A 
ATOM      2  N   UNL     1       2.309   8.843  18.064  0.00  0.00    +0.000 N 
ATOM      3  N   UNL     1       1.641   9.378  19.190  0.00  0.00    +0.000 N 
ATOM      4  C   UNL     1       1.467   8.364  20.144  0.00  0.00    +0.000 A 
ATOM      5  O   UNL     1       0.808   8.377  21.169  0.00  0.00    +0.000 OA
ATOM      6  C   UNL     1       2.185   7.177  19.628  0.00  0.00    +0.000 A 
ATOM      7  H   UNL     1       3.119   9.390  17.770  0.00  0.00    +0.000 HD
ENDROOT
BRANCH   1  11
ATOM      8  C   UNL     1       5.377   4.981  16.346  0.00  0.00    +0.000 A 
ATOM      9  C   UNL     1       4.207   4.475  16.915  0.00  0.00    +0.000 A 
ATOM     10  C   UNL     1       3.282   5.324  17.531  0.00  0.00    +0.000 A 
ATOM     11  C   UNL     1       3.531   6.696  17.608  0.00  0.00    +0.000 A 
ATOM     12  C   UNL     1       4.705   7.206  17.033  0.00  0.00    +0.000 A 
ATOM     13  C   UNL     1       5.624   6.352  16.400  0.00  0.00    +0.000 A 
BRANCH   8  15
ATOM     14  C   UNL     1       6.236   3.907  14.412  0.00  0.00    +0.000 C 
ATOM     15  O   UNL     1       6.216   4.035  15.828  0.00  0.00    +0.000 OA
ENDBRANCH   8  15
ENDBRANCH   1  11
BRANCH   3  16
ATOM     16  C   UNL     1       0.995  10.635  19.185  0.00  0.00    +0.000 A 
ATOM     17  C   UNL     1       1.756  11.812  19.060  0.00  0.00    +0.000 A 
ATOM     18  C   UNL     1       1.173  13.079  19.126  0.00  0.00    +0.000 A 
ATOM     19  C   UNL     1      -0.204  13.185  19.306  0.00  0.00    +0.000 A 
ATOM     20  C   UNL     1      -0.994  12.030  19.398  0.00  0.00    +0.000 A 
ATOM     21  C   UNL     1      -0.394  10.760  19.328  0.00  0.00    +0.000 A 
BRANCH  19  22
ATOM     22  N   UNL     1      -0.816  14.516  19.407  0.00  0.00    +0.000 N 
ATOM     23  O   UNL     1      -1.687  14.688  20.274  0.00  0.00    +0.000 OA
ATOM     24  O   UNL     1      -0.423  15.388  18.621  0.00  0.00    +0.000 OA
ENDBRANCH  19  22
ENDBRANCH   3  16
BRANCH   6  25
ATOM     25  C   UNL     1       2.319   5.899  20.329  0.00  0.00    +0.000 C 
ATOM     26  N   UNL     1       1.295   5.165  20.565  0.00  0.00    +0.000 NA
BRANCH  26  27
ATOM     27  C   UNL     1       1.537   3.865  21.180  0.00  0.00    +0.000 C 
BRANCH  27  28
ATOM     28  C   UNL     1       2.282   2.945  20.237  0.00  0.00    +0.000 A 
ATOM     29  C   UNL     1       1.672   2.443  19.076  0.00  0.00    +0.000 A 
ATOM     30  C   UNL     1       2.375   1.611  18.204  0.00  0.00    +0.000 A 
ATOM     31  C   UNL     1       3.699   1.278  18.476  0.00  0.00    +0.000 A 
ATOM     32  C   UNL     1       4.322   1.781  19.616  0.00  0.00    +0.000 A 
ATOM     33  C   UNL     1       3.621   2.616  20.488  0.00  0.00    +0.000 A 
ENDBRANCH  27  28
ENDBRANCH  26  27
ENDBRANCH   6  25
TORSDOF 7
ENDMDL
MODEL 3
REMARK VINA RESULT:      -7.8      2.394      9.274
REMARK  Name = 
REMARK  8 active torsions:
REMARK  status: ('A' for Active; 'I' for Inactive)
REMARK    1  A    between atoms: C_1  and  O_2
REMARK    2  A    between atoms: O_2  and  C_3
REMARK    3  A    between atoms: C_6  and  C_7
REMARK    4  A    between atoms: N_9  and  C_10
REMARK    5  A    between atoms: C_13  and  N_14
REMARK    6  A    between atoms: C_21  and  C_22
REMARK    7  A    between atoms: N_23  and  C_24
REMARK    8  A    between atoms: C_24  and  C_25
REMARK                            x       y       z     vdW  Elec       q    Type
REMARK                         _______ _______ _______ _____ _____    ______ ____
ROOT
ATOM      1  C   UNL     1       2.453   7.565  18.689  0.00  0.00    +0.000 A 
ATOM      2  N   UNL     1       2.027   8.858  18.387  0.00  0.00    +0.000 N 
ATOM      3  N   UNL     1       1.376   9.319  19.556  0.00  0.00    +0.000 N 
ATOM      4  C   UNL     1       1.282   8.263  20.475  0.00  0.00    +0.000 A 
ATOM      5  O   UNL     1       0.661   8.208  21.522  0.00  0.00    +0.000 OA
ATOM      6  C   UNL     1       2.034   7.130  19.889  0.00  0.00    +0.000 A 
ATOM      7  H   UNL     1       2.800   9.452  18.087  0.00  0.00    +0.000 HD
ENDROOT
BRANCH   1  11
ATOM      8  C   UNL     1       5.205   5.213  16.416  0.00  0.00    +0.000 A 
ATOM      9  C   UNL     1       4.090   4.628  17.017  0.00  0.00    +0.000 A 
ATOM     10  C   UNL     1       3.149   5.407  17.698  0.00  0.00    +0.000 A 
ATOM     11  C   UNL     1       3.327   6.789  17.806  0.00  0.00    +0.000 A 
ATOM     12  C   UNL     1       4.446   7.378  17.199  0.00  0.00    +0.000 A 
ATOM     13  C   UNL     1       5.381   6.593  16.502  0.00  0.00    +0.000 A 
BRANCH   8  15
ATOM     14  C   UNL     1       5.968   4.172  14.425  0.00  0.00    +0.000 C 
ATOM     15  O   UNL     1       6.070   4.330  15.834  0.00  0.00    +0.000 OA
ENDBRANCH   8  15
ENDBRANCH   1  11
BRANCH   3  16
ATOM     16  C   UNL     1       0.674  10.544  19.622  0.00  0.00    +0.000 A 
ATOM     17  C   UNL     1       1.222  11.626  20.336  0.00  0.00    +0.000 A 
ATOM     18  C   UNL     1       0.533  12.830  20.494  0.00  0.00    +0.000 A 
ATOM     19  C   UNL     1      -0.726  12.974  19.917  0.00  0.00    +0.000 A 
ATOM     20  C   UNL     1      -1.284  11.926  19.170  0.00  0.00    +0.000 A 
ATOM     21  C   UNL     1      -0.578  10.718  19.016  0.00  0.00    +0.000 A 
BRANCH  19  22
ATOM     22  N   UNL     1      -1.467  14.227  20.108  0.00  0.00    +0.000 N 
ATOM     23  O   UNL     1      -0.919  15.283  19.758  0.00  0.00    +0.000 OA
ATOM     24  O   UNL     1      -2.598  14.153  20.607  0.00  0.00    +0.000 OA
ENDBRANCH  19  22
ENDBRANCH   3  16
BRANCH   6  25
ATOM     25  C   UNL     1       2.251   5.835  20.535  0.00  0.00    +0.000 C 
ATOM     26  N   UNL     1       1.276   5.030  20.742  0.00  0.00    +0.000 NA
BRANCH  26  27
ATOM     27  C   UNL     1       1.602   3.722  21.301  0.00  0.00    +0.000 C 
BRANCH  27  28
ATOM     28  C   UNL     1       2.378   2.882  20.309  0.00  0.00    +0.000 A 
ATOM     29  C   UNL     1       3.732   2.574  20.519  0.00  0.00    +0.000 A 
ATOM     30  C   UNL     1       4.433   1.783  19.608  0.00  0.00    +0.000 A 
ATOM     31  C   UNL     1       3.787   1.283  18.480  0.00  0.00    +0.000 A 
ATOM     32  C   UNL     1       2.441   1.568  18.267  0.00  0.00    +0.000 A 
ATOM     33  C   UNL     1       1.737   2.356  19.180  0.00  0.00    +0.000 A 
ENDBRANCH  27  28
ENDBRANCH  26  27
ENDBRANCH   6  25
TORSDOF 7
ENDMDL
MODEL 4
REMARK VINA RESULT:      -7.7      2.405      9.176
REMARK  Name = 
REMARK  8 active torsions:
REMARK  status: ('A' for Active; 'I' for Inactive)
REMARK    1  A    between atoms: C_1  and  O_2
REMARK    2  A    between atoms: O_2  and  C_3
REMARK    3  A    between atoms: C_6  and  C_7
REMARK    4  A    between atoms: N_9  and  C_10
REMARK    5  A    between atoms: C_13  and  N_14
REMARK    6  A    between atoms: C_21  and  C_22
REMARK    7  A    between atoms: N_23  and  C_24
REMARK    8  A    between atoms: C_24  and  C_25
REMARK                            x       y       z     vdW  Elec       q    Type
REMARK                         _______ _______ _______ _____ _____    ______ ____
ROOT
ATOM      1  C   UNL     1       2.550   7.463  18.739  0.00  0.00    +0.000 A 
ATOM      2  N   UNL     1       2.184   8.773  18.436  0.00  0.00    +0.000 N 
ATOM      3  N   UNL     1       1.476   9.235  19.570  0.00  0.00    +0.000 N 
ATOM      4  C   UNL     1       1.292   8.167  20.461  0.00  0.00    +0.000 A 
ATOM      5  O   UNL     1       0.605   8.113  21.467  0.00  0.00    +0.000 OA
ATOM      6  C   UNL     1       2.044   7.021  19.901  0.00  0.00    +0.000 A 
ATOM      7  H   UNL     1       2.993   9.348  18.195  0.00  0.00    +0.000 HD
ENDROOT
BRANCH   1  11
ATOM      8  C   UNL     1       4.951   5.230  15.996  0.00  0.00    +0.000 A 
ATOM      9  C   UNL     1       5.134   6.605  16.154  0.00  0.00    +0.000 A 
ATOM     10  C   UNL     1       4.402   7.323  17.103  0.00  0.00    +0.000 A 
ATOM     11  C   UNL     1       3.453   6.674  17.897  0.00  0.00    +0.000 A 
ATOM     12  C   UNL     1       3.270   5.291  17.742  0.00  0.00    +0.000 A 
ATOM     13  C   UNL     1       4.021   4.570  16.797  0.00  0.00    +0.000 A 
BRANCH   8  15
ATOM     14  C   UNL     1       7.100   4.840  15.069  0.00  0.00    +0.000 C 
ATOM     15  O   UNL     1       5.691   4.666  14.995  0.00  0.00    +0.000 OA
ENDBRANCH   8  15
ENDBRANCH   1  11
BRANCH   3  16
ATOM     16  C   UNL     1       0.810  10.481  19.616  0.00  0.00    +0.000 A 
ATOM     17  C   UNL     1       1.077  11.378  20.666  0.00  0.00    +0.000 A 
ATOM     18  C   UNL     1       0.390  12.587  20.798  0.00  0.00    +0.000 A 
ATOM     19  C   UNL     1      -0.578  12.924  19.856  0.00  0.00    +0.000 A 
ATOM     20  C   UNL     1      -0.843  12.066  18.779  0.00  0.00    +0.000 A 
ATOM     21  C   UNL     1      -0.141  10.852  18.657  0.00  0.00    +0.000 A 
BRANCH  19  22
ATOM     22  N   UNL     1      -1.325  14.179  20.009  0.00  0.00    +0.000 N 
ATOM     23  O   UNL     1      -2.397  14.143  20.633  0.00  0.00    +0.000 OA
ATOM     24  O   UNL     1      -0.837  15.200  19.506  0.00  0.00    +0.000 OA
ENDBRANCH  19  22
ENDBRANCH   3  16
BRANCH   6  25
ATOM     25  C   UNL     1       2.180   5.708  20.535  0.00  0.00    +0.000 C 
ATOM     26  N   UNL     1       1.166   4.938  20.679  0.00  0.00    +0.000 NA
BRANCH  26  27
ATOM     27  C   UNL     1       1.414   3.610  21.230  0.00  0.00    +0.000 C 
BRANCH  27  28
ATOM     28  C   UNL     1       2.262   2.779  20.291  0.00  0.00    +0.000 A 
ATOM     29  C   UNL     1       1.737   2.271  19.092  0.00  0.00    +0.000 A 
ATOM     30  C   UNL     1       2.533   1.522  18.225  0.00  0.00    +0.000 A 
ATOM     31  C   UNL     1       3.867   1.279  18.541  0.00  0.00    +0.000 A 
ATOM     32  C   UNL     1       4.406   1.790  19.720  0.00  0.00    +0.000 A 
ATOM     33  C   UNL     1       3.612   2.542  20.586  0.00  0.00    +0.000 A 
ENDBRANCH  27  28
ENDBRANCH  26  27
ENDBRANCH   6  25
TORSDOF 7
ENDMDL
MODEL 5
REMARK VINA RESULT:      -7.6      2.360      9.149
REMARK  Name = 
REMARK  8 active torsions:
REMARK  status: ('A' for Active; 'I' for Inactive)
REMARK    1  A    between atoms: C_1  and  O_2
REMARK    2  A    between atoms: O_2  and  C_3
REMARK    3  A    between atoms: C_6  and  C_7
REMARK    4  A    between atoms: N_9  and  C_10
REMARK    5  A    between atoms: C_13  and  N_14
REMARK    6  A    between atoms: C_21  and  C_22
REMARK    7  A    between atoms: N_23  and  C_24
REMARK    8  A    between atoms: C_24  and  C_25
REMARK                            x       y       z     vdW  Elec       q    Type
REMARK                         _______ _______ _______ _____ _____    ______ ____
ROOT
ATOM      1  C   UNL     1       2.704   7.415  18.499  0.00  0.00    +0.000 A 
ATOM      2  N   UNL     1       2.362   8.715  18.131  0.00  0.00    +0.000 N 
ATOM      3  N   UNL     1       1.666   9.246  19.242  0.00  0.00    +0.000 N 
ATOM      4  C   UNL     1       1.464   8.228  20.186  0.00  0.00    +0.000 A 
ATOM      5  O   UNL     1       0.779   8.238  21.194  0.00  0.00    +0.000 OA
ATOM      6  C   UNL     1       2.193   7.041  19.683  0.00  0.00    +0.000 A 
ATOM      7  H   UNL     1       3.181   9.262  17.860  0.00  0.00    +0.000 HD
ENDROOT
BRANCH   1  11
ATOM      8  C   UNL     1       5.053   4.996  15.869  0.00  0.00    +0.000 A 
ATOM      9  C   UNL     1       5.248   6.377  15.939  0.00  0.00    +0.000 A 
ATOM     10  C   UNL     1       4.533   7.159  16.852  0.00  0.00    +0.000 A 
ATOM     11  C   UNL     1       3.590   6.568  17.696  0.00  0.00    +0.000 A 
ATOM     12  C   UNL     1       3.395   5.179  17.629  0.00  0.00    +0.000 A 
ATOM     13  C   UNL     1       4.128   4.395  16.721  0.00  0.00    +0.000 A 
BRANCH   8  15
ATOM     14  C   UNL     1       7.058   4.904  14.605  0.00  0.00    +0.000 C 
ATOM     15  O   UNL     1       5.774   4.366  14.896  0.00  0.00    +0.000 OA
ENDBRANCH   8  15
ENDBRANCH   1  11
BRANCH   3  16
ATOM     16  C   UNL     1       1.023  10.505  19.226  0.00  0.00    +0.000 A 
ATOM     17  C   UNL     1       1.741  11.652  18.840  0.00  0.00    +0.000 A 
ATOM     18  C   UNL     1       1.173  12.927  18.881  0.00  0.00    +0.000 A 
ATOM     19  C   UNL     1      -0.147  13.070  19.302  0.00  0.00    +0.000 A 
ATOM     20  C   UNL     1      -0.899  11.942  19.660  0.00  0.00    +0.000 A 
ATOM     21  C   UNL     1      -0.315  10.662  19.612  0.00  0.00    +0.000 A 
BRANCH  19  22
ATOM     22  N   UNL     1      -0.737  14.413  19.377  0.00  0.00    +0.000 N 
ATOM     23  O   UNL     1      -0.319  15.274  18.588  0.00  0.00    +0.000 OA
ATOM     24  O   UNL     1      -1.620  14.603  20.224  0.00  0.00    +0.000 OA
ENDBRANCH  19  22
ENDBRANCH   3  16
BRANCH   6  25
ATOM     25  C   UNL     1       2.306   5.760  20.381  0.00  0.00    +0.000 C 
ATOM     26  N   UNL     1       1.272   5.035  20.600  0.00  0.00    +0.000 NA
BRANCH  26  27
ATOM     27  C   UNL     1       1.494   3.730  21.214  0.00  0.00    +0.000 C 
BRANCH  27  28
ATOM     28  C   UNL     1       2.351   2.849  20.329  0.00  0.00    +0.000 A 
ATOM     29  C   UNL     1       3.678   2.545  20.671  0.00  0.00    +0.000 A 
ATOM     30  C   UNL     1       4.453   1.717  19.858  0.00  0.00    +0.000 A 
ATOM     31  C   UNL     1       3.907   1.174  18.698  0.00  0.00    +0.000 A 
ATOM     32  C   UNL     1       2.586   1.455  18.354  0.00  0.00    +0.000 A 
ATOM     33  C   UNL     1       1.810   2.280  19.168  0.00  0.00    +0.000 A 
ENDBRANCH  27  28
ENDBRANCH  26  27
ENDBRANCH   6  25
TORSDOF 7
ENDMDL
MODEL 6
REMARK VINA RESULT:      -7.6      2.654      9.895
REMARK  Name = 
REMARK  8 active torsions:
REMARK  status: ('A' for Active; 'I' for Inactive)
REMARK    1  A    between atoms: C_1  and  O_2
REMARK    2  A    between atoms: O_2  and  C_3
REMARK    3  A    between atoms: C_6  and  C_7
REMARK    4  A    between atoms: N_9  and  C_10
REMARK    5  A    between atoms: C_13  and  N_14
REMARK    6  A    between atoms: C_21  and  C_22
REMARK    7  A    between atoms: N_23  and  C_24
REMARK    8  A    between atoms: C_24  and  C_25
REMARK                            x       y       z     vdW  Elec       q    Type
REMARK                         _______ _______ _______ _____ _____    ______ ____
ROOT
ATOM      1  C   UNL     1       1.827   7.350  20.028  0.00  0.00    +0.000 A 
ATOM      2  N   UNL     1       1.159   8.028  21.047  0.00  0.00    +0.000 N 
ATOM      3  N   UNL     1       0.733   9.246  20.467  0.00  0.00    +0.000 N 
ATOM      4  C   UNL     1       1.274   9.354  19.178  0.00  0.00    +0.000 A 
ATOM      5  O   UNL     1       1.274  10.309  18.421  0.00  0.00    +0.000 OA
ATOM      6  C   UNL     1       1.960   8.070  18.903  0.00  0.00    +0.000 A 
ATOM      7  H   UNL     1       0.398   7.472  21.438  0.00  0.00    +0.000 HD
ENDROOT
BRANCH   1  11
ATOM      8  C   UNL     1       3.056   3.255  20.050  0.00  0.00    +0.000 A 
ATOM      9  C   UNL     1       3.945   4.268  19.685  0.00  0.00    +0.000 A 
ATOM     10  C   UNL     1       3.567   5.613  19.749  0.00  0.00    +0.000 A 
ATOM     11  C   UNL     1       2.278   5.962  20.159  0.00  0.00    +0.000 A 
ATOM     12  C   UNL     1       1.385   4.945  20.529  0.00  0.00    +0.000 A 
ATOM     13  C   UNL     1       1.774   3.595  20.478  0.00  0.00    +0.000 A 
BRANCH   8  15
ATOM     14  C   UNL     1       3.527   1.470  18.560  0.00  0.00    +0.000 C 
ATOM     15  O   UNL     1       3.536   1.987  19.885  0.00  0.00    +0.000 OA
ENDBRANCH   8  15
ENDBRANCH   1  11
BRANCH   3  16
ATOM     16  C   UNL     1       0.132  10.290  21.207  0.00  0.00    +0.000 A 
ATOM     17  C   UNL     1       0.344  11.628  20.826  0.00  0.00    +0.000 A 
ATOM     18  C   UNL     1      -0.164  12.696  21.568  0.00  0.00    +0.000 A 
ATOM     19  C   UNL     1      -0.915  12.434  22.711  0.00  0.00    +0.000 A 
ATOM     20  C   UNL     1      -1.171  11.110  23.098  0.00  0.00    +0.000 A 
ATOM     21  C   UNL     1      -0.656  10.043  22.339  0.00  0.00    +0.000 A 
BRANCH  19  22
ATOM     22  N   UNL     1      -1.423  13.555  23.512  0.00  0.00    +0.000 N 
ATOM     23  O   UNL     1      -0.631  14.462  23.807  0.00  0.00    +0.000 OA
ATOM     24  O   UNL     1      -2.617  13.527  23.842  0.00  0.00    +0.000 OA
ENDBRANCH  19  22
ENDBRANCH   3  16
BRANCH   6  25
ATOM     25  C   UNL     1       2.619   7.716  17.645  0.00  0.00    +0.000 C 
ATOM     26  N   UNL     1       3.884   7.855  17.501  0.00  0.00    +0.000 NA
BRANCH  26  27
ATOM     27  C   UNL     1       4.467   7.384  16.250  0.00  0.00    +0.000 C 
BRANCH  27  28
ATOM     28  C   UNL     1       5.534   6.340  16.503  0.00  0.00    +0.000 A 
ATOM     29  C   UNL     1       5.663   5.214  15.674  0.00  0.00    +0.000 A 
ATOM     30  C   UNL     1       6.662   4.268  15.905  0.00  0.00    +0.000 A 
ATOM     31  C   UNL     1       7.552   4.441  16.963  0.00  0.00    +0.000 A 
ATOM     32  C   UNL     1       7.445   5.561  17.784  0.00  0.00    +0.000 A 
ATOM     33  C   UNL     1       6.448   6.510  17.552  0.00  0.00    +0.000 A 
ENDBRANCH  27  28
ENDBRANCH  26  27
ENDBRANCH   6  25
TORSDOF 7
ENDMDL
MODEL 7
REMARK VINA RESULT:      -7.6      2.665      9.880
REMARK  Name = 
REMARK  8 active torsions:
REMARK  status: ('A' for Active; 'I' for Inactive)
REMARK    1  A    between atoms: C_1  and  O_2
REMARK    2  A    between atoms: O_2  and  C_3
REMARK    3  A    between atoms: C_6  and  C_7
REMARK    4  A    between atoms: N_9  and  C_10
REMARK    5  A    between atoms: C_13  and  N_14
REMARK    6  A    between atoms: C_21  and  C_22
REMARK    7  A    between atoms: N_23  and  C_24
REMARK    8  A    between atoms: C_24  and  C_25
REMARK                            x       y       z     vdW  Elec       q    Type
REMARK                         _______ _______ _______ _____ _____    ______ ____
ROOT
ATOM      1  C   UNL     1       1.828   7.288  20.037  0.00  0.00    +0.000 A 
ATOM      2  N   UNL     1       1.150   7.969  21.047  0.00  0.00    +0.000 N 
ATOM      3  N   UNL     1       0.748   9.194  20.467  0.00  0.00    +0.000 N 
ATOM      4  C   UNL     1       1.313   9.303  19.187  0.00  0.00    +0.000 A 
ATOM      5  O   UNL     1       1.338  10.262  18.436  0.00  0.00    +0.000 OA
ATOM      6  C   UNL     1       1.989   8.014  18.918  0.00  0.00    +0.000 A 
ATOM      7  H   UNL     1       0.375   7.419  21.422  0.00  0.00    +0.000 HD
ENDROOT
BRANCH   1  11
ATOM      8  C   UNL     1       2.996   3.176  20.061  0.00  0.00    +0.000 A 
ATOM      9  C   UNL     1       3.891   4.173  19.669  0.00  0.00    +0.000 A 
ATOM     10  C   UNL     1       3.536   5.524  19.732  0.00  0.00    +0.000 A 
ATOM     11  C   UNL     1       2.262   5.895  20.168  0.00  0.00    +0.000 A 
ATOM     12  C   UNL     1       1.361   4.894  20.565  0.00  0.00    +0.000 A 
ATOM     13  C   UNL     1       1.729   3.538  20.516  0.00  0.00    +0.000 A 
BRANCH   8  15
ATOM     14  C   UNL     1       3.632   1.456  18.556  0.00  0.00    +0.000 C 
ATOM     15  O   UNL     1       3.454   1.900  19.895  0.00  0.00    +0.000 OA
ENDBRANCH   8  15
ENDBRANCH   1  11
BRANCH   3  16
ATOM     16  C   UNL     1       0.146  10.241  21.202  0.00  0.00    +0.000 A 
ATOM     17  C   UNL     1       0.308  11.574  20.780  0.00  0.00    +0.000 A 
ATOM     18  C   UNL     1      -0.202  12.648  21.513  0.00  0.00    +0.000 A 
ATOM     19  C   UNL     1      -0.905  12.395  22.689  0.00  0.00    +0.000 A 
ATOM     20  C   UNL     1      -1.112  11.076  23.117  0.00  0.00    +0.000 A 
ATOM     21  C   UNL     1      -0.595  10.003  22.367  0.00  0.00    +0.000 A 
BRANCH  19  22
ATOM     22  N   UNL     1      -1.415  13.523  23.479  0.00  0.00    +0.000 N 
ATOM     23  O   UNL     1      -2.616  13.517  23.787  0.00  0.00    +0.000 OA
ATOM     24  O   UNL     1      -0.612  14.412  23.792  0.00  0.00    +0.000 OA
ENDBRANCH  19  22
ENDBRANCH   3  16
BRANCH   6  25
ATOM     25  C   UNL     1       2.667   7.658  17.670  0.00  0.00    +0.000 C 
ATOM     26  N   UNL     1       3.919   7.880  17.513  0.00  0.00    +0.000 NA
BRANCH  26  27
ATOM     27  C   UNL     1       4.528   7.404  16.276  0.00  0.00    +0.000 C 
BRANCH  27  28
ATOM     28  C   UNL     1       5.606   6.379  16.558  0.00  0.00    +0.000 A 
ATOM     29  C   UNL     1       6.505   6.543  17.625  0.00  0.00    +0.000 A 
ATOM     30  C   UNL     1       7.483   5.583  17.887  0.00  0.00    +0.000 A 
ATOM     31  C   UNL     1       7.568   4.442  17.093  0.00  0.00    +0.000 A 
ATOM     32  C   UNL     1       6.673   4.258  16.042  0.00  0.00    +0.000 A 
ATOM     33  C   UNL     1       5.692   5.217  15.780  0.00  0.00    +0.000 A 
ENDBRANCH  27  28
ENDBRANCH  26  27
ENDBRANCH   6  25
TORSDOF 7
ENDMDL
MODEL 8
REMARK VINA RESULT:      -7.5      2.421      9.222
REMARK  Name = 
REMARK  8 active torsions:
REMARK  status: ('A' for Active; 'I' for Inactive)
REMARK    1  A    between atoms: C_1  and  O_2
REMARK    2  A    between atoms: O_2  and  C_3
REMARK    3  A    between atoms: C_6  and  C_7
REMARK    4  A    between atoms: N_9  and  C_10
REMARK    5  A    between atoms: C_13  and  N_14
REMARK    6  A    between atoms: C_21  and  C_22
REMARK    7  A    between atoms: N_23  and  C_24
REMARK    8  A    between atoms: C_24  and  C_25
REMARK                            x       y       z     vdW  Elec       q    Type
REMARK                         _______ _______ _______ _____ _____    ______ ____
ROOT
ATOM      1  C   UNL     1       2.451   7.514  18.914  0.00  0.00    +0.000 A 
ATOM      2  N   UNL     1       2.058   8.835  18.707  0.00  0.00    +0.000 N 
ATOM      3  N   UNL     1       1.302   9.183  19.850  0.00  0.00    +0.000 N 
ATOM      4  C   UNL     1       1.119   8.041  20.644  0.00  0.00    +0.000 A 
ATOM      5  O   UNL     1       0.402   7.887  21.618  0.00  0.00    +0.000 OA
ATOM      6  C   UNL     1       1.921   6.965  20.019  0.00  0.00    +0.000 A 
ATOM      7  H   UNL     1       2.858   9.448  18.542  0.00  0.00    +0.000 HD
ENDROOT
BRANCH   1  11
ATOM      8  C   UNL     1       4.982   5.540  16.090  0.00  0.00    +0.000 A 
ATOM      9  C   UNL     1       5.040   6.924  16.259  0.00  0.00    +0.000 A 
ATOM     10  C   UNL     1       4.267   7.563  17.234  0.00  0.00    +0.000 A 
ATOM     11  C   UNL     1       3.402   6.820  18.042  0.00  0.00    +0.000 A 
ATOM     12  C   UNL     1       3.345   5.428  17.875  0.00  0.00    +0.000 A 
ATOM     13  C   UNL     1       4.136   4.789  16.905  0.00  0.00    +0.000 A 
BRANCH   8  15
ATOM     14  C   UNL     1       6.197   3.714  15.186  0.00  0.00    +0.000 C 
ATOM     15  O   UNL     1       5.745   5.057  15.065  0.00  0.00    +0.000 OA
ENDBRANCH   8  15
ENDBRANCH   1  11
BRANCH   3  16
ATOM     16  C   UNL     1       0.599  10.404  19.975  0.00  0.00    +0.000 A 
ATOM     17  C   UNL     1      -0.505  10.663  19.143  0.00  0.00    +0.000 A 
ATOM     18  C   UNL     1      -1.184  11.882  19.175  0.00  0.00    +0.000 A 
ATOM     19  C   UNL     1      -0.768  12.869  20.066  0.00  0.00    +0.000 A 
ATOM     20  C   UNL     1       0.308  12.628  20.932  0.00  0.00    +0.000 A 
ATOM     21  C   UNL     1       0.982  11.393  20.891  0.00  0.00    +0.000 A 
BRANCH  19  22
ATOM     22  N   UNL     1      -1.459  14.164  20.080  0.00  0.00    +0.000 N 
ATOM     23  O   UNL     1      -0.881  15.135  19.569  0.00  0.00    +0.000 OA
ATOM     24  O   UNL     1      -2.582  14.208  20.600  0.00  0.00    +0.000 OA
ENDBRANCH  19  22
ENDBRANCH   3  16
BRANCH   6  25
ATOM     25  C   UNL     1       2.073   5.608  20.547  0.00  0.00    +0.000 C 
ATOM     26  N   UNL     1       1.056   4.845  20.708  0.00  0.00    +0.000 NA
BRANCH  26  27
ATOM     27  C   UNL     1       1.314   3.478  21.146  0.00  0.00    +0.000 C 
BRANCH  27  28
ATOM     28  C   UNL     1       2.178   2.738  20.146  0.00  0.00    +0.000 A 
ATOM     29  C   UNL     1       1.658   2.305  18.915  0.00  0.00    +0.000 A 
ATOM     30  C   UNL     1       2.467   1.641  17.993  0.00  0.00    +0.000 A 
ATOM     31  C   UNL     1       3.809   1.410  18.285  0.00  0.00    +0.000 A 
ATOM     32  C   UNL     1       4.342   1.848  19.495  0.00  0.00    +0.000 A 
ATOM     33  C   UNL     1       3.534   2.515  20.417  0.00  0.00    +0.000 A 
ENDBRANCH  27  28
ENDBRANCH  26  27
ENDBRANCH   6  25
TORSDOF 7
ENDMDL
MODEL 9
REMARK VINA RESULT:      -7.2      2.846      4.329
REMARK  Name = 
REMARK  8 active torsions:
REMARK  status: ('A' for Active; 'I' for Inactive)
REMARK    1  A    between atoms: C_1  and  O_2
REMARK    2  A    between atoms: O_2  and  C_3
REMARK    3  A    between atoms: C_6  and  C_7
REMARK    4  A    between atoms: N_9  and  C_10
REMARK    5  A    between atoms: C_13  and  N_14
REMARK    6  A    between atoms: C_21  and  C_22
REMARK    7  A    between atoms: N_23  and  C_24
REMARK    8  A    between atoms: C_24  and  C_25
REMARK                            x       y       z     vdW  Elec       q    Type
REMARK                         _______ _______ _______ _____ _____    ______ ____
ROOT
ATOM      1  C   UNL     1       0.812   9.164  20.576  0.00  0.00    +0.000 A 
ATOM      2  N   UNL     1       1.459   8.030  21.065  0.00  0.00    +0.000 N 
ATOM      3  N   UNL     1       1.966   7.368  19.923  0.00  0.00    +0.000 N 
ATOM      4  C   UNL     1       1.493   8.014  18.771  0.00  0.00    +0.000 A 
ATOM      5  O   UNL     1       1.571   7.665  17.606  0.00  0.00    +0.000 OA
ATOM      6  C   UNL     1       0.765   9.217  19.235  0.00  0.00    +0.000 A 
ATOM      7  H   UNL     1       2.175   8.268  21.753  0.00  0.00    +0.000 HD
ENDROOT
BRANCH   1  11
ATOM      8  C   UNL     1      -1.010  12.250  22.907  0.00  0.00    +0.000 A 
ATOM      9  C   UNL     1      -1.229  10.904  23.204  0.00  0.00    +0.000 A 
ATOM     10  C   UNL     1      -0.576   9.894  22.490  0.00  0.00    +0.000 A 
ATOM     11  C   UNL     1       0.294  10.222  21.447  0.00  0.00    +0.000 A 
ATOM     12  C   UNL     1       0.517  11.575  21.149  0.00  0.00    +0.000 A 
ATOM     13  C   UNL     1      -0.130  12.587  21.880  0.00  0.00    +0.000 A 
BRANCH   8  15
ATOM     14  C   UNL     1      -1.242  14.446  23.775  0.00  0.00    +0.000 C 
ATOM     15  O   UNL     1      -1.756  13.126  23.644  0.00  0.00    +0.000 OA
ENDBRANCH   8  15
ENDBRANCH   1  11
BRANCH   3  16
ATOM     16  C   UNL     1       2.575   6.093  19.970  0.00  0.00    +0.000 A 
ATOM     17  C   UNL     1       3.792   5.874  19.297  0.00  0.00    +0.000 A 
ATOM     18  C   UNL     1       4.394   4.615  19.251  0.00  0.00    +0.000 A 
ATOM     19  C   UNL     1       3.783   3.545  19.900  0.00  0.00    +0.000 A 
ATOM     20  C   UNL     1       2.588   3.740  20.608  0.00  0.00    +0.000 A 
ATOM     21  C   UNL     1       1.993   5.014  20.649  0.00  0.00    +0.000 A 
BRANCH  19  22
ATOM     22  N   UNL     1       4.396   2.213  19.827  0.00  0.00    +0.000 N 
ATOM     23  O   UNL     1       5.231   1.912  20.693  0.00  0.00    +0.000 OA
ATOM     24  O   UNL     1       4.040   1.470  18.903  0.00  0.00    +0.000 OA
ENDBRANCH  19  22
ENDBRANCH   3  16
BRANCH   6  25
ATOM     25  C   UNL     1       0.153  10.223  18.366  0.00  0.00    +0.000 C 
ATOM     26  N   UNL     1      -1.031  10.063  17.904  0.00  0.00    +0.000 NA
BRANCH  26  27
ATOM     27  C   UNL     1      -1.596  11.162  17.128  0.00  0.00    +0.000 C 
BRANCH  27  28
ATOM     28  C   UNL     1      -2.974  11.535  17.633  0.00  0.00    +0.000 A 
ATOM     29  C   UNL     1      -3.177  11.941  18.962  0.00  0.00    +0.000 A 
ATOM     30  C   UNL     1      -4.448  12.301  19.412  0.00  0.00    +0.000 A 
ATOM     31  C   UNL     1      -5.530  12.268  18.536  0.00  0.00    +0.000 A 
ATOM     32  C   UNL     1      -5.341  11.882  17.211  0.00  0.00    +0.000 A 
ATOM     33  C   UNL     1      -4.070  11.525  16.759  0.00  0.00    +0.000 A 
ENDBRANCH  27  28
ENDBRANCH  26  27
ENDBRANCH   6  25
TORSDOF 7
ENDMDL
