MODEL 1
REMARK VINA RESULT:      -7.2      0.000      0.000
REMARK  Name = 
REMARK  3 active torsions:
REMARK  status: ('A' for Active; 'I' for Inactive)
REMARK    1  A    between atoms: C_1  and  C_2
REMARK    2  A    between atoms: C_7  and  C_9
REMARK    3  A    between atoms: C_11  and  C_12
REMARK                            x       y       z     vdW  Elec       q    Type
REMARK                         _______ _______ _______ _____ _____    ______ ____
ROOT
ATOM      1  C   UNL     1       7.322   7.377  17.772  0.00  0.00    +0.000 A 
ATOM      2  C   UNL     1       7.424   8.747  17.414  0.00  0.00    +0.000 A 
ATOM      3  C   UNL     1       8.420   9.254  18.215  0.00  0.00    +0.000 A 
ATOM      4  O   UNL     1       8.906   8.237  18.986  0.00  0.00    +0.000 OA
ATOM      5  N   UNL     1       8.224   7.065  18.717  0.00  0.00    +0.000 NA
ENDROOT
BRANCH   1  12
ATOM      6  C   UNL     1       1.409   3.620  19.253  0.00  0.00    +0.000 C 
ATOM      7  C   UNL     1       2.607   3.923  18.427  0.00  0.00    +0.000 A 
ATOM      8  C   UNL     1       2.928   3.356  17.210  0.00  0.00    +0.000 A 
ATOM      9  S   UNL     1       4.364   4.056  16.604  0.00  0.00    +0.000 S 
ATOM     10  C   UNL     1       4.460   5.050  17.985  0.00  0.00    +0.000 A 
ATOM     11  N   UNL     1       5.472   5.950  18.177  0.00  0.00    +0.000 N 
ATOM     12  C   UNL     1       6.380   6.387  17.238  0.00  0.00    +0.000 C 
ATOM     13  O   UNL     1       6.435   6.060  16.057  0.00  0.00    +0.000 OA
ATOM     14  N   UNL     1       3.515   4.869  18.882  0.00  0.00    +0.000 NA
ATOM     15  H   UNL     1       5.480   6.399  19.084  0.00  0.00    +0.000 HD
ENDBRANCH   1  12
BRANCH   3  16
ATOM     16  C   UNL     1       9.014  10.571  18.423  0.00  0.00    +0.000 A 
ATOM     17  C   UNL     1      10.039  10.758  19.364  0.00  0.00    +0.000 A 
ATOM     18  C   UNL     1      10.636  12.011  19.539  0.00  0.00    +0.000 A 
ATOM     19  C   UNL     1      10.214  13.098  18.777  0.00  0.00    +0.000 A 
ATOM     20  C   UNL     1       9.191  12.935  17.847  0.00  0.00    +0.000 A 
ATOM     21  C   UNL     1       8.597  11.682  17.673  0.00  0.00    +0.000 A 
ENDBRANCH   3  16
TORSDOF 2
ENDMDL
MODEL 2
REMARK VINA RESULT:      -7.2      0.066      1.078
REMARK  Name = 
REMARK  3 active torsions:
REMARK  status: ('A' for Active; 'I' for Inactive)
REMARK    1  A    between atoms: C_1  and  C_2
REMARK    2  A    between atoms: C_7  and  C_9
REMARK    3  A    between atoms: C_11  and  C_12
REMARK                            x       y       z     vdW  Elec       q    Type
REMARK                         _______ _______ _______ _____ _____    ______ ____
ROOT
ATOM      1  C   UNL     1       7.299   7.362  17.778  0.00  0.00    +0.000 A 
ATOM      2  C   UNL     1       7.412   8.735  17.431  0.00  0.00    +0.000 A 
ATOM      3  C   UNL     1       8.418   9.225  18.229  0.00  0.00    +0.000 A 
ATOM      4  O   UNL     1       8.900   8.198  18.988  0.00  0.00    +0.000 OA
ATOM      5  N   UNL     1       8.204   7.034  18.715  0.00  0.00    +0.000 NA
ENDROOT
BRANCH   1  12
ATOM      6  C   UNL     1       1.407   3.589  19.297  0.00  0.00    +0.000 C 
ATOM      7  C   UNL     1       2.588   3.906  18.454  0.00  0.00    +0.000 A 
ATOM      8  C   UNL     1       2.883   3.365  17.219  0.00  0.00    +0.000 A 
ATOM      9  S   UNL     1       4.309   4.074  16.599  0.00  0.00    +0.000 S 
ATOM     10  C   UNL     1       4.435   5.038  17.999  0.00  0.00    +0.000 A 
ATOM     11  N   UNL     1       5.454   5.932  18.190  0.00  0.00    +0.000 N 
ATOM     12  C   UNL     1       6.344   6.386  17.242  0.00  0.00    +0.000 C 
ATOM     13  O   UNL     1       6.374   6.085  16.054  0.00  0.00    +0.000 OA
ATOM     14  N   UNL     1       3.508   4.840  18.911  0.00  0.00    +0.000 NA
ATOM     15  H   UNL     1       5.481   6.361  19.105  0.00  0.00    +0.000 HD
ENDBRANCH   1  12
BRANCH   3  16
ATOM     16  C   UNL     1       9.027  10.535  18.444  0.00  0.00    +0.000 A 
ATOM     17  C   UNL     1       8.640  11.643  17.674  0.00  0.00    +0.000 A 
ATOM     18  C   UNL     1       9.195  12.907  17.903  0.00  0.00    +0.000 A 
ATOM     19  C   UNL     1      10.149  13.080  18.902  0.00  0.00    +0.000 A 
ATOM     20  C   UNL     1      10.554  11.991  19.669  0.00  0.00    +0.000 A 
ATOM     21  C   UNL     1       9.998  10.729  19.440  0.00  0.00    +0.000 A 
ENDBRANCH   3  16
TORSDOF 2
ENDMDL
MODEL 3
REMARK VINA RESULT:      -7.1      5.421      7.193
REMARK  Name = 
REMARK  3 active torsions:
REMARK  status: ('A' for Active; 'I' for Inactive)
REMARK    1  A    between atoms: C_1  and  C_2
REMARK    2  A    between atoms: C_7  and  C_9
REMARK    3  A    between atoms: C_11  and  C_12
REMARK                            x       y       z     vdW  Elec       q    Type
REMARK                         _______ _______ _______ _____ _____    ______ ____
ROOT
ATOM      1  C   UNL     1       2.591   7.262  18.721  0.00  0.00    +0.000 A 
ATOM      2  C   UNL     1       2.003   7.416  20.004  0.00  0.00    +0.000 A 
ATOM      3  C   UNL     1       1.411   8.656  19.981  0.00  0.00    +0.000 A 
ATOM      4  O   UNL     1       1.608   9.200  18.745  0.00  0.00    +0.000 OA
ATOM      5  N   UNL     1       2.346   8.338  17.955  0.00  0.00    +0.000 NA
ENDROOT
BRANCH   1  12
ATOM      6  C   UNL     1       7.432   5.225  13.854  0.00  0.00    +0.000 C 
ATOM      7  C   UNL     1       6.426   4.945  14.911  0.00  0.00    +0.000 A 
ATOM      8  C   UNL     1       6.153   3.715  15.476  0.00  0.00    +0.000 A 
ATOM      9  S   UNL     1       4.965   3.886  16.694  0.00  0.00    +0.000 S 
ATOM     10  C   UNL     1       4.897   5.562  16.387  0.00  0.00    +0.000 A 
ATOM     11  N   UNL     1       4.064   6.403  17.073  0.00  0.00    +0.000 N 
ATOM     12  C   UNL     1       3.380   6.124  18.236  0.00  0.00    +0.000 C 
ATOM     13  O   UNL     1       3.408   5.078  18.875  0.00  0.00    +0.000 OA
ATOM     14  N   UNL     1       5.672   5.994  15.416  0.00  0.00    +0.000 NA
ATOM     15  H   UNL     1       4.032   7.352  16.725  0.00  0.00    +0.000 HD
ENDBRANCH   1  12
BRANCH   3  16
ATOM     16  C   UNL     1       0.684   9.477  20.946  0.00  0.00    +0.000 A 
ATOM     17  C   UNL     1       0.283  10.783  20.622  0.00  0.00    +0.000 A 
ATOM     18  C   UNL     1      -0.446  11.557  21.532  0.00  0.00    +0.000 A 
ATOM     19  C   UNL     1      -0.783  11.038  22.778  0.00  0.00    +0.000 A 
ATOM     20  C   UNL     1      -0.386   9.749  23.122  0.00  0.00    +0.000 A 
ATOM     21  C   UNL     1       0.342   8.976  22.212  0.00  0.00    +0.000 A 
ENDBRANCH   3  16
TORSDOF 2
ENDMDL
MODEL 4
REMARK VINA RESULT:      -7.0      5.404      7.201
REMARK  Name = 
REMARK  3 active torsions:
REMARK  status: ('A' for Active; 'I' for Inactive)
REMARK    1  A    between atoms: C_1  and  C_2
REMARK    2  A    between atoms: C_7  and  C_9
REMARK    3  A    between atoms: C_11  and  C_12
REMARK                            x       y       z     vdW  Elec       q    Type
REMARK                         _______ _______ _______ _____ _____    ______ ____
ROOT
ATOM      1  C   UNL     1       2.446   7.449  18.936  0.00  0.00    +0.000 A 
ATOM      2  C   UNL     1       1.842   7.649  20.205  0.00  0.00    +0.000 A 
ATOM      3  C   UNL     1       1.237   8.880  20.124  0.00  0.00    +0.000 A 
ATOM      4  O   UNL     1       1.442   9.375  18.868  0.00  0.00    +0.000 OA
ATOM      5  N   UNL     1       2.198   8.489  18.123  0.00  0.00    +0.000 NA
ENDROOT
BRANCH   1  12
ATOM      6  C   UNL     1       7.205   5.204  14.079  0.00  0.00    +0.000 C 
ATOM      7  C   UNL     1       6.238   4.972  15.183  0.00  0.00    +0.000 A 
ATOM      8  C   UNL     1       6.015   3.778  15.840  0.00  0.00    +0.000 A 
ATOM      9  S   UNL     1       4.858   4.003  17.078  0.00  0.00    +0.000 S 
ATOM     10  C   UNL     1       4.733   5.651  16.658  0.00  0.00    +0.000 A 
ATOM     11  N   UNL     1       3.897   6.516  17.308  0.00  0.00    +0.000 N 
ATOM     12  C   UNL     1       3.254   6.301  18.508  0.00  0.00    +0.000 C 
ATOM     13  O   UNL     1       3.329   5.303  19.216  0.00  0.00    +0.000 OA
ATOM     14  N   UNL     1       5.468   6.034  15.636  0.00  0.00    +0.000 NA
ATOM     15  H   UNL     1       3.828   7.437  16.896  0.00  0.00    +0.000 HD
ENDBRANCH   1  12
BRANCH   3  16
ATOM     16  C   UNL     1       0.489   9.732  21.045  0.00  0.00    +0.000 A 
ATOM     17  C   UNL     1      -0.053   9.208  22.230  0.00  0.00    +0.000 A 
ATOM     18  C   UNL     1      -0.737  10.029  23.132  0.00  0.00    +0.000 A 
ATOM     19  C   UNL     1      -0.893  11.386  22.862  0.00  0.00    +0.000 A 
ATOM     20  C   UNL     1      -0.372  11.922  21.688  0.00  0.00    +0.000 A 
ATOM     21  C   UNL     1       0.313  11.100  20.788  0.00  0.00    +0.000 A 
ENDBRANCH   3  16
TORSDOF 2
ENDMDL
MODEL 5
REMARK VINA RESULT:      -7.0      1.463      1.824
REMARK  Name = 
REMARK  3 active torsions:
REMARK  status: ('A' for Active; 'I' for Inactive)
REMARK    1  A    between atoms: C_1  and  C_2
REMARK    2  A    between atoms: C_7  and  C_9
REMARK    3  A    between atoms: C_11  and  C_12
REMARK                            x       y       z     vdW  Elec       q    Type
REMARK                         _______ _______ _______ _____ _____    ______ ____
ROOT
ATOM      1  C   UNL     1       6.273   6.247  17.095  0.00  0.00    +0.000 A 
ATOM      2  C   UNL     1       6.286   7.422  17.893  0.00  0.00    +0.000 A 
ATOM      3  C   UNL     1       7.454   8.066  17.563  0.00  0.00    +0.000 A 
ATOM      4  O   UNL     1       8.089   7.335  16.601  0.00  0.00    +0.000 OA
ATOM      5  N   UNL     1       7.360   6.197  16.307  0.00  0.00    +0.000 NA
ENDROOT
BRANCH   1  12
ATOM      6  C   UNL     1       1.352   2.922  21.095  0.00  0.00    +0.000 C 
ATOM      7  C   UNL     1       2.201   3.046  19.882  0.00  0.00    +0.000 A 
ATOM      8  C   UNL     1       2.137   2.255  18.753  0.00  0.00    +0.000 A 
ATOM      9  S   UNL     1       3.263   2.807  17.591  0.00  0.00    +0.000 S 
ATOM     10  C   UNL     1       3.753   4.043  18.658  0.00  0.00    +0.000 A 
ATOM     11  N   UNL     1       4.727   4.949  18.339  0.00  0.00    +0.000 N 
ATOM     12  C   UNL     1       5.259   5.187  17.091  0.00  0.00    +0.000 C 
ATOM     13  O   UNL     1       4.944   4.642  16.039  0.00  0.00    +0.000 OA
ATOM     14  N   UNL     1       3.159   4.049  19.832  0.00  0.00    +0.000 NA
ATOM     15  H   UNL     1       5.006   5.561  19.094  0.00  0.00    +0.000 HD
ENDBRANCH   1  12
BRANCH   3  16
ATOM     16  C   UNL     1       8.132   9.279  18.012  0.00  0.00    +0.000 A 
ATOM     17  C   UNL     1       9.029   9.244  19.092  0.00  0.00    +0.000 A 
ATOM     18  C   UNL     1       9.708  10.398  19.500  0.00  0.00    +0.000 A 
ATOM     19  C   UNL     1       9.498  11.604  18.838  0.00  0.00    +0.000 A 
ATOM     20  C   UNL     1       8.604  11.661  17.771  0.00  0.00    +0.000 A 
ATOM     21  C   UNL     1       7.928  10.508  17.364  0.00  0.00    +0.000 A 
ENDBRANCH   3  16
TORSDOF 2
ENDMDL
MODEL 6
REMARK VINA RESULT:      -7.0      1.447      2.081
REMARK  Name = 
REMARK  3 active torsions:
REMARK  status: ('A' for Active; 'I' for Inactive)
REMARK    1  A    between atoms: C_1  and  C_2
REMARK    2  A    between atoms: C_7  and  C_9
REMARK    3  A    between atoms: C_11  and  C_12
REMARK                            x       y       z     vdW  Elec       q    Type
REMARK                         _______ _______ _______ _____ _____    ______ ____
ROOT
ATOM      1  C   UNL     1       6.270   6.316  17.101  0.00  0.00    +0.000 A 
ATOM      2  C   UNL     1       6.298   7.501  17.883  0.00  0.00    +0.000 A 
ATOM      3  C   UNL     1       7.486   8.114  17.563  0.00  0.00    +0.000 A 
ATOM      4  O   UNL     1       8.118   7.354  16.621  0.00  0.00    +0.000 OA
ATOM      5  N   UNL     1       7.367   6.230  16.331  0.00  0.00    +0.000 NA
ENDROOT
BRANCH   1  12
ATOM      6  C   UNL     1       1.392   2.979  21.143  0.00  0.00    +0.000 C 
ATOM      7  C   UNL     1       2.207   3.122  19.909  0.00  0.00    +0.000 A 
ATOM      8  C   UNL     1       2.092   2.368  18.759  0.00  0.00    +0.000 A 
ATOM      9  S   UNL     1       3.195   2.931  17.581  0.00  0.00    +0.000 S 
ATOM     10  C   UNL     1       3.745   4.121  18.671  0.00  0.00    +0.000 A 
ATOM     11  N   UNL     1       4.731   5.015  18.350  0.00  0.00    +0.000 N 
ATOM     12  C   UNL     1       5.231   5.280  17.095  0.00  0.00    +0.000 C 
ATOM     13  O   UNL     1       4.872   4.776  16.036  0.00  0.00    +0.000 OA
ATOM     14  N   UNL     1       3.187   4.103  19.861  0.00  0.00    +0.000 NA
ATOM     15  H   UNL     1       5.047   5.596  19.115  0.00  0.00    +0.000 HD
ENDBRANCH   1  12
BRANCH   3  16
ATOM     16  C   UNL     1       8.185   9.316  18.007  0.00  0.00    +0.000 A 
ATOM     17  C   UNL     1       7.982  10.547  17.361  0.00  0.00    +0.000 A 
ATOM     18  C   UNL     1       8.623  11.708  17.808  0.00  0.00    +0.000 A 
ATOM     19  C   UNL     1       9.478  11.655  18.905  0.00  0.00    +0.000 A 
ATOM     20  C   UNL     1       9.700  10.443  19.552  0.00  0.00    +0.000 A 
ATOM     21  C   UNL     1       9.059   9.284  19.105  0.00  0.00    +0.000 A 
ENDBRANCH   3  16
TORSDOF 2
ENDMDL
MODEL 7
REMARK VINA RESULT:      -7.0      5.331      6.820
REMARK  Name = 
REMARK  3 active torsions:
REMARK  status: ('A' for Active; 'I' for Inactive)
REMARK    1  A    between atoms: C_1  and  C_2
REMARK    2  A    between atoms: C_7  and  C_9
REMARK    3  A    between atoms: C_11  and  C_12
REMARK                            x       y       z     vdW  Elec       q    Type
REMARK                         _______ _______ _______ _____ _____    ______ ____
ROOT
ATOM      1  C   UNL     1       2.567   7.375  18.685  0.00  0.00    +0.000 A 
ATOM      2  C   UNL     1       2.160   8.492  17.910  0.00  0.00    +0.000 A 
ATOM      3  C   UNL     1       1.422   9.274  18.767  0.00  0.00    +0.000 A 
ATOM      4  O   UNL     1       1.414   8.673  19.992  0.00  0.00    +0.000 OA
ATOM      5  N   UNL     1       2.123   7.487  19.948  0.00  0.00    +0.000 NA
ENDROOT
BRANCH   1  12
ATOM      6  C   UNL     1       7.384   5.161  13.871  0.00  0.00    +0.000 C 
ATOM      7  C   UNL     1       6.380   4.919  14.940  0.00  0.00    +0.000 A 
ATOM      8  C   UNL     1       6.102   3.709  15.544  0.00  0.00    +0.000 A 
ATOM      9  S   UNL     1       4.919   3.925  16.759  0.00  0.00    +0.000 S 
ATOM     10  C   UNL     1       4.858   5.590  16.400  0.00  0.00    +0.000 A 
ATOM     11  N   UNL     1       4.031   6.457  17.061  0.00  0.00    +0.000 N 
ATOM     12  C   UNL     1       3.350   6.218  18.234  0.00  0.00    +0.000 C 
ATOM     13  O   UNL     1       3.374   5.193  18.906  0.00  0.00    +0.000 OA
ATOM     14  N   UNL     1       5.632   5.987  15.414  0.00  0.00    +0.000 NA
ATOM     15  H   UNL     1       4.003   7.395  16.683  0.00  0.00    +0.000 HD
ENDBRANCH   1  12
BRANCH   3  16
ATOM     16  C   UNL     1       0.670  10.520  18.647  0.00  0.00    +0.000 A 
ATOM     17  C   UNL     1       1.305  11.762  18.805  0.00  0.00    +0.000 A 
ATOM     18  C   UNL     1       0.594  12.957  18.653  0.00  0.00    +0.000 A 
ATOM     19  C   UNL     1      -0.763  12.929  18.346  0.00  0.00    +0.000 A 
ATOM     20  C   UNL     1      -1.414  11.707  18.196  0.00  0.00    +0.000 A 
ATOM     21  C   UNL     1      -0.702  10.513  18.347  0.00  0.00    +0.000 A 
ENDBRANCH   3  16
TORSDOF 2
ENDMDL
MODEL 8
REMARK VINA RESULT:      -6.9      1.461      1.588
REMARK  Name = 
REMARK  3 active torsions:
REMARK  status: ('A' for Active; 'I' for Inactive)
REMARK    1  A    between atoms: C_1  and  C_2
REMARK    2  A    between atoms: C_7  and  C_9
REMARK    3  A    between atoms: C_11  and  C_12
REMARK                            x       y       z     vdW  Elec       q    Type
REMARK                         _______ _______ _______ _____ _____    ______ ____
ROOT
ATOM      1  C   UNL     1       7.524   7.954  17.761  0.00  0.00    +0.000 A 
ATOM      2  C   UNL     1       8.584   8.282  18.647  0.00  0.00    +0.000 A 
ATOM      3  C   UNL     1       8.772   9.635  18.497  0.00  0.00    +0.000 A 
ATOM      4  O   UNL     1       7.857  10.095  17.594  0.00  0.00    +0.000 OA
ATOM      5  N   UNL     1       7.078   9.052  17.129  0.00  0.00    +0.000 NA
ENDROOT
BRANCH   1  12
ATOM      6  C   UNL     1       1.449   4.165  17.716  0.00  0.00    +0.000 C 
ATOM      7  C   UNL     1       2.929   4.284  17.669  0.00  0.00    +0.000 A 
ATOM      8  C   UNL     1       3.826   3.263  17.423  0.00  0.00    +0.000 A 
ATOM      9  S   UNL     1       5.419   3.881  17.406  0.00  0.00    +0.000 S 
ATOM     10  C   UNL     1       4.814   5.443  17.726  0.00  0.00    +0.000 A 
ATOM     11  N   UNL     1       5.627   6.536  17.858  0.00  0.00    +0.000 N 
ATOM     12  C   UNL     1       6.956   6.625  17.509  0.00  0.00    +0.000 C 
ATOM     13  O   UNL     1       7.646   5.747  17.003  0.00  0.00    +0.000 OA
ATOM     14  N   UNL     1       3.511   5.526  17.880  0.00  0.00    +0.000 NA
ATOM     15  H   UNL     1       5.161   7.382  18.158  0.00  0.00    +0.000 HD
ENDBRANCH   1  12
BRANCH   3  16
ATOM     16  C   UNL     1       9.701  10.620  19.043  0.00  0.00    +0.000 A 
ATOM     17  C   UNL     1       9.588  11.056  20.373  0.00  0.00    +0.000 A 
ATOM     18  C   UNL     1      10.500  11.973  20.909  0.00  0.00    +0.000 A 
ATOM     19  C   UNL     1      11.536  12.469  20.123  0.00  0.00    +0.000 A 
ATOM     20  C   UNL     1      11.659  12.056  18.799  0.00  0.00    +0.000 A 
ATOM     21  C   UNL     1      10.748  11.141  18.264  0.00  0.00    +0.000 A 
ENDBRANCH   3  16
TORSDOF 2
ENDMDL
MODEL 9
REMARK VINA RESULT:      -6.9      5.324      6.862
REMARK  Name = 
REMARK  3 active torsions:
REMARK  status: ('A' for Active; 'I' for Inactive)
REMARK    1  A    between atoms: C_1  and  C_2
REMARK    2  A    between atoms: C_7  and  C_9
REMARK    3  A    between atoms: C_11  and  C_12
REMARK                            x       y       z     vdW  Elec       q    Type
REMARK                         _______ _______ _______ _____ _____    ______ ____
ROOT
ATOM      1  C   UNL     1       2.624   7.347  18.626  0.00  0.00    +0.000 A 
ATOM      2  C   UNL     1       2.199   8.457  17.849  0.00  0.00    +0.000 A 
ATOM      3  C   UNL     1       1.458   9.233  18.708  0.00  0.00    +0.000 A 
ATOM      4  O   UNL     1       1.466   8.637  19.936  0.00  0.00    +0.000 OA
ATOM      5  N   UNL     1       2.188   7.459  19.892  0.00  0.00    +0.000 NA
ENDROOT
BRANCH   1  12
ATOM      6  C   UNL     1       7.437   5.171  13.791  0.00  0.00    +0.000 C 
ATOM      7  C   UNL     1       6.442   4.922  14.866  0.00  0.00    +0.000 A 
ATOM      8  C   UNL     1       6.180   3.711  15.475  0.00  0.00    +0.000 A 
ATOM      9  S   UNL     1       5.002   3.917  16.697  0.00  0.00    +0.000 S 
ATOM     10  C   UNL     1       4.921   5.581  16.333  0.00  0.00    +0.000 A 
ATOM     11  N   UNL     1       4.089   6.441  16.996  0.00  0.00    +0.000 N 
ATOM     12  C   UNL     1       3.417   6.198  18.174  0.00  0.00    +0.000 C 
ATOM     13  O   UNL     1       3.456   5.175  18.848  0.00  0.00    +0.000 OA
ATOM     14  N   UNL     1       5.685   5.983  15.341  0.00  0.00    +0.000 NA
ATOM     15  H   UNL     1       4.048   7.377  16.615  0.00  0.00    +0.000 HD
ENDBRANCH   1  12
BRANCH   3  16
ATOM     16  C   UNL     1       0.691  10.470  18.589  0.00  0.00    +0.000 A 
ATOM     17  C   UNL     1      -0.679  10.440  18.279  0.00  0.00    +0.000 A 
ATOM     18  C   UNL     1      -1.424  11.622  18.201  0.00  0.00    +0.000 A 
ATOM     19  C   UNL     1      -0.811  12.851  18.428  0.00  0.00    +0.000 A 
ATOM     20  C   UNL     1       0.548  12.902  18.727  0.00  0.00    +0.000 A 
ATOM     21  C   UNL     1       1.291  11.720  18.805  0.00  0.00    +0.000 A 
ENDBRANCH   3  16
TORSDOF 2
ENDMDL
