MODEL 1
REMARK VINA RESULT:      -7.4      0.000      0.000
REMARK  Name = 
REMARK  5 active torsions:
REMARK  status: ('A' for Active; 'I' for Inactive)
REMARK    1  A    between atoms: C_2  and  C_3
REMARK    2  A    between atoms: C_3  and  O_4
REMARK    3  A    between atoms: O_4  and  C_5
REMARK    4  A    between atoms: C_5  and  C_7
REMARK    5  A    between atoms: N_13  and  C_14
REMARK                            x       y       z     vdW  Elec       q    Type
REMARK                         _______ _______ _______ _____ _____    ______ ____
ROOT
ATOM      1  O   UNL     1       5.943   4.708  19.696  0.00  0.00    +0.000 OA
ATOM      2  C   UNL     1       5.204   5.251  18.877  0.00  0.00    +0.000 C 
ATOM      3  N   UNL     1       3.866   4.964  18.681  0.00  0.00    +0.000 N 
ATOM      4  H   UNL     1       3.410   5.328  17.850  0.00  0.00    +0.000 HD
ENDROOT
BRANCH   3   5
ATOM      5  C   UNL     1       3.041   4.178  19.525  0.00  0.00    +0.000 A 
ATOM      6  C   UNL     1       2.639   4.614  20.794  0.00  0.00    +0.000 A 
ATOM      7  C   UNL     1       1.770   3.851  21.577  0.00  0.00    +0.000 A 
ATOM      8  C   UNL     1       1.285   2.635  21.105  0.00  0.00    +0.000 A 
ATOM      9  C   UNL     1       1.679   2.176  19.850  0.00  0.00    +0.000 A 
ATOM     10  C   UNL     1       2.553   2.940  19.067  0.00  0.00    +0.000 A 
ATOM     11 BR   UNL     1       3.079   2.230  17.383  0.00  0.00    +0.000 Br
ENDBRANCH   3   5
BRANCH   2  12
ATOM     12  C   UNL     1       5.743   6.352  17.959  0.00  0.00    +0.000 C 
BRANCH  12  13
ATOM     13  O   UNL     1       7.130   6.128  17.687  0.00  0.00    +0.000 OA
BRANCH  13  14
ATOM     14  C   UNL     1       7.384   5.068  16.864  0.00  0.00    +0.000 C 
ATOM     15  O   UNL     1       8.129   4.134  17.147  0.00  0.00    +0.000 OA
BRANCH  14  16
ATOM     16  C   UNL     1       6.610   5.176  15.546  0.00  0.00    +0.000 C 
ATOM     17  C   UNL     1       5.933   3.866  15.164  0.00  0.00    +0.000 C 
ATOM     18  C   UNL     1       5.912   3.883  13.636  0.00  0.00    +0.000 C 
ATOM     19  C   UNL     1       7.125   4.705  13.299  0.00  0.00    +0.000 C 
ATOM     20  O   UNL     1       7.709   4.737  12.229  0.00  0.00    +0.000 OA
ATOM     21  N   UNL     1       7.441   5.459  14.402  0.00  0.00    +0.000 N 
ATOM     22  H   UNL     1       8.237   6.088  14.415  0.00  0.00    +0.000 HD
ENDBRANCH  14  16
ENDBRANCH  13  14
ENDBRANCH  12  13
ENDBRANCH   2  12
TORSDOF 5
ENDMDL
MODEL 2
REMARK VINA RESULT:      -7.4      1.124      1.196
REMARK  Name = 
REMARK  5 active torsions:
REMARK  status: ('A' for Active; 'I' for Inactive)
REMARK    1  A    between atoms: C_2  and  C_3
REMARK    2  A    between atoms: C_3  and  O_4
REMARK    3  A    between atoms: O_4  and  C_5
REMARK    4  A    between atoms: C_5  and  C_7
REMARK    5  A    between atoms: N_13  and  C_14
REMARK                            x       y       z     vdW  Elec       q    Type
REMARK                         _______ _______ _______ _____ _____    ______ ____
ROOT
ATOM      1  O   UNL     1       3.578   6.475  19.382  0.00  0.00    +0.000 OA
ATOM      2  C   UNL     1       4.425   5.597  19.223  0.00  0.00    +0.000 C 
ATOM      3  N   UNL     1       4.263   4.256  19.516  0.00  0.00    +0.000 N 
ATOM      4  H   UNL     1       5.087   3.662  19.534  0.00  0.00    +0.000 HD
ENDROOT
BRANCH   3   5
ATOM      5  C   UNL     1       3.043   3.602  19.824  0.00  0.00    +0.000 A 
ATOM      6  C   UNL     1       2.630   3.372  21.142  0.00  0.00    +0.000 A 
ATOM      7  C   UNL     1       1.392   2.789  21.420  0.00  0.00    +0.000 A 
ATOM      8  C   UNL     1       0.540   2.425  20.381  0.00  0.00    +0.000 A 
ATOM      9  C   UNL     1       0.933   2.635  19.061  0.00  0.00    +0.000 A 
ATOM     10  C   UNL     1       2.177   3.217  18.784  0.00  0.00    +0.000 A 
ATOM     11 BR   UNL     1       2.663   3.434  16.959  0.00  0.00    +0.000 Br
ENDBRANCH   3   5
BRANCH   2  12
ATOM     12  C   UNL     1       5.803   5.945  18.654  0.00  0.00    +0.000 C 
BRANCH  12  13
ATOM     13  O   UNL     1       6.684   4.824  18.780  0.00  0.00    +0.000 OA
BRANCH  13  14
ATOM     14  C   UNL     1       7.410   4.541  17.659  0.00  0.00    +0.000 C 
ATOM     15  O   UNL     1       8.523   4.024  17.667  0.00  0.00    +0.000 OA
BRANCH  14  16
ATOM     16  C   UNL     1       6.657   4.933  16.384  0.00  0.00    +0.000 C 
ATOM     17  C   UNL     1       6.086   3.724  15.654  0.00  0.00    +0.000 C 
ATOM     18  C   UNL     1       6.096   4.132  14.181  0.00  0.00    +0.000 C 
ATOM     19  C   UNL     1       7.251   5.091  14.112  0.00  0.00    +0.000 C 
ATOM     20  O   UNL     1       7.853   5.435  13.109  0.00  0.00    +0.000 OA
ATOM     21  N   UNL     1       7.489   5.556  15.382  0.00  0.00    +0.000 N 
ATOM     22  H   UNL     1       8.235   6.211  15.586  0.00  0.00    +0.000 HD
ENDBRANCH  14  16
ENDBRANCH  13  14
ENDBRANCH  12  13
ENDBRANCH   2  12
TORSDOF 5
ENDMDL
MODEL 3
REMARK VINA RESULT:      -7.2      2.450      2.990
REMARK  Name = 
REMARK  5 active torsions:
REMARK  status: ('A' for Active; 'I' for Inactive)
REMARK    1  A    between atoms: C_2  and  C_3
REMARK    2  A    between atoms: C_3  and  O_4
REMARK    3  A    between atoms: O_4  and  C_5
REMARK    4  A    between atoms: C_5  and  C_7
REMARK    5  A    between atoms: N_13  and  C_14
REMARK                            x       y       z     vdW  Elec       q    Type
REMARK                         _______ _______ _______ _____ _____    ______ ____
ROOT
ATOM      1  O   UNL     1       3.781   3.587  16.424  0.00  0.00    +0.000 OA
ATOM      2  C   UNL     1       4.770   3.990  17.036  0.00  0.00    +0.000 C 
ATOM      3  N   UNL     1       4.807   4.335  18.374  0.00  0.00    +0.000 N 
ATOM      4  H   UNL     1       5.616   4.840  18.721  0.00  0.00    +0.000 HD
ENDROOT
BRANCH   3   5
ATOM      5  C   UNL     1       3.801   4.071  19.340  0.00  0.00    +0.000 A 
ATOM      6  C   UNL     1       3.756   2.873  20.063  0.00  0.00    +0.000 A 
ATOM      7  C   UNL     1       2.798   2.666  21.057  0.00  0.00    +0.000 A 
ATOM      8  C   UNL     1       1.864   3.657  21.348  0.00  0.00    +0.000 A 
ATOM      9  C   UNL     1       1.883   4.853  20.634  0.00  0.00    +0.000 A 
ATOM     10  C   UNL     1       2.843   5.058  19.635  0.00  0.00    +0.000 A 
ATOM     11 BR   UNL     1       2.782   6.698  18.675  0.00  0.00    +0.000 Br
ENDBRANCH   3   5
BRANCH   2  12
ATOM     12  C   UNL     1       6.112   4.148  16.317  0.00  0.00    +0.000 C 
BRANCH  12  13
ATOM     13  O   UNL     1       6.014   3.649  14.979  0.00  0.00    +0.000 OA
BRANCH  13  14
ATOM     14  C   UNL     1       6.728   4.356  14.055  0.00  0.00    +0.000 C 
ATOM     15  O   UNL     1       7.586   5.190  14.332  0.00  0.00    +0.000 OA
BRANCH  14  16
ATOM     16  C   UNL     1       6.341   3.969  12.624  0.00  0.00    +0.000 C 
ATOM     17  C   UNL     1       4.836   3.803  12.457  0.00  0.00    +0.000 C 
ATOM     18  C   UNL     1       4.691   2.747  11.362  0.00  0.00    +0.000 C 
ATOM     19  C   UNL     1       5.938   1.925  11.529  0.00  0.00    +0.000 C 
ATOM     20  O   UNL     1       6.128   0.796  11.111  0.00  0.00    +0.000 OA
ATOM     21  N   UNL     1       6.858   2.690  12.204  0.00  0.00    +0.000 N 
ATOM     22  H   UNL     1       7.779   2.339  12.444  0.00  0.00    +0.000 HD
ENDBRANCH  14  16
ENDBRANCH  13  14
ENDBRANCH  12  13
ENDBRANCH   2  12
TORSDOF 5
ENDMDL
MODEL 4
REMARK VINA RESULT:      -7.1      2.336      3.827
REMARK  Name = 
REMARK  5 active torsions:
REMARK  status: ('A' for Active; 'I' for Inactive)
REMARK    1  A    between atoms: C_2  and  C_3
REMARK    2  A    between atoms: C_3  and  O_4
REMARK    3  A    between atoms: O_4  and  C_5
REMARK    4  A    between atoms: C_5  and  C_7
REMARK    5  A    between atoms: N_13  and  C_14
REMARK                            x       y       z     vdW  Elec       q    Type
REMARK                         _______ _______ _______ _____ _____    ______ ____
ROOT
ATOM      1  O   UNL     1       5.299   3.280  17.803  0.00  0.00    +0.000 OA
ATOM      2  C   UNL     1       4.528   3.689  16.935  0.00  0.00    +0.000 C 
ATOM      3  N   UNL     1       3.153   3.774  17.051  0.00  0.00    +0.000 N 
ATOM      4  H   UNL     1       2.607   3.934  16.211  0.00  0.00    +0.000 HD
ENDROOT
BRANCH   3   5
ATOM      5  C   UNL     1       2.399   3.637  18.245  0.00  0.00    +0.000 A 
ATOM      6  C   UNL     1       1.988   2.390  18.730  0.00  0.00    +0.000 A 
ATOM      7  C   UNL     1       1.306   2.276  19.943  0.00  0.00    +0.000 A 
ATOM      8  C   UNL     1       1.022   3.412  20.697  0.00  0.00    +0.000 A 
ATOM      9  C   UNL     1       1.412   4.665  20.229  0.00  0.00    +0.000 A 
ATOM     10  C   UNL     1       2.093   4.777  19.010  0.00  0.00    +0.000 A 
ATOM     11 BR   UNL     1       2.556   6.523  18.416  0.00  0.00    +0.000 Br
ENDBRANCH   3   5
BRANCH   2  12
ATOM     12  C   UNL     1       5.067   4.163  15.583  0.00  0.00    +0.000 C 
BRANCH  12  13
ATOM     13  O   UNL     1       6.106   5.129  15.781  0.00  0.00    +0.000 OA
BRANCH  13  14
ATOM     14  C   UNL     1       5.664   6.395  16.036  0.00  0.00    +0.000 C 
ATOM     15  O   UNL     1       4.912   7.028  15.299  0.00  0.00    +0.000 OA
BRANCH  14  16
ATOM     16  C   UNL     1       6.209   6.928  17.365  0.00  0.00    +0.000 C 
ATOM     17  C   UNL     1       7.681   7.308  17.276  0.00  0.00    +0.000 C 
ATOM     18  C   UNL     1       8.222   7.057  18.683  0.00  0.00    +0.000 C 
ATOM     19  C   UNL     1       7.337   5.950  19.185  0.00  0.00    +0.000 C 
ATOM     20  O   UNL     1       7.569   5.197  20.115  0.00  0.00    +0.000 OA
ATOM     21  N   UNL     1       6.186   5.960  18.436  0.00  0.00    +0.000 N 
ATOM     22  H   UNL     1       5.440   5.291  18.585  0.00  0.00    +0.000 HD
ENDBRANCH  14  16
ENDBRANCH  13  14
ENDBRANCH  12  13
ENDBRANCH   2  12
TORSDOF 5
ENDMDL
MODEL 5
REMARK VINA RESULT:      -7.1      1.902      2.453
REMARK  Name = 
REMARK  5 active torsions:
REMARK  status: ('A' for Active; 'I' for Inactive)
REMARK    1  A    between atoms: C_2  and  C_3
REMARK    2  A    between atoms: C_3  and  O_4
REMARK    3  A    between atoms: O_4  and  C_5
REMARK    4  A    between atoms: C_5  and  C_7
REMARK    5  A    between atoms: N_13  and  C_14
REMARK                            x       y       z     vdW  Elec       q    Type
REMARK                         _______ _______ _______ _____ _____    ______ ____
ROOT
ATOM      1  O   UNL     1       6.048   4.864  19.602  0.00  0.00    +0.000 OA
ATOM      2  C   UNL     1       5.923   5.090  18.399  0.00  0.00    +0.000 C 
ATOM      3  N   UNL     1       4.923   4.596  17.584  0.00  0.00    +0.000 N 
ATOM      4  H   UNL     1       5.032   4.682  16.578  0.00  0.00    +0.000 HD
ENDROOT
BRANCH   3   5
ATOM      5  C   UNL     1       3.737   3.942  18.007  0.00  0.00    +0.000 A 
ATOM      6  C   UNL     1       3.630   2.547  18.057  0.00  0.00    +0.000 A 
ATOM      7  C   UNL     1       2.476   1.929  18.543  0.00  0.00    +0.000 A 
ATOM      8  C   UNL     1       1.405   2.697  18.991  0.00  0.00    +0.000 A 
ATOM      9  C   UNL     1       1.484   4.087  18.940  0.00  0.00    +0.000 A 
ATOM     10  C   UNL     1       2.641   4.705  18.449  0.00  0.00    +0.000 A 
ATOM     11 BR   UNL     1       2.661   6.605  18.373  0.00  0.00    +0.000 Br
ENDBRANCH   3   5
BRANCH   2  12
ATOM     12  C   UNL     1       6.927   5.991  17.674  0.00  0.00    +0.000 C 
BRANCH  12  13
ATOM     13  O   UNL     1       7.448   5.317  16.523  0.00  0.00    +0.000 OA
BRANCH  13  14
ATOM     14  C   UNL     1       6.675   5.422  15.404  0.00  0.00    +0.000 C 
ATOM     15  O   UNL     1       5.763   6.233  15.265  0.00  0.00    +0.000 OA
BRANCH  14  16
ATOM     16  C   UNL     1       7.093   4.412  14.330  0.00  0.00    +0.000 C 
ATOM     17  C   UNL     1       7.600   5.091  13.064  0.00  0.00    +0.000 C 
ATOM     18  C   UNL     1       7.234   4.121  11.941  0.00  0.00    +0.000 C 
ATOM     19  C   UNL     1       6.008   3.439  12.482  0.00  0.00    +0.000 C 
ATOM     20  O   UNL     1       5.174   2.824  11.840  0.00  0.00    +0.000 OA
ATOM     21  N   UNL     1       6.010   3.590  13.847  0.00  0.00    +0.000 N 
ATOM     22  H   UNL     1       5.269   3.220  14.431  0.00  0.00    +0.000 HD
ENDBRANCH  14  16
ENDBRANCH  13  14
ENDBRANCH  12  13
ENDBRANCH   2  12
TORSDOF 5
ENDMDL
MODEL 6
REMARK VINA RESULT:      -7.1      1.553      2.077
REMARK  Name = 
REMARK  5 active torsions:
REMARK  status: ('A' for Active; 'I' for Inactive)
REMARK    1  A    between atoms: C_2  and  C_3
REMARK    2  A    between atoms: C_3  and  O_4
REMARK    3  A    between atoms: O_4  and  C_5
REMARK    4  A    between atoms: C_5  and  C_7
REMARK    5  A    between atoms: N_13  and  C_14
REMARK                            x       y       z     vdW  Elec       q    Type
REMARK                         _______ _______ _______ _____ _____    ______ ____
ROOT
ATOM      1  O   UNL     1       6.645   5.569  19.402  0.00  0.00    +0.000 OA
ATOM      2  C   UNL     1       6.406   4.818  18.457  0.00  0.00    +0.000 C 
ATOM      3  N   UNL     1       5.227   4.128  18.251  0.00  0.00    +0.000 N 
ATOM      4  H   UNL     1       5.214   3.390  17.555  0.00  0.00    +0.000 HD
ENDROOT
BRANCH   3   5
ATOM      5  C   UNL     1       4.003   4.329  18.940  0.00  0.00    +0.000 A 
ATOM      6  C   UNL     1       3.633   5.576  19.458  0.00  0.00    +0.000 A 
ATOM      7  C   UNL     1       2.392   5.763  20.071  0.00  0.00    +0.000 A 
ATOM      8  C   UNL     1       1.494   4.704  20.176  0.00  0.00    +0.000 A 
ATOM      9  C   UNL     1       1.845   3.452  19.676  0.00  0.00    +0.000 A 
ATOM     10  C   UNL     1       3.091   3.265  19.065  0.00  0.00    +0.000 A 
ATOM     11 BR   UNL     1       3.516   1.518  18.444  0.00  0.00    +0.000 Br
ENDBRANCH   3   5
BRANCH   2  12
ATOM     12  C   UNL     1       7.462   4.580  17.374  0.00  0.00    +0.000 C 
BRANCH  12  13
ATOM     13  O   UNL     1       7.425   5.640  16.412  0.00  0.00    +0.000 OA
BRANCH  13  14
ATOM     14  C   UNL     1       6.529   5.458  15.399  0.00  0.00    +0.000 C 
ATOM     15  O   UNL     1       5.437   6.015  15.332  0.00  0.00    +0.000 OA
BRANCH  14  16
ATOM     16  C   UNL     1       7.060   4.484  14.342  0.00  0.00    +0.000 C 
ATOM     17  C   UNL     1       7.538   5.200  13.085  0.00  0.00    +0.000 C 
ATOM     18  C   UNL     1       7.285   4.198  11.959  0.00  0.00    +0.000 C 
ATOM     19  C   UNL     1       6.108   3.415  12.473  0.00  0.00    +0.000 C 
ATOM     20  O   UNL     1       5.347   2.728  11.814  0.00  0.00    +0.000 OA
ATOM     21  N   UNL     1       6.064   3.570  13.837  0.00  0.00    +0.000 N 
ATOM     22  H   UNL     1       5.343   3.140  14.405  0.00  0.00    +0.000 HD
ENDBRANCH  14  16
ENDBRANCH  13  14
ENDBRANCH  12  13
ENDBRANCH   2  12
TORSDOF 5
ENDMDL
MODEL 7
REMARK VINA RESULT:      -7.1      2.225      2.664
REMARK  Name = 
REMARK  5 active torsions:
REMARK  status: ('A' for Active; 'I' for Inactive)
REMARK    1  A    between atoms: C_2  and  C_3
REMARK    2  A    between atoms: C_3  and  O_4
REMARK    3  A    between atoms: O_4  and  C_5
REMARK    4  A    between atoms: C_5  and  C_7
REMARK    5  A    between atoms: N_13  and  C_14
REMARK                            x       y       z     vdW  Elec       q    Type
REMARK                         _______ _______ _______ _____ _____    ______ ____
ROOT
ATOM      1  O   UNL     1       5.428   4.279  18.020  0.00  0.00    +0.000 OA
ATOM      2  C   UNL     1       4.702   5.049  17.393  0.00  0.00    +0.000 C 
ATOM      3  N   UNL     1       3.320   5.040  17.398  0.00  0.00    +0.000 N 
ATOM      4  H   UNL     1       2.831   5.584  16.694  0.00  0.00    +0.000 HD
ENDROOT
BRANCH   3   5
ATOM      5  C   UNL     1       2.485   4.317  18.289  0.00  0.00    +0.000 A 
ATOM      6  C   UNL     1       2.166   2.969  18.086  0.00  0.00    +0.000 A 
ATOM      7  C   UNL     1       1.399   2.262  19.014  0.00  0.00    +0.000 A 
ATOM      8  C   UNL     1       0.937   2.890  20.167  0.00  0.00    +0.000 A 
ATOM      9  C   UNL     1       1.234   4.234  20.385  0.00  0.00    +0.000 A 
ATOM     10  C   UNL     1       2.000   4.943  19.452  0.00  0.00    +0.000 A 
ATOM     11 BR   UNL     1       2.329   6.784  19.797  0.00  0.00    +0.000 Br
ENDBRANCH   3   5
BRANCH   2  12
ATOM     12  C   UNL     1       5.312   6.140  16.509  0.00  0.00    +0.000 C 
BRANCH  12  13
ATOM     13  O   UNL     1       5.354   5.700  15.147  0.00  0.00    +0.000 OA
BRANCH  13  14
ATOM     14  C   UNL     1       6.553   5.179  14.755  0.00  0.00    +0.000 C 
ATOM     15  O   UNL     1       7.646   5.655  15.049  0.00  0.00    +0.000 OA
BRANCH  14  16
ATOM     16  C   UNL     1       6.371   3.912  13.912  0.00  0.00    +0.000 C 
ATOM     17  C   UNL     1       7.247   3.916  12.666  0.00  0.00    +0.000 C 
ATOM     18  C   UNL     1       6.451   3.107  11.642  0.00  0.00    +0.000 C 
ATOM     19  C   UNL     1       5.029   3.352  12.062  0.00  0.00    +0.000 C 
ATOM     20  O   UNL     1       4.030   3.189  11.382  0.00  0.00    +0.000 OA
ATOM     21  N   UNL     1       5.041   3.753  13.375  0.00  0.00    +0.000 N 
ATOM     22  H   UNL     1       4.191   3.988  13.875  0.00  0.00    +0.000 HD
ENDBRANCH  14  16
ENDBRANCH  13  14
ENDBRANCH  12  13
ENDBRANCH   2  12
TORSDOF 5
ENDMDL
MODEL 8
REMARK VINA RESULT:      -7.1      3.022      6.289
REMARK  Name = 
REMARK  5 active torsions:
REMARK  status: ('A' for Active; 'I' for Inactive)
REMARK    1  A    between atoms: C_2  and  C_3
REMARK    2  A    between atoms: C_3  and  O_4
REMARK    3  A    between atoms: O_4  and  C_5
REMARK    4  A    between atoms: C_5  and  C_7
REMARK    5  A    between atoms: N_13  and  C_14
REMARK                            x       y       z     vdW  Elec       q    Type
REMARK                         _______ _______ _______ _____ _____    ______ ____
ROOT
ATOM      1  O   UNL     1       3.099   4.193  17.255  0.00  0.00    +0.000 OA
ATOM      2  C   UNL     1       3.879   3.286  17.542  0.00  0.00    +0.000 C 
ATOM      3  N   UNL     1       5.256   3.393  17.598  0.00  0.00    +0.000 N 
ATOM      4  H   UNL     1       5.805   2.541  17.648  0.00  0.00    +0.000 HD
ENDROOT
BRANCH   3   5
ATOM      5  C   UNL     1       6.010   4.595  17.571  0.00  0.00    +0.000 A 
ATOM      6  C   UNL     1       6.476   5.210  18.739  0.00  0.00    +0.000 A 
ATOM      7  C   UNL     1       7.275   6.354  18.682  0.00  0.00    +0.000 A 
ATOM      8  C   UNL     1       7.623   6.906  17.453  0.00  0.00    +0.000 A 
ATOM      9  C   UNL     1       7.162   6.317  16.277  0.00  0.00    +0.000 A 
ATOM     10  C   UNL     1       6.358   5.172  16.336  0.00  0.00    +0.000 A 
ATOM     11 BR   UNL     1       5.732   4.448  14.693  0.00  0.00    +0.000 Br
ENDBRANCH   3   5
BRANCH   2  12
ATOM     12  C   UNL     1       3.351   1.890  17.881  0.00  0.00    +0.000 C 
BRANCH  12  13
ATOM     13  O   UNL     1       2.760   1.892  19.185  0.00  0.00    +0.000 OA
BRANCH  13  14
ATOM     14  C   UNL     1       3.523   2.478  20.154  0.00  0.00    +0.000 C 
ATOM     15  O   UNL     1       4.663   2.127  20.445  0.00  0.00    +0.000 OA
BRANCH  14  16
ATOM     16  C   UNL     1       2.788   3.642  20.826  0.00  0.00    +0.000 C 
ATOM     17  C   UNL     1       1.309   3.682  20.460  0.00  0.00    +0.000 C 
ATOM     18  C   UNL     1       0.945   5.165  20.515  0.00  0.00    +0.000 C 
ATOM     19  C   UNL     1       2.245   5.837  20.170  0.00  0.00    +0.000 C 
ATOM     20  O   UNL     1       2.392   6.981  19.778  0.00  0.00    +0.000 OA
ATOM     21  N   UNL     1       3.259   4.944  20.419  0.00  0.00    +0.000 N 
ATOM     22  H   UNL     1       4.232   5.172  20.249  0.00  0.00    +0.000 HD
ENDBRANCH  14  16
ENDBRANCH  13  14
ENDBRANCH  12  13
ENDBRANCH   2  12
TORSDOF 5
ENDMDL
MODEL 9
REMARK VINA RESULT:      -7.0      1.300      1.302
REMARK  Name = 
REMARK  5 active torsions:
REMARK  status: ('A' for Active; 'I' for Inactive)
REMARK    1  A    between atoms: C_2  and  C_3
REMARK    2  A    between atoms: C_3  and  O_4
REMARK    3  A    between atoms: O_4  and  C_5
REMARK    4  A    between atoms: C_5  and  C_7
REMARK    5  A    between atoms: N_13  and  C_14
REMARK                            x       y       z     vdW  Elec       q    Type
REMARK                         _______ _______ _______ _____ _____    ______ ____
ROOT
ATOM      1  O   UNL     1       3.549   5.855  17.354  0.00  0.00    +0.000 OA
ATOM      2  C   UNL     1       4.381   5.814  18.259  0.00  0.00    +0.000 C 
ATOM      3  N   UNL     1       4.164   5.328  19.535  0.00  0.00    +0.000 N 
ATOM      4  H   UNL     1       4.854   5.527  20.252  0.00  0.00    +0.000 HD
ENDROOT
BRANCH   3   5
ATOM      5  C   UNL     1       3.041   4.579  19.971  0.00  0.00    +0.000 A 
ATOM      6  C   UNL     1       1.807   5.178  20.252  0.00  0.00    +0.000 A 
ATOM      7  C   UNL     1       0.698   4.410  20.612  0.00  0.00    +0.000 A 
ATOM      8  C   UNL     1       0.801   3.025  20.698  0.00  0.00    +0.000 A 
ATOM      9  C   UNL     1       2.022   2.407  20.433  0.00  0.00    +0.000 A 
ATOM     10  C   UNL     1       3.134   3.179  20.074  0.00  0.00    +0.000 A 
ATOM     11 BR   UNL     1       4.777   2.270  19.768  0.00  0.00    +0.000 Br
ENDBRANCH   3   5
BRANCH   2  12
ATOM     12  C   UNL     1       5.804   6.329  18.026  0.00  0.00    +0.000 C 
BRANCH  12  13
ATOM     13  O   UNL     1       6.755   5.323  18.391  0.00  0.00    +0.000 OA
BRANCH  13  14
ATOM     14  C   UNL     1       7.391   4.732  17.338  0.00  0.00    +0.000 C 
ATOM     15  O   UNL     1       8.402   4.042  17.437  0.00  0.00    +0.000 OA
BRANCH  14  16
ATOM     16  C   UNL     1       6.680   5.022  16.012  0.00  0.00    +0.000 C 
ATOM     17  C   UNL     1       6.185   3.752  15.331  0.00  0.00    +0.000 C 
ATOM     18  C   UNL     1       6.243   4.076  13.839  0.00  0.00    +0.000 C 
ATOM     19  C   UNL     1       7.366   5.073  13.761  0.00  0.00    +0.000 C 
ATOM     20  O   UNL     1       7.996   5.382  12.765  0.00  0.00    +0.000 OA
ATOM     21  N   UNL     1       7.531   5.618  15.010  0.00  0.00    +0.000 N 
ATOM     22  H   UNL     1       8.244   6.312  15.206  0.00  0.00    +0.000 HD
ENDBRANCH  14  16
ENDBRANCH  13  14
ENDBRANCH  12  13
ENDBRANCH   2  12
TORSDOF 5
ENDMDL
