MODEL 1
REMARK VINA RESULT:      -7.6      0.000      0.000
REMARK  Name = 
REMARK  6 active torsions:
REMARK  status: ('A' for Active; 'I' for Inactive)
REMARK    1  A    between atoms: C_7  and  C_8
REMARK    2  A    between atoms: C_12  and  N_13
REMARK    3  A    between atoms: N_13  and  C_14
REMARK    4  A    between atoms: N_19  and  C_20
REMARK    5  A    between atoms: C_23  and  C_24
REMARK    6  A    between atoms: C_24  and  O_26
REMARK                            x       y       z     vdW  Elec       q    Type
REMARK                         _______ _______ _______ _____ _____    ______ ____
ROOT
ATOM      1  C   UNL     1      -5.298  13.555  21.291  0.00  0.00    +0.000 A 
ATOM      2  C   UNL     1      -6.067  14.569  21.890  0.00  0.00    +0.000 A 
ATOM      3  N   UNL     1      -5.533  15.026  23.025  0.00  0.00    +0.000 NA
ATOM      4  N   UNL     1      -4.363  14.329  23.151  0.00  0.00    +0.000 N 
ATOM      5  C   UNL     1      -3.395  14.451  24.177  0.00  0.00    +0.000 A 
ATOM      6  C   UNL     1      -2.304  13.665  24.109  0.00  0.00    +0.000 A 
ATOM      7  C   UNL     1      -2.182  12.699  22.961  0.00  0.00    +0.000 A 
ATOM      8  N   UNL     1      -1.076  11.877  22.908  0.00  0.00    +0.000 N 
ATOM      9  N   UNL     1      -3.109  12.599  22.038  0.00  0.00    +0.000 NA
ATOM     10  C   UNL     1      -4.199  13.414  22.113  0.00  0.00    +0.000 A 
ATOM     11  H   UNL     1      -0.517  11.749  23.743  0.00  0.00    +0.000 HD
ENDROOT
BRANCH   1  18
ATOM     12  O   UNL     1      -7.917   8.895  21.066  0.00  0.00    +0.000 OA
ATOM     13  C   UNL     1      -7.392   9.799  20.438  0.00  0.00    +0.000 C 
ATOM     14  N   UNL     1      -7.263   9.866  19.077  0.00  0.00    +0.000 N 
ATOM     15  C   UNL     1      -6.551  10.972  18.698  0.00  0.00    +0.000 C 
ATOM     16  O   UNL     1      -6.216  11.298  17.577  0.00  0.00    +0.000 OA
ATOM     17  C   UNL     1      -6.250  11.686  19.974  0.00  0.00    +0.000 C 
ATOM     18  C   UNL     1      -5.585  12.842  20.085  0.00  0.00    +0.000 C 
ATOM     19  N   UNL     1      -6.800  10.925  20.967  0.00  0.00    +0.000 N 
ATOM     20  H   UNL     1      -7.593   9.156  18.447  0.00  0.00    +0.000 HD
ATOM     21  H   UNL     1      -6.663  11.098  21.958  0.00  0.00    +0.000 HD
ENDBRANCH   1  18
BRANCH   8  22
ATOM     22  C   UNL     1      -0.459  11.368  21.744  0.00  0.00    +0.000 A 
ATOM     23  C   UNL     1      -0.025  12.186  20.694  0.00  0.00    +0.000 A 
ATOM     24  C   UNL     1       0.610  11.639  19.573  0.00  0.00    +0.000 A 
ATOM     25  C   UNL     1       0.788  10.256  19.460  0.00  0.00    +0.000 A 
ATOM     26  C   UNL     1       0.324   9.418  20.476  0.00  0.00    +0.000 A 
ATOM     27  C   UNL     1      -0.292   9.982  21.597  0.00  0.00    +0.000 A 
ATOM     28  F   UNL     1      -0.712   9.163  22.574  0.00  0.00    +0.000 F 
BRANCH  25  29
ATOM     29  C   UNL     1       1.548   9.753  18.289  0.00  0.00    +0.000 C 
ATOM     30  O   UNL     1       1.756   8.565  18.104  0.00  0.00    +0.000 OA
BRANCH  29  31
ATOM     31  O   UNL     1       1.999  10.716  17.458  0.00  0.00    +0.000 OA
ATOM     32  H   UNL     1       1.471  10.856  16.650  0.00  0.00    +0.000 HD
ENDBRANCH  29  31
ENDBRANCH  25  29
ENDBRANCH   8  22
BRANCH   5  33
ATOM     33  N   UNL     1      -3.657  15.404  25.162  0.00  0.00    +0.000 N 
ATOM     34  H   UNL     1      -3.764  14.952  26.077  0.00  0.00    +0.000 HD
BRANCH  33  35
ATOM     35  C   UNL     1      -2.997  16.707  25.131  0.00  0.00    +0.000 C 
ATOM     36  C   UNL     1      -3.057  17.593  23.920  0.00  0.00    +0.000 C 
ATOM     37  C   UNL     1      -3.844  17.950  25.146  0.00  0.00    +0.000 C 
ENDBRANCH  33  35
ENDBRANCH   5  33
TORSDOF 6
ENDMDL
MODEL 2
REMARK VINA RESULT:      -7.3      3.488      6.949
REMARK  Name = 
REMARK  6 active torsions:
REMARK  status: ('A' for Active; 'I' for Inactive)
REMARK    1  A    between atoms: C_7  and  C_8
REMARK    2  A    between atoms: C_12  and  N_13
REMARK    3  A    between atoms: N_13  and  C_14
REMARK    4  A    between atoms: N_19  and  C_20
REMARK    5  A    between atoms: C_23  and  C_24
REMARK    6  A    between atoms: C_24  and  O_26
REMARK                            x       y       z     vdW  Elec       q    Type
REMARK                         _______ _______ _______ _____ _____    ______ ____
ROOT
ATOM      1  C   UNL     1      -3.618  11.117  16.988  0.00  0.00    +0.000 A 
ATOM      2  C   UNL     1      -3.218  10.067  16.140  0.00  0.00    +0.000 A 
ATOM      3  N   UNL     1      -1.979   9.639  16.392  0.00  0.00    +0.000 NA
ATOM      4  N   UNL     1      -1.573  10.391  17.459  0.00  0.00    +0.000 N 
ATOM      5  C   UNL     1      -0.335  10.317  18.141  0.00  0.00    +0.000 A 
ATOM      6  C   UNL     1      -0.137  11.154  19.177  0.00  0.00    +0.000 A 
ATOM      7  C   UNL     1      -1.230  12.124  19.539  0.00  0.00    +0.000 A 
ATOM      8  N   UNL     1      -1.014  12.998  20.584  0.00  0.00    +0.000 N 
ATOM      9  N   UNL     1      -2.357  12.178  18.872  0.00  0.00    +0.000 NA
ATOM     10  C   UNL     1      -2.548  11.311  17.836  0.00  0.00    +0.000 A 
ATOM     11  H   UNL     1      -0.067  13.154  20.908  0.00  0.00    +0.000 HD
ENDROOT
BRANCH   1  18
ATOM     12  O   UNL     1      -7.101  11.157  21.049  0.00  0.00    +0.000 OA
ATOM     13  C   UNL     1      -6.830  11.576  19.937  0.00  0.00    +0.000 C 
ATOM     14  N   UNL     1      -7.608  12.407  19.176  0.00  0.00    +0.000 N 
ATOM     15  C   UNL     1      -7.052  12.621  17.944  0.00  0.00    +0.000 C 
ATOM     16  O   UNL     1      -7.508  13.260  17.018  0.00  0.00    +0.000 OA
ATOM     17  C   UNL     1      -5.762  11.869  17.974  0.00  0.00    +0.000 C 
ATOM     18  C   UNL     1      -4.867  11.813  16.980  0.00  0.00    +0.000 C 
ATOM     19  N   UNL     1      -5.698  11.283  19.206  0.00  0.00    +0.000 N 
ATOM     20  H   UNL     1      -8.504  12.757  19.466  0.00  0.00    +0.000 HD
ATOM     21  H   UNL     1      -4.987  10.615  19.482  0.00  0.00    +0.000 HD
ENDBRANCH   1  18
BRANCH   8  22
ATOM     22  C   UNL     1      -1.992  13.534  21.450  0.00  0.00    +0.000 A 
ATOM     23  C   UNL     1      -2.477  14.843  21.332  0.00  0.00    +0.000 A 
ATOM     24  C   UNL     1      -3.469  15.322  22.194  0.00  0.00    +0.000 A 
ATOM     25  C   UNL     1      -3.969  14.515  23.222  0.00  0.00    +0.000 A 
ATOM     26  C   UNL     1      -3.468  13.221  23.386  0.00  0.00    +0.000 A 
ATOM     27  C   UNL     1      -2.491  12.753  22.504  0.00  0.00    +0.000 A 
ATOM     28  F   UNL     1      -2.036  11.499  22.663  0.00  0.00    +0.000 F 
BRANCH  25  29
ATOM     29  C   UNL     1      -5.082  15.054  24.041  0.00  0.00    +0.000 C 
ATOM     30  O   UNL     1      -6.241  14.708  23.882  0.00  0.00    +0.000 OA
BRANCH  29  31
ATOM     31  O   UNL     1      -4.708  15.965  24.965  0.00  0.00    +0.000 OA
ATOM     32  H   UNL     1      -4.096  15.641  25.651  0.00  0.00    +0.000 HD
ENDBRANCH  29  31
ENDBRANCH  25  29
ENDBRANCH   8  22
BRANCH   5  33
ATOM     33  N   UNL     1       0.565   9.354  17.685  0.00  0.00    +0.000 N 
ATOM     34  H   UNL     1       0.577   9.334  16.658  0.00  0.00    +0.000 HD
BRANCH  33  35
ATOM     35  C   UNL     1       1.835   9.134  18.374  0.00  0.00    +0.000 C 
ATOM     36  C   UNL     1       2.127   7.850  19.097  0.00  0.00    +0.000 C 
ATOM     37  C   UNL     1       2.813   8.148  17.796  0.00  0.00    +0.000 C 
ENDBRANCH  33  35
ENDBRANCH   5  33
TORSDOF 6
ENDMDL
MODEL 3
REMARK VINA RESULT:      -7.2      3.327      6.820
REMARK  Name = 
REMARK  6 active torsions:
REMARK  status: ('A' for Active; 'I' for Inactive)
REMARK    1  A    between atoms: C_7  and  C_8
REMARK    2  A    between atoms: C_12  and  N_13
REMARK    3  A    between atoms: N_13  and  C_14
REMARK    4  A    between atoms: N_19  and  C_20
REMARK    5  A    between atoms: C_23  and  C_24
REMARK    6  A    between atoms: C_24  and  O_26
REMARK                            x       y       z     vdW  Elec       q    Type
REMARK                         _______ _______ _______ _____ _____    ______ ____
ROOT
ATOM      1  C   UNL     1      -3.154  11.175  17.577  0.00  0.00    +0.000 A 
ATOM      2  C   UNL     1      -2.423  10.212  16.858  0.00  0.00    +0.000 A 
ATOM      3  N   UNL     1      -1.278   9.875  17.456  0.00  0.00    +0.000 NA
ATOM      4  N   UNL     1      -1.279  10.597  18.616  0.00  0.00    +0.000 N 
ATOM      5  C   UNL     1      -0.295  10.589  19.636  0.00  0.00    +0.000 A 
ATOM      6  C   UNL     1      -0.494  11.380  20.707  0.00  0.00    +0.000 A 
ATOM      7  C   UNL     1      -1.733  12.233  20.753  0.00  0.00    +0.000 A 
ATOM      8  N   UNL     1      -1.920  13.062  21.839  0.00  0.00    +0.000 N 
ATOM      9  N   UNL     1      -2.613  12.230  19.781  0.00  0.00    +0.000 NA
ATOM     10  C   UNL     1      -2.406  11.410  18.712  0.00  0.00    +0.000 A 
ATOM     11  H   UNL     1      -1.130  13.279  22.437  0.00  0.00    +0.000 HD
ENDROOT
BRANCH   1  18
ATOM     12  O   UNL     1      -7.634  10.806  20.479  0.00  0.00    +0.000 OA
ATOM     13  C   UNL     1      -7.097  11.279  19.491  0.00  0.00    +0.000 C 
ATOM     14  N   UNL     1      -7.699  12.063  18.544  0.00  0.00    +0.000 N 
ATOM     15  C   UNL     1      -6.837  12.358  17.522  0.00  0.00    +0.000 C 
ATOM     16  O   UNL     1      -7.067  12.983  16.506  0.00  0.00    +0.000 OA
ATOM     17  C   UNL     1      -5.547  11.716  17.915  0.00  0.00    +0.000 C 
ATOM     18  C   UNL     1      -4.406  11.765  17.217  0.00  0.00    +0.000 C 
ATOM     19  N   UNL     1      -5.784  11.103  19.112  0.00  0.00    +0.000 N 
ATOM     20  H   UNL     1      -8.667  12.327  18.568  0.00  0.00    +0.000 HD
ATOM     21  H   UNL     1      -5.123  10.489  19.577  0.00  0.00    +0.000 HD
ENDBRANCH   1  18
BRANCH   8  22
ATOM     22  C   UNL     1      -3.157  13.466  22.389  0.00  0.00    +0.000 A 
ATOM     23  C   UNL     1      -3.820  14.634  21.992  0.00  0.00    +0.000 A 
ATOM     24  C   UNL     1      -5.060  14.978  22.543  0.00  0.00    +0.000 A 
ATOM     25  C   UNL     1      -5.644  14.182  23.534  0.00  0.00    +0.000 A 
ATOM     26  C   UNL     1      -4.979  13.036  23.976  0.00  0.00    +0.000 A 
ATOM     27  C   UNL     1      -3.751  12.697  23.402  0.00  0.00    +0.000 A 
ATOM     28  F   UNL     1      -3.136  11.580  23.824  0.00  0.00    +0.000 F 
BRANCH  25  29
ATOM     29  C   UNL     1      -6.999  14.556  24.008  0.00  0.00    +0.000 C 
ATOM     30  O   UNL     1      -7.756  13.755  24.531  0.00  0.00    +0.000 OA
BRANCH  29  31
ATOM     31  O   UNL     1      -7.327  15.849  23.802  0.00  0.00    +0.000 OA
ATOM     32  H   UNL     1      -6.617  16.412  23.440  0.00  0.00    +0.000 HD
ENDBRANCH  29  31
ENDBRANCH  25  29
ENDBRANCH   8  22
BRANCH   5  33
ATOM     33  N   UNL     1       0.787   9.731  19.441  0.00  0.00    +0.000 N 
ATOM     34  H   UNL     1       1.425  10.115  18.733  0.00  0.00    +0.000 HD
BRANCH  33  35
ATOM     35  C   UNL     1       1.388   9.022  20.568  0.00  0.00    +0.000 C 
ATOM     36  C   UNL     1       0.633   7.971  21.331  0.00  0.00    +0.000 C 
ATOM     37  C   UNL     1       1.742   7.569  20.406  0.00  0.00    +0.000 C 
ENDBRANCH  33  35
ENDBRANCH   5  33
TORSDOF 6
ENDMDL
MODEL 4
REMARK VINA RESULT:      -7.2      1.313      1.888
REMARK  Name = 
REMARK  6 active torsions:
REMARK  status: ('A' for Active; 'I' for Inactive)
REMARK    1  A    between atoms: C_7  and  C_8
REMARK    2  A    between atoms: C_12  and  N_13
REMARK    3  A    between atoms: N_13  and  C_14
REMARK    4  A    between atoms: N_19  and  C_20
REMARK    5  A    between atoms: C_23  and  C_24
REMARK    6  A    between atoms: C_24  and  O_26
REMARK                            x       y       z     vdW  Elec       q    Type
REMARK                         _______ _______ _______ _____ _____    ______ ____
ROOT
ATOM      1  C   UNL     1      -5.557  13.085  21.623  0.00  0.00    +0.000 A 
ATOM      2  C   UNL     1      -6.385  14.046  22.231  0.00  0.00    +0.000 A 
ATOM      3  N   UNL     1      -5.805  14.648  23.273  0.00  0.00    +0.000 NA
ATOM      4  N   UNL     1      -4.552  14.104  23.322  0.00  0.00    +0.000 N 
ATOM      5  C   UNL     1      -3.514  14.416  24.232  0.00  0.00    +0.000 A 
ATOM      6  C   UNL     1      -2.345  13.759  24.103  0.00  0.00    +0.000 A 
ATOM      7  C   UNL     1      -2.215  12.727  23.014  0.00  0.00    +0.000 A 
ATOM      8  N   UNL     1      -1.027  12.038  22.900  0.00  0.00    +0.000 N 
ATOM      9  N   UNL     1      -3.206  12.450  22.200  0.00  0.00    +0.000 NA
ATOM     10  C   UNL     1      -4.376  13.137  22.335  0.00  0.00    +0.000 A 
ATOM     11  H   UNL     1      -0.379  12.040  23.680  0.00  0.00    +0.000 HD
ENDROOT
BRANCH   1  18
ATOM     12  O   UNL     1      -2.155  11.925  17.660  0.00  0.00    +0.000 OA
ATOM     13  C   UNL     1      -3.260  11.739  18.140  0.00  0.00    +0.000 C 
ATOM     14  N   UNL     1      -4.251  10.961  17.603  0.00  0.00    +0.000 N 
ATOM     15  C   UNL     1      -5.397  11.031  18.348  0.00  0.00    +0.000 C 
ATOM     16  O   UNL     1      -6.470  10.508  18.122  0.00  0.00    +0.000 OA
ATOM     17  C   UNL     1      -5.050  11.919  19.498  0.00  0.00    +0.000 C 
ATOM     18  C   UNL     1      -5.868  12.252  20.503  0.00  0.00    +0.000 C 
ATOM     19  N   UNL     1      -3.749  12.288  19.306  0.00  0.00    +0.000 N 
ATOM     20  H   UNL     1      -4.163  10.461  16.737  0.00  0.00    +0.000 HD
ATOM     21  H   UNL     1      -3.265  12.981  19.867  0.00  0.00    +0.000 HD
ENDBRANCH   1  18
BRANCH   8  22
ATOM     22  C   UNL     1      -0.465  11.515  21.715  0.00  0.00    +0.000 A 
ATOM     23  C   UNL     1      -0.006  12.325  20.669  0.00  0.00    +0.000 A 
ATOM     24  C   UNL     1       0.572  11.764  19.525  0.00  0.00    +0.000 A 
ATOM     25  C   UNL     1       0.666  10.375  19.384  0.00  0.00    +0.000 A 
ATOM     26  C   UNL     1       0.175   9.547  20.396  0.00  0.00    +0.000 A 
ATOM     27  C   UNL     1      -0.382  10.125  21.539  0.00  0.00    +0.000 A 
ATOM     28  F   UNL     1      -0.830   9.313  22.511  0.00  0.00    +0.000 F 
BRANCH  25  29
ATOM     29  C   UNL     1       1.371   9.850  18.189  0.00  0.00    +0.000 C 
ATOM     30  O   UNL     1       1.311   8.679  17.854  0.00  0.00    +0.000 OA
BRANCH  29  31
ATOM     31  O   UNL     1       2.091  10.771  17.514  0.00  0.00    +0.000 OA
ATOM     32  H   UNL     1       3.011  10.519  17.308  0.00  0.00    +0.000 HD
ENDBRANCH  29  31
ENDBRANCH  25  29
ENDBRANCH   8  22
BRANCH   5  33
ATOM     33  N   UNL     1      -3.796  15.405  25.174  0.00  0.00    +0.000 N 
ATOM     34  H   UNL     1      -3.768  15.014  26.123  0.00  0.00    +0.000 HD
BRANCH  33  35
ATOM     35  C   UNL     1      -3.297  16.767  24.996  0.00  0.00    +0.000 C 
ATOM     36  C   UNL     1      -3.750  17.630  23.853  0.00  0.00    +0.000 C 
ATOM     37  C   UNL     1      -4.231  17.920  25.244  0.00  0.00    +0.000 C 
ENDBRANCH  33  35
ENDBRANCH   5  33
TORSDOF 6
ENDMDL
MODEL 5
REMARK VINA RESULT:      -7.2      3.648      7.088
REMARK  Name = 
REMARK  6 active torsions:
REMARK  status: ('A' for Active; 'I' for Inactive)
REMARK    1  A    between atoms: C_7  and  C_8
REMARK    2  A    between atoms: C_12  and  N_13
REMARK    3  A    between atoms: N_13  and  C_14
REMARK    4  A    between atoms: N_19  and  C_20
REMARK    5  A    between atoms: C_23  and  C_24
REMARK    6  A    between atoms: C_24  and  O_26
REMARK                            x       y       z     vdW  Elec       q    Type
REMARK                         _______ _______ _______ _____ _____    ______ ____
ROOT
ATOM      1  C   UNL     1      -3.652  11.151  17.041  0.00  0.00    +0.000 A 
ATOM      2  C   UNL     1      -3.274  10.098  16.187  0.00  0.00    +0.000 A 
ATOM      3  N   UNL     1      -2.032   9.664  16.416  0.00  0.00    +0.000 NA
ATOM      4  N   UNL     1      -1.602  10.415  17.474  0.00  0.00    +0.000 N 
ATOM      5  C   UNL     1      -0.351  10.335  18.133  0.00  0.00    +0.000 A 
ATOM      6  C   UNL     1      -0.130  11.173  19.164  0.00  0.00    +0.000 A 
ATOM      7  C   UNL     1      -1.211  12.149  19.545  0.00  0.00    +0.000 A 
ATOM      8  N   UNL     1      -0.971  13.023  20.584  0.00  0.00    +0.000 N 
ATOM      9  N   UNL     1      -2.350  12.208  18.899  0.00  0.00    +0.000 NA
ATOM     10  C   UNL     1      -2.565  11.341  17.868  0.00  0.00    +0.000 A 
ATOM     11  H   UNL     1      -0.017  13.175  20.890  0.00  0.00    +0.000 HD
ENDROOT
BRANCH   1  18
ATOM     12  O   UNL     1      -7.071  11.189  21.156  0.00  0.00    +0.000 OA
ATOM     13  C   UNL     1      -6.815  11.613  20.041  0.00  0.00    +0.000 C 
ATOM     14  N   UNL     1      -7.601  12.451  19.297  0.00  0.00    +0.000 N 
ATOM     15  C   UNL     1      -7.063  12.668  18.058  0.00  0.00    +0.000 C 
ATOM     16  O   UNL     1      -7.530  13.314  17.142  0.00  0.00    +0.000 OA
ATOM     17  C   UNL     1      -5.776  11.909  18.064  0.00  0.00    +0.000 C 
ATOM     18  C   UNL     1      -4.897  11.854  17.056  0.00  0.00    +0.000 C 
ATOM     19  N   UNL     1      -5.697  11.317  19.292  0.00  0.00    +0.000 N 
ATOM     20  H   UNL     1      -8.490  12.804  19.603  0.00  0.00    +0.000 HD
ATOM     21  H   UNL     1      -4.984  10.644  19.554  0.00  0.00    +0.000 HD
ENDBRANCH   1  18
BRANCH   8  22
ATOM     22  C   UNL     1      -1.929  13.566  21.468  0.00  0.00    +0.000 A 
ATOM     23  C   UNL     1      -2.560  12.810  22.464  0.00  0.00    +0.000 A 
ATOM     24  C   UNL     1      -3.481  13.398  23.337  0.00  0.00    +0.000 A 
ATOM     25  C   UNL     1      -3.823  14.748  23.207  0.00  0.00    +0.000 A 
ATOM     26  C   UNL     1      -3.239  15.511  22.193  0.00  0.00    +0.000 A 
ATOM     27  C   UNL     1      -2.307  14.912  21.342  0.00  0.00    +0.000 A 
ATOM     28  F   UNL     1      -1.739  15.665  20.386  0.00  0.00    +0.000 F 
BRANCH  25  29
ATOM     29  C   UNL     1      -4.737  15.328  24.222  0.00  0.00    +0.000 C 
ATOM     30  O   UNL     1      -4.431  16.290  24.906  0.00  0.00    +0.000 OA
BRANCH  29  31
ATOM     31  O   UNL     1      -5.924  14.696  24.333  0.00  0.00    +0.000 OA
ATOM     32  H   UNL     1      -5.880  13.758  24.598  0.00  0.00    +0.000 HD
ENDBRANCH  29  31
ENDBRANCH  25  29
ENDBRANCH   8  22
BRANCH   5  33
ATOM     33  N   UNL     1       0.535   9.367  17.660  0.00  0.00    +0.000 N 
ATOM     34  H   UNL     1       0.493   9.314  16.636  0.00  0.00    +0.000 HD
BRANCH  33  35
ATOM     35  C   UNL     1       1.841   9.183  18.288  0.00  0.00    +0.000 C 
ATOM     36  C   UNL     1       2.106   8.055  19.243  0.00  0.00    +0.000 C 
ATOM     37  C   UNL     1       2.693   8.018  17.863  0.00  0.00    +0.000 C 
ENDBRANCH  33  35
ENDBRANCH   5  33
TORSDOF 6
ENDMDL
MODEL 6
REMARK VINA RESULT:      -7.1      3.516      6.797
REMARK  Name = 
REMARK  6 active torsions:
REMARK  status: ('A' for Active; 'I' for Inactive)
REMARK    1  A    between atoms: C_7  and  C_8
REMARK    2  A    between atoms: C_12  and  N_13
REMARK    3  A    between atoms: N_13  and  C_14
REMARK    4  A    between atoms: N_19  and  C_20
REMARK    5  A    between atoms: C_23  and  C_24
REMARK    6  A    between atoms: C_24  and  O_26
REMARK                            x       y       z     vdW  Elec       q    Type
REMARK                         _______ _______ _______ _____ _____    ______ ____
ROOT
ATOM      1  C   UNL     1      -3.718  11.300  17.765  0.00  0.00    +0.000 A 
ATOM      2  C   UNL     1      -3.463  10.185  16.945  0.00  0.00    +0.000 A 
ATOM      3  N   UNL     1      -2.187   9.796  16.980  0.00  0.00    +0.000 NA
ATOM      4  N   UNL     1      -1.600  10.643  17.877  0.00  0.00    +0.000 N 
ATOM      5  C   UNL     1      -0.249  10.644  18.303  0.00  0.00    +0.000 A 
ATOM      6  C   UNL     1       0.125  11.572  19.205  0.00  0.00    +0.000 A 
ATOM      7  C   UNL     1      -0.903  12.556  19.695  0.00  0.00    +0.000 A 
ATOM      8  N   UNL     1      -0.511  13.521  20.599  0.00  0.00    +0.000 N 
ATOM      9  N   UNL     1      -2.141  12.538  19.264  0.00  0.00    +0.000 NA
ATOM     10  C   UNL     1      -2.508  11.581  18.363  0.00  0.00    +0.000 A 
ATOM     11  H   UNL     1       0.477  13.717  20.714  0.00  0.00    +0.000 HD
ENDROOT
BRANCH   1  18
ATOM     12  O   UNL     1      -7.595   9.694  21.084  0.00  0.00    +0.000 OA
ATOM     13  C   UNL     1      -7.214  10.547  20.301  0.00  0.00    +0.000 C 
ATOM     14  N   UNL     1      -7.916  11.658  19.915  0.00  0.00    +0.000 N 
ATOM     15  C   UNL     1      -7.240  12.368  18.960  0.00  0.00    +0.000 C 
ATOM     16  O   UNL     1      -7.603  13.366  18.372  0.00  0.00    +0.000 OA
ATOM     17  C   UNL     1      -5.955  11.629  18.776  0.00  0.00    +0.000 C 
ATOM     18  C   UNL     1      -4.964  11.979  17.948  0.00  0.00    +0.000 C 
ATOM     19  N   UNL     1      -6.013  10.560  19.625  0.00  0.00    +0.000 N 
ATOM     20  H   UNL     1      -8.839  11.880  20.244  0.00  0.00    +0.000 HD
ATOM     21  H   UNL     1      -5.330   9.810  19.644  0.00  0.00    +0.000 HD
ENDBRANCH   1  18
BRANCH   8  22
ATOM     22  C   UNL     1      -1.313  14.120  21.595  0.00  0.00    +0.000 A 
ATOM     23  C   UNL     1      -1.935  15.364  21.425  0.00  0.00    +0.000 A 
ATOM     24  C   UNL     1      -2.747  15.904  22.428  0.00  0.00    +0.000 A 
ATOM     25  C   UNL     1      -2.922  15.231  23.642  0.00  0.00    +0.000 A 
ATOM     26  C   UNL     1      -2.276  14.010  23.850  0.00  0.00    +0.000 A 
ATOM     27  C   UNL     1      -1.484  13.476  22.830  0.00  0.00    +0.000 A 
ATOM     28  F   UNL     1      -0.888  12.291  23.039  0.00  0.00    +0.000 F 
BRANCH  25  29
ATOM     29  C   UNL     1      -3.866  15.817  24.624  0.00  0.00    +0.000 C 
ATOM     30  O   UNL     1      -3.533  16.677  25.422  0.00  0.00    +0.000 OA
BRANCH  29  31
ATOM     31  O   UNL     1      -5.116  15.310  24.571  0.00  0.00    +0.000 OA
ATOM     32  H   UNL     1      -5.262  14.619  23.898  0.00  0.00    +0.000 HD
ENDBRANCH  29  31
ENDBRANCH  25  29
ENDBRANCH   8  22
BRANCH   5  33
ATOM     33  N   UNL     1       0.570   9.656  17.759  0.00  0.00    +0.000 N 
ATOM     34  H   UNL     1       0.542   9.693  16.733  0.00  0.00    +0.000 HD
BRANCH  33  35
ATOM     35  C   UNL     1       1.849   9.321  18.382  0.00  0.00    +0.000 C 
ATOM     36  C   UNL     1       2.031   8.062  19.181  0.00  0.00    +0.000 C 
ATOM     37  C   UNL     1       2.652   8.180  17.821  0.00  0.00    +0.000 C 
ENDBRANCH  33  35
ENDBRANCH   5  33
TORSDOF 6
ENDMDL
MODEL 7
REMARK VINA RESULT:      -7.0      4.508      7.066
REMARK  Name = 
REMARK  6 active torsions:
REMARK  status: ('A' for Active; 'I' for Inactive)
REMARK    1  A    between atoms: C_7  and  C_8
REMARK    2  A    between atoms: C_12  and  N_13
REMARK    3  A    between atoms: N_13  and  C_14
REMARK    4  A    between atoms: N_19  and  C_20
REMARK    5  A    between atoms: C_23  and  C_24
REMARK    6  A    between atoms: C_24  and  O_26
REMARK                            x       y       z     vdW  Elec       q    Type
REMARK                         _______ _______ _______ _____ _____    ______ ____
ROOT
ATOM      1  C   UNL     1       1.952  14.178  20.879  0.00  0.00    +0.000 A 
ATOM      2  C   UNL     1       1.614  15.172  21.816  0.00  0.00    +0.000 A 
ATOM      3  N   UNL     1       0.534  14.863  22.537  0.00  0.00    +0.000 NA
ATOM      4  N   UNL     1       0.182  13.617  22.098  0.00  0.00    +0.000 N 
ATOM      5  C   UNL     1      -0.890  12.814  22.558  0.00  0.00    +0.000 A 
ATOM      6  C   UNL     1      -1.061  11.607  21.986  0.00  0.00    +0.000 A 
ATOM      7  C   UNL     1      -0.119  11.188  20.890  0.00  0.00    +0.000 A 
ATOM      8  N   UNL     1      -0.312   9.962  20.289  0.00  0.00    +0.000 N 
ATOM      9  N   UNL     1       0.852  11.966  20.476  0.00  0.00    +0.000 NA
ATOM     10  C   UNL     1       1.022  13.179  21.077  0.00  0.00    +0.000 A 
ATOM     11  H   UNL     1      -1.205   9.494  20.400  0.00  0.00    +0.000 HD
ENDROOT
BRANCH   1  18
ATOM     12  O   UNL     1       2.417  17.648  16.834  0.00  0.00    +0.000 OA
ATOM     13  C   UNL     1       2.925  16.723  17.445  0.00  0.00    +0.000 C 
ATOM     14  N   UNL     1       4.112  16.112  17.142  0.00  0.00    +0.000 N 
ATOM     15  C   UNL     1       4.355  15.055  17.977  0.00  0.00    +0.000 C 
ATOM     16  O   UNL     1       5.285  14.275  17.946  0.00  0.00    +0.000 OA
ATOM     17  C   UNL     1       3.204  15.050  18.929  0.00  0.00    +0.000 C 
ATOM     18  C   UNL     1       3.033  14.195  19.944  0.00  0.00    +0.000 C 
ATOM     19  N   UNL     1       2.401  16.089  18.551  0.00  0.00    +0.000 N 
ATOM     20  H   UNL     1       4.691  16.368  16.363  0.00  0.00    +0.000 HD
ATOM     21  H   UNL     1       1.483  16.270  18.943  0.00  0.00    +0.000 HD
ENDBRANCH   1  18
BRANCH   8  22
ATOM     22  C   UNL     1       0.682   9.132  19.725  0.00  0.00    +0.000 A 
ATOM     23  C   UNL     1       1.353   8.144  20.456  0.00  0.00    +0.000 A 
ATOM     24  C   UNL     1       2.310   7.325  19.847  0.00  0.00    +0.000 A 
ATOM     25  C   UNL     1       2.646   7.504  18.501  0.00  0.00    +0.000 A 
ATOM     26  C   UNL     1       2.021   8.512  17.764  0.00  0.00    +0.000 A 
ATOM     27  C   UNL     1       1.055   9.309  18.383  0.00  0.00    +0.000 A 
ATOM     28  F   UNL     1       0.449  10.260  17.654  0.00  0.00    +0.000 F 
BRANCH  25  29
ATOM     29  C   UNL     1       3.602   6.543  17.897  0.00  0.00    +0.000 C 
ATOM     30  O   UNL     1       3.418   5.337  17.914  0.00  0.00    +0.000 OA
BRANCH  29  31
ATOM     31  O   UNL     1       4.692   7.112  17.341  0.00  0.00    +0.000 OA
ATOM     32  H   UNL     1       5.363   6.491  17.000  0.00  0.00    +0.000 HD
ENDBRANCH  29  31
ENDBRANCH  25  29
ENDBRANCH   8  22
BRANCH   5  33
ATOM     33  N   UNL     1      -1.662  13.348  23.589  0.00  0.00    +0.000 N 
ATOM     34  H   UNL     1      -1.198  14.168  23.996  0.00  0.00    +0.000 HD
BRANCH  33  35
ATOM     35  C   UNL     1      -3.119  13.386  23.486  0.00  0.00    +0.000 C 
ATOM     36  C   UNL     1      -3.998  12.645  24.454  0.00  0.00    +0.000 C 
ATOM     37  C   UNL     1      -3.901  14.141  24.527  0.00  0.00    +0.000 C 
ENDBRANCH  33  35
ENDBRANCH   5  33
TORSDOF 6
ENDMDL
MODEL 8
REMARK VINA RESULT:      -6.9      1.714      2.374
REMARK  Name = 
REMARK  6 active torsions:
REMARK  status: ('A' for Active; 'I' for Inactive)
REMARK    1  A    between atoms: C_7  and  C_8
REMARK    2  A    between atoms: C_12  and  N_13
REMARK    3  A    between atoms: N_13  and  C_14
REMARK    4  A    between atoms: N_19  and  C_20
REMARK    5  A    between atoms: C_23  and  C_24
REMARK    6  A    between atoms: C_24  and  O_26
REMARK                            x       y       z     vdW  Elec       q    Type
REMARK                         _______ _______ _______ _____ _____    ______ ____
ROOT
ATOM      1  C   UNL     1      -5.302  13.377  21.230  0.00  0.00    +0.000 A 
ATOM      2  C   UNL     1      -6.099  14.427  21.722  0.00  0.00    +0.000 A 
ATOM      3  N   UNL     1      -5.623  14.958  22.850  0.00  0.00    +0.000 NA
ATOM      4  N   UNL     1      -4.462  14.273  23.081  0.00  0.00    +0.000 N 
ATOM      5  C   UNL     1      -3.548  14.464  24.146  0.00  0.00    +0.000 A 
ATOM      6  C   UNL     1      -2.456  13.677  24.185  0.00  0.00    +0.000 A 
ATOM      7  C   UNL     1      -2.277  12.638  23.111  0.00  0.00    +0.000 A 
ATOM      8  N   UNL     1      -1.171  11.816  23.168  0.00  0.00    +0.000 N 
ATOM      9  N   UNL     1      -3.155  12.476  22.150  0.00  0.00    +0.000 NA
ATOM     10  C   UNL     1      -4.247  13.292  22.116  0.00  0.00    +0.000 A 
ATOM     11  H   UNL     1      -0.656  11.744  24.038  0.00  0.00    +0.000 HD
ENDROOT
BRANCH   1  18
ATOM     12  O   UNL     1      -1.485  11.856  17.803  0.00  0.00    +0.000 OA
ATOM     13  C   UNL     1      -2.664  11.792  18.108  0.00  0.00    +0.000 C 
ATOM     14  N   UNL     1      -3.641  11.129  17.414  0.00  0.00    +0.000 N 
ATOM     15  C   UNL     1      -4.872  11.324  17.979  0.00  0.00    +0.000 C 
ATOM     16  O   UNL     1      -5.949  10.923  17.585  0.00  0.00    +0.000 OA
ATOM     17  C   UNL     1      -4.608  12.166  19.184  0.00  0.00    +0.000 C 
ATOM     18  C   UNL     1      -5.528  12.586  20.061  0.00  0.00    +0.000 C 
ATOM     19  N   UNL     1      -3.261  12.390  19.196  0.00  0.00    +0.000 N 
ATOM     20  H   UNL     1      -3.478  10.624  16.561  0.00  0.00    +0.000 HD
ATOM     21  H   UNL     1      -2.795  13.024  19.837  0.00  0.00    +0.000 HD
ENDBRANCH   1  18
BRANCH   8  22
ATOM     22  C   UNL     1      -0.496  11.233  22.074  0.00  0.00    +0.000 A 
ATOM     23  C   UNL     1      -0.529   9.859  21.804  0.00  0.00    +0.000 A 
ATOM     24  C   UNL     1       0.131   9.329  20.690  0.00  0.00    +0.000 A 
ATOM     25  C   UNL     1       0.873  10.158  19.842  0.00  0.00    +0.000 A 
ATOM     26  C   UNL     1       0.956  11.525  20.117  0.00  0.00    +0.000 A 
ATOM     27  C   UNL     1       0.276  12.040  21.224  0.00  0.00    +0.000 A 
ATOM     28  F   UNL     1       0.349  13.360  21.460  0.00  0.00    +0.000 F 
BRANCH  25  29
ATOM     29  C   UNL     1       1.471   9.546  18.630  0.00  0.00    +0.000 C 
ATOM     30  O   UNL     1       1.970   8.433  18.636  0.00  0.00    +0.000 OA
BRANCH  29  31
ATOM     31  O   UNL     1       1.430  10.326  17.530  0.00  0.00    +0.000 OA
ATOM     32  H   UNL     1       1.418  11.287  17.695  0.00  0.00    +0.000 HD
ENDBRANCH  29  31
ENDBRANCH  25  29
ENDBRANCH   8  22
BRANCH   5  33
ATOM     33  N   UNL     1      -3.858  15.479  25.051  0.00  0.00    +0.000 N 
ATOM     34  H   UNL     1      -4.064  15.082  25.975  0.00  0.00    +0.000 HD
BRANCH  33  35
ATOM     35  C   UNL     1      -3.148  16.755  25.012  0.00  0.00    +0.000 C 
ATOM     36  C   UNL     1      -3.061  17.571  23.754  0.00  0.00    +0.000 C 
ATOM     37  C   UNL     1      -3.943  18.024  24.879  0.00  0.00    +0.000 C 
ENDBRANCH  33  35
ENDBRANCH   5  33
TORSDOF 6
ENDMDL
MODEL 9
REMARK VINA RESULT:      -6.9      4.512      7.108
REMARK  Name = 
REMARK  6 active torsions:
REMARK  status: ('A' for Active; 'I' for Inactive)
REMARK    1  A    between atoms: C_7  and  C_8
REMARK    2  A    between atoms: C_12  and  N_13
REMARK    3  A    between atoms: N_13  and  C_14
REMARK    4  A    between atoms: N_19  and  C_20
REMARK    5  A    between atoms: C_23  and  C_24
REMARK    6  A    between atoms: C_24  and  O_26
REMARK                            x       y       z     vdW  Elec       q    Type
REMARK                         _______ _______ _______ _____ _____    ______ ____
ROOT
ATOM      1  C   UNL     1       2.028  13.940  20.800  0.00  0.00    +0.000 A 
ATOM      2  C   UNL     1       1.653  14.871  21.786  0.00  0.00    +0.000 A 
ATOM      3  N   UNL     1       0.571  14.494  22.472  0.00  0.00    +0.000 NA
ATOM      4  N   UNL     1       0.257  13.267  21.959  0.00  0.00    +0.000 N 
ATOM      5  C   UNL     1      -0.800  12.413  22.356  0.00  0.00    +0.000 A 
ATOM      6  C   UNL     1      -0.933  11.236  21.716  0.00  0.00    +0.000 A 
ATOM      7  C   UNL     1       0.035  10.904  20.612  0.00  0.00    +0.000 A 
ATOM      8  N   UNL     1      -0.119   9.709  19.940  0.00  0.00    +0.000 N 
ATOM      9  N   UNL     1       0.991  11.728  20.256  0.00  0.00    +0.000 NA
ATOM     10  C   UNL     1       1.121  12.908  20.927  0.00  0.00    +0.000 A 
ATOM     11  H   UNL     1      -1.001   9.214  20.011  0.00  0.00    +0.000 HD
ENDROOT
BRANCH   1  18
ATOM     12  O   UNL     1       2.422  17.596  16.914  0.00  0.00    +0.000 OA
ATOM     13  C   UNL     1       2.955  16.665  17.494  0.00  0.00    +0.000 C 
ATOM     14  N   UNL     1       4.168  16.111  17.183  0.00  0.00    +0.000 N 
ATOM     15  C   UNL     1       4.438  15.028  17.976  0.00  0.00    +0.000 C 
ATOM     16  O   UNL     1       5.397  14.285  17.926  0.00  0.00    +0.000 OA
ATOM     17  C   UNL     1       3.275  14.941  18.909  0.00  0.00    +0.000 C 
ATOM     18  C   UNL     1       3.121  14.037  19.883  0.00  0.00    +0.000 C 
ATOM     19  N   UNL     1       2.440  15.964  18.562  0.00  0.00    +0.000 N 
ATOM     20  H   UNL     1       4.748  16.422  16.425  0.00  0.00    +0.000 HD
ATOM     21  H   UNL     1       1.510  16.095  18.947  0.00  0.00    +0.000 HD
ENDBRANCH   1  18
BRANCH   8  22
ATOM     22  C   UNL     1       0.903   8.938  19.345  0.00  0.00    +0.000 A 
ATOM     23  C   UNL     1       1.329   9.128  18.024  0.00  0.00    +0.000 A 
ATOM     24  C   UNL     1       2.367   8.360  17.487  0.00  0.00    +0.000 A 
ATOM     25  C   UNL     1       2.977   7.356  18.247  0.00  0.00    +0.000 A 
ATOM     26  C   UNL     1       2.539   7.120  19.552  0.00  0.00    +0.000 A 
ATOM     27  C   UNL     1       1.513   7.908  20.079  0.00  0.00    +0.000 A 
ATOM     28  F   UNL     1       1.119   7.682  21.343  0.00  0.00    +0.000 F 
BRANCH  25  29
ATOM     29  C   UNL     1       4.131   6.642  17.646  0.00  0.00    +0.000 C 
ATOM     30  O   UNL     1       4.108   5.447  17.403  0.00  0.00    +0.000 OA
BRANCH  29  31
ATOM     31  O   UNL     1       5.207   7.420  17.405  0.00  0.00    +0.000 OA
ATOM     32  H   UNL     1       6.052   6.947  17.294  0.00  0.00    +0.000 HD
ENDBRANCH  29  31
ENDBRANCH  25  29
ENDBRANCH   8  22
BRANCH   5  33
ATOM     33  N   UNL     1      -1.600  12.868  23.405  0.00  0.00    +0.000 N 
ATOM     34  H   UNL     1      -1.183  13.701  23.837  0.00  0.00    +0.000 HD
BRANCH  33  35
ATOM     35  C   UNL     1      -3.057  12.825  23.304  0.00  0.00    +0.000 C 
ATOM     36  C   UNL     1      -3.928  12.709  24.522  0.00  0.00    +0.000 C 
ATOM     37  C   UNL     1      -3.853  14.010  23.778  0.00  0.00    +0.000 C 
ENDBRANCH  33  35
ENDBRANCH   5  33
TORSDOF 6
ENDMDL
