MODEL 1
REMARK VINA RESULT:      -8.7      0.000      0.000
REMARK  Name = 
REMARK  3 active torsions:
REMARK  status: ('A' for Active; 'I' for Inactive)
REMARK    1  A    between atoms: C_1  and  C_2
REMARK    2  A    between atoms: C_3  and  C_4
REMARK    3  A    between atoms: N_9  and  C_10
REMARK                            x       y       z     vdW  Elec       q    Type
REMARK                         _______ _______ _______ _____ _____    ______ ____
ROOT
ATOM      1  C   UNL     1       0.671   8.494  21.287  0.00  0.00    +0.000 C 
ATOM      2  C   UNL     1       1.275   8.787  19.956  0.00  0.00    +0.000 A 
ATOM      3  C   UNL     1       1.341   9.967  19.217  0.00  0.00    +0.000 A 
ATOM      4  C   UNL     1       1.841   9.538  17.968  0.00  0.00    +0.000 A 
ATOM      5  N   UNL     1       2.242   8.272  17.967  0.00  0.00    +0.000 NA
ATOM      6  N   UNL     1       1.864   7.794  19.183  0.00  0.00    +0.000 N 
ATOM      7  C   UNL     1       2.070   6.422  19.477  0.00  0.00    +0.000 A 
ATOM      8  N   UNL     1       1.919   5.890  20.647  0.00  0.00    +0.000 NA
ATOM      9  N   UNL     1       2.050   4.544  20.634  0.00  0.00    +0.000 N 
ATOM     10  C   UNL     1       2.165   3.714  21.711  0.00  0.00    +0.000 A 
ATOM     11  C   UNL     1       2.161   2.410  21.252  0.00  0.00    +0.000 A 
ATOM     12  C   UNL     1       2.034   2.456  19.843  0.00  0.00    +0.000 A 
ATOM     13  C   UNL     1       2.048   3.784  19.497  0.00  0.00    +0.000 A 
ATOM     14  C   UNL     1       2.033   4.454  18.241  0.00  0.00    +0.000 A 
ATOM     15  O   UNL     1       1.664   3.954  17.184  0.00  0.00    +0.000 OA
ATOM     16  N   UNL     1       2.453   5.747  18.339  0.00  0.00    +0.000 N 
ATOM     17  H   UNL     1       3.467   5.751  18.315  0.00  0.00    +0.000 HD
ENDROOT
BRANCH   3  18
ATOM     18  C   UNL     1       0.880  11.303  19.642  0.00  0.00    +0.000 C 
ATOM     19  O   UNL     1       1.719  12.146  19.917  0.00  0.00    +0.000 OA
ATOM     20  N   UNL     1      -0.514  11.540  19.669  0.00  0.00    +0.000 N 
ATOM     21  C   UNL     1      -1.480  10.638  19.025  0.00  0.00    +0.000 C 
ATOM     22  C   UNL     1      -2.653  11.360  18.388  0.00  0.00    +0.000 C 
ATOM     23  N   UNL     1      -3.332  12.144  19.399  0.00  0.00    +0.000 N 
ATOM     24  C   UNL     1      -4.775  12.277  19.335  0.00  0.00    +0.000 C 
ATOM     25  C   UNL     1      -2.513  12.949  20.195  0.00  0.00    +0.000 A 
ATOM     26  C   UNL     1      -3.060  14.040  20.900  0.00  0.00    +0.000 A 
ATOM     27  C   UNL     1      -2.282  14.861  21.714  0.00  0.00    +0.000 A 
ATOM     28  C   UNL     1      -0.931  14.605  21.852  0.00  0.00    +0.000 A 
ATOM     29  C   UNL     1      -0.354  13.528  21.176  0.00  0.00    +0.000 A 
ATOM     30  C   UNL     1      -1.112  12.689  20.337  0.00  0.00    +0.000 A 
ENDBRANCH   3  18
TORSDOF 1
ENDMDL
MODEL 2
REMARK VINA RESULT:      -8.1      2.169      8.688
REMARK  Name = 
REMARK  3 active torsions:
REMARK  status: ('A' for Active; 'I' for Inactive)
REMARK    1  A    between atoms: C_1  and  C_2
REMARK    2  A    between atoms: C_3  and  C_4
REMARK    3  A    between atoms: N_9  and  C_10
REMARK                            x       y       z     vdW  Elec       q    Type
REMARK                         _______ _______ _______ _____ _____    ______ ____
ROOT
ATOM      1  C   UNL     1      -1.546   9.999  17.441  0.00  0.00    +0.000 C 
ATOM      2  C   UNL     1      -1.004  10.727  18.625  0.00  0.00    +0.000 A 
ATOM      3  C   UNL     1       0.248  10.685  19.234  0.00  0.00    +0.000 A 
ATOM      4  C   UNL     1       0.055  11.431  20.418  0.00  0.00    +0.000 A 
ATOM      5  N   UNL     1      -1.119  12.049  20.468  0.00  0.00    +0.000 NA
ATOM      6  N   UNL     1      -1.790  11.591  19.377  0.00  0.00    +0.000 N 
ATOM      7  C   UNL     1      -3.134  11.996  19.178  0.00  0.00    +0.000 A 
ATOM      8  N   UNL     1      -3.817  11.776  18.100  0.00  0.00    +0.000 NA
ATOM      9  N   UNL     1      -5.112  12.147  18.212  0.00  0.00    +0.000 N 
ATOM     10  C   UNL     1      -6.032  12.253  17.209  0.00  0.00    +0.000 A 
ATOM     11  C   UNL     1      -7.257  12.550  17.778  0.00  0.00    +0.000 A 
ATOM     12  C   UNL     1      -7.069  12.623  19.178  0.00  0.00    +0.000 A 
ATOM     13  C   UNL     1      -5.724  12.447  19.397  0.00  0.00    +0.000 A 
ATOM     14  C   UNL     1      -4.925  12.495  20.574  0.00  0.00    +0.000 A 
ATOM     15  O   UNL     1      -5.352  12.379  21.718  0.00  0.00    +0.000 OA
ATOM     16  N   UNL     1      -3.600  12.656  20.293  0.00  0.00    +0.000 N 
ATOM     17  H   UNL     1      -3.427  13.645  20.151  0.00  0.00    +0.000 HD
ENDROOT
BRANCH   3  18
ATOM     18  C   UNL     1       1.431   9.935  18.772  0.00  0.00    +0.000 C 
ATOM     19  O   UNL     1       2.234  10.504  18.050  0.00  0.00    +0.000 OA
ATOM     20  N   UNL     1       1.586   8.605  19.228  0.00  0.00    +0.000 N 
ATOM     21  C   UNL     1       0.802   8.058  20.346  0.00  0.00    +0.000 C 
ATOM     22  C   UNL     1       1.587   7.107  21.230  0.00  0.00    +0.000 C 
ATOM     23  N   UNL     1       2.092   6.016  20.422  0.00  0.00    +0.000 N 
ATOM     24  C   UNL     1       2.162   4.687  20.998  0.00  0.00    +0.000 C 
ATOM     25  C   UNL     1       2.740   6.385  19.241  0.00  0.00    +0.000 A 
ATOM     26  C   UNL     1       3.619   5.486  18.603  0.00  0.00    +0.000 A 
ATOM     27  C   UNL     1       4.278   5.809  17.418  0.00  0.00    +0.000 A 
ATOM     28  C   UNL     1       4.066   7.042  16.832  0.00  0.00    +0.000 A 
ATOM     29  C   UNL     1       3.196   7.957  17.430  0.00  0.00    +0.000 A 
ATOM     30  C   UNL     1       2.527   7.664  18.633  0.00  0.00    +0.000 A 
ENDBRANCH   3  18
TORSDOF 1
ENDMDL
MODEL 3
REMARK VINA RESULT:      -8.0      2.169      3.085
REMARK  Name = 
REMARK  3 active torsions:
REMARK  status: ('A' for Active; 'I' for Inactive)
REMARK    1  A    between atoms: C_1  and  C_2
REMARK    2  A    between atoms: C_3  and  C_4
REMARK    3  A    between atoms: N_9  and  C_10
REMARK                            x       y       z     vdW  Elec       q    Type
REMARK                         _______ _______ _______ _____ _____    ______ ____
ROOT
ATOM      1  C   UNL     1       0.677   8.637  21.342  0.00  0.00    +0.000 C 
ATOM      2  C   UNL     1       1.199   8.941  19.980  0.00  0.00    +0.000 A 
ATOM      3  C   UNL     1       1.199  10.121  19.238  0.00  0.00    +0.000 A 
ATOM      4  C   UNL     1       1.638   9.700  17.963  0.00  0.00    +0.000 A 
ATOM      5  N   UNL     1       2.065   8.443  17.940  0.00  0.00    +0.000 NA
ATOM      6  N   UNL     1       1.765   7.959  19.176  0.00  0.00    +0.000 N 
ATOM      7  C   UNL     1       2.017   6.593  19.458  0.00  0.00    +0.000 A 
ATOM      8  N   UNL     1       1.943   6.059  20.635  0.00  0.00    +0.000 NA
ATOM      9  N   UNL     1       2.101   4.716  20.615  0.00  0.00    +0.000 N 
ATOM     10  C   UNL     1       2.293   3.890  21.684  0.00  0.00    +0.000 A 
ATOM     11  C   UNL     1       2.291   2.586  21.227  0.00  0.00    +0.000 A 
ATOM     12  C   UNL     1       2.086   2.627  19.828  0.00  0.00    +0.000 A 
ATOM     13  C   UNL     1       2.052   3.955  19.481  0.00  0.00    +0.000 A 
ATOM     14  C   UNL     1       1.953   4.622  18.227  0.00  0.00    +0.000 A 
ATOM     15  O   UNL     1       1.536   4.112  17.192  0.00  0.00    +0.000 OA
ATOM     16  N   UNL     1       2.350   5.924  18.301  0.00  0.00    +0.000 N 
ATOM     17  H   UNL     1       3.361   5.949  18.221  0.00  0.00    +0.000 HD
ENDROOT
BRANCH   3  18
ATOM     18  C   UNL     1       0.734  11.447  19.687  0.00  0.00    +0.000 C 
ATOM     19  O   UNL     1      -0.097  11.499  20.579  0.00  0.00    +0.000 OA
ATOM     20  N   UNL     1       1.312  12.587  19.080  0.00  0.00    +0.000 N 
ATOM     21  C   UNL     1       2.531  12.512  18.262  0.00  0.00    +0.000 C 
ATOM     22  C   UNL     1       3.451  13.707  18.432  0.00  0.00    +0.000 C 
ATOM     23  N   UNL     1       2.725  14.915  18.099  0.00  0.00    +0.000 N 
ATOM     24  C   UNL     1       3.427  15.998  17.439  0.00  0.00    +0.000 C 
ATOM     25  C   UNL     1       1.470  15.053  18.696  0.00  0.00    +0.000 A 
ATOM     26  C   UNL     1       0.867  16.324  18.794  0.00  0.00    +0.000 A 
ATOM     27  C   UNL     1      -0.388  16.506  19.372  0.00  0.00    +0.000 A 
ATOM     28  C   UNL     1      -1.081  15.415  19.860  0.00  0.00    +0.000 A 
ATOM     29  C   UNL     1      -0.520  14.139  19.775  0.00  0.00    +0.000 A 
ATOM     30  C   UNL     1       0.751  13.926  19.208  0.00  0.00    +0.000 A 
ENDBRANCH   3  18
TORSDOF 1
ENDMDL
MODEL 4
REMARK VINA RESULT:      -8.0      1.268      1.479
REMARK  Name = 
REMARK  3 active torsions:
REMARK  status: ('A' for Active; 'I' for Inactive)
REMARK    1  A    between atoms: C_1  and  C_2
REMARK    2  A    between atoms: C_3  and  C_4
REMARK    3  A    between atoms: N_9  and  C_10
REMARK                            x       y       z     vdW  Elec       q    Type
REMARK                         _______ _______ _______ _____ _____    ______ ____
ROOT
ATOM      1  C   UNL     1       0.812   7.668  20.824  0.00  0.00    +0.000 C 
ATOM      2  C   UNL     1       1.481   8.254  19.628  0.00  0.00    +0.000 A 
ATOM      3  C   UNL     1       1.354   9.504  19.025  0.00  0.00    +0.000 A 
ATOM      4  C   UNL     1       2.084   9.359  17.824  0.00  0.00    +0.000 A 
ATOM      5  N   UNL     1       2.769   8.223  17.757  0.00  0.00    +0.000 NA
ATOM      6  N   UNL     1       2.374   7.522  18.855  0.00  0.00    +0.000 N 
ATOM      7  C   UNL     1       2.862   6.204  19.040  0.00  0.00    +0.000 A 
ATOM      8  N   UNL     1       2.704   5.506  20.119  0.00  0.00    +0.000 NA
ATOM      9  N   UNL     1       3.148   4.235  19.994  0.00  0.00    +0.000 N 
ATOM     10  C   UNL     1       3.328   3.320  20.990  0.00  0.00    +0.000 A 
ATOM     11  C   UNL     1       3.685   2.117  20.411  0.00  0.00    +0.000 A 
ATOM     12  C   UNL     1       3.717   2.313  19.010  0.00  0.00    +0.000 A 
ATOM     13  C   UNL     1       3.458   3.646  18.800  0.00  0.00    +0.000 A 
ATOM     14  C   UNL     1       3.434   4.450  17.626  0.00  0.00    +0.000 A 
ATOM     15  O   UNL     1       3.319   4.020  16.483  0.00  0.00    +0.000 OA
ATOM     16  N   UNL     1       3.524   5.781  17.909  0.00  0.00    +0.000 N 
ATOM     17  H   UNL     1       4.504   6.011  18.031  0.00  0.00    +0.000 HD
ENDROOT
BRANCH   3  18
ATOM     18  C   UNL     1       0.545  10.640  19.507  0.00  0.00    +0.000 C 
ATOM     19  O   UNL     1       1.062  11.435  20.275  0.00  0.00    +0.000 OA
ATOM     20  N   UNL     1      -0.776  10.762  19.017  0.00  0.00    +0.000 N 
ATOM     21  C   UNL     1      -1.260  10.000  17.856  0.00  0.00    +0.000 C 
ATOM     22  C   UNL     1      -2.215  10.781  16.973  0.00  0.00    +0.000 C 
ATOM     23  N   UNL     1      -3.347  11.214  17.766  0.00  0.00    +0.000 N 
ATOM     24  C   UNL     1      -4.661  11.256  17.154  0.00  0.00    +0.000 C 
ATOM     25  C   UNL     1      -3.037  11.831  18.981  0.00  0.00    +0.000 A 
ATOM     26  C   UNL     1      -3.988  12.650  19.623  0.00  0.00    +0.000 A 
ATOM     27  C   UNL     1      -3.724  13.276  20.841  0.00  0.00    +0.000 A 
ATOM     28  C   UNL     1      -2.501  13.088  21.455  0.00  0.00    +0.000 A 
ATOM     29  C   UNL     1      -1.537  12.277  20.854  0.00  0.00    +0.000 A 
ATOM     30  C   UNL     1      -1.769  11.644  19.618  0.00  0.00    +0.000 A 
ENDBRANCH   3  18
TORSDOF 1
ENDMDL
MODEL 5
REMARK VINA RESULT:      -7.9      2.286      3.276
REMARK  Name = 
REMARK  3 active torsions:
REMARK  status: ('A' for Active; 'I' for Inactive)
REMARK    1  A    between atoms: C_1  and  C_2
REMARK    2  A    between atoms: C_3  and  C_4
REMARK    3  A    between atoms: N_9  and  C_10
REMARK                            x       y       z     vdW  Elec       q    Type
REMARK                         _______ _______ _______ _____ _____    ______ ____
ROOT
ATOM      1  C   UNL     1       2.601   9.579  18.136  0.00  0.00    +0.000 C 
ATOM      2  C   UNL     1       2.051   8.669  19.180  0.00  0.00    +0.000 A 
ATOM      3  C   UNL     1       1.179   8.908  20.241  0.00  0.00    +0.000 A 
ATOM      4  C   UNL     1       1.226   7.702  20.975  0.00  0.00    +0.000 A 
ATOM      5  N   UNL     1       1.886   6.731  20.355  0.00  0.00    +0.000 NA
ATOM      6  N   UNL     1       2.427   7.333  19.260  0.00  0.00    +0.000 N 
ATOM      7  C   UNL     1       3.280   6.581  18.415  0.00  0.00    +0.000 A 
ATOM      8  N   UNL     1       3.710   6.981  17.260  0.00  0.00    +0.000 NA
ATOM      9  N   UNL     1       4.613   6.135  16.713  0.00  0.00    +0.000 N 
ATOM     10  C   UNL     1       5.087   6.147  15.434  0.00  0.00    +0.000 A 
ATOM     11  C   UNL     1       6.074   5.185  15.331  0.00  0.00    +0.000 A 
ATOM     12  C   UNL     1       6.203   4.572  16.600  0.00  0.00    +0.000 A 
ATOM     13  C   UNL     1       5.235   5.130  17.399  0.00  0.00    +0.000 A 
ATOM     14  C   UNL     1       4.821   4.871  18.736  0.00  0.00    +0.000 A 
ATOM     15  O   UNL     1       5.497   4.290  19.580  0.00  0.00    +0.000 OA
ATOM     16  N   UNL     1       3.581   5.371  19.000  0.00  0.00    +0.000 N 
ATOM     17  H   UNL     1       2.895   4.701  18.671  0.00  0.00    +0.000 HD
ENDROOT
BRANCH   3  18
ATOM     18  C   UNL     1       0.484  10.174  20.545  0.00  0.00    +0.000 C 
ATOM     19  O   UNL     1       0.975  10.919  21.378  0.00  0.00    +0.000 OA
ATOM     20  N   UNL     1      -0.695  10.467  19.821  0.00  0.00    +0.000 N 
ATOM     21  C   UNL     1      -1.079   9.731  18.607  0.00  0.00    +0.000 C 
ATOM     22  C   UNL     1      -1.730  10.603  17.550  0.00  0.00    +0.000 C 
ATOM     23  N   UNL     1      -2.903  11.237  18.115  0.00  0.00    +0.000 N 
ATOM     24  C   UNL     1      -4.066  11.445  17.273  0.00  0.00    +0.000 C 
ATOM     25  C   UNL     1      -2.721  11.858  19.353  0.00  0.00    +0.000 A 
ATOM     26  C   UNL     1      -3.630  12.840  19.796  0.00  0.00    +0.000 A 
ATOM     27  C   UNL     1      -3.492  13.477  21.028  0.00  0.00    +0.000 A 
ATOM     28  C   UNL     1      -2.441  13.139  21.858  0.00  0.00    +0.000 A 
ATOM     29  C   UNL     1      -1.523  12.165  21.458  0.00  0.00    +0.000 A 
ATOM     30  C   UNL     1      -1.629  11.515  20.214  0.00  0.00    +0.000 A 
ENDBRANCH   3  18
TORSDOF 1
ENDMDL
MODEL 6
REMARK VINA RESULT:      -6.8      7.240      9.098
REMARK  Name = 
REMARK  3 active torsions:
REMARK  status: ('A' for Active; 'I' for Inactive)
REMARK    1  A    between atoms: C_1  and  C_2
REMARK    2  A    between atoms: C_3  and  C_4
REMARK    3  A    between atoms: N_9  and  C_10
REMARK                            x       y       z     vdW  Elec       q    Type
REMARK                         _______ _______ _______ _____ _____    ______ ____
ROOT
ATOM      1  C   UNL     1       6.362  14.191  17.662  0.00  0.00    +0.000 C 
ATOM      2  C   UNL     1       6.407  15.037  18.887  0.00  0.00    +0.000 A 
ATOM      3  C   UNL     1       5.505  15.971  19.393  0.00  0.00    +0.000 A 
ATOM      4  C   UNL     1       6.222  16.574  20.449  0.00  0.00    +0.000 A 
ATOM      5  N   UNL     1       7.369  15.964  20.725  0.00  0.00    +0.000 NA
ATOM      6  N   UNL     1       7.504  15.034  19.741  0.00  0.00    +0.000 N 
ATOM      7  C   UNL     1       8.687  14.255  19.690  0.00  0.00    +0.000 A 
ATOM      8  N   UNL     1       8.859  13.228  18.921  0.00  0.00    +0.000 NA
ATOM      9  N   UNL     1      10.119  12.740  18.968  0.00  0.00    +0.000 N 
ATOM     10  C   UNL     1      10.568  11.556  18.458  0.00  0.00    +0.000 A 
ATOM     11  C   UNL     1      11.939  11.506  18.625  0.00  0.00    +0.000 A 
ATOM     12  C   UNL     1      12.333  12.708  19.258  0.00  0.00    +0.000 A 
ATOM     13  C   UNL     1      11.179  13.404  19.521  0.00  0.00    +0.000 A 
ATOM     14  C   UNL     1      10.924  14.628  20.203  0.00  0.00    +0.000 A 
ATOM     15  O   UNL     1      11.760  15.499  20.415  0.00  0.00    +0.000 OA
ATOM     16  N   UNL     1       9.618  14.750  20.576  0.00  0.00    +0.000 N 
ATOM     17  H   UNL     1       9.494  14.252  21.451  0.00  0.00    +0.000 HD
ENDROOT
BRANCH   3  18
ATOM     18  C   UNL     1       4.172  16.296  18.849  0.00  0.00    +0.000 C 
ATOM     19  O   UNL     1       4.100  17.096  17.929  0.00  0.00    +0.000 OA
ATOM     20  N   UNL     1       3.055  15.629  19.402  0.00  0.00    +0.000 N 
ATOM     21  C   UNL     1       3.191  14.443  20.261  0.00  0.00    +0.000 C 
ATOM     22  C   UNL     1       2.100  13.410  20.046  0.00  0.00    +0.000 C 
ATOM     23  N   UNL     1       0.811  14.026  20.283  0.00  0.00    +0.000 N 
ATOM     24  C   UNL     1      -0.242  13.240  20.896  0.00  0.00    +0.000 C 
ATOM     25  C   UNL     1       0.594  15.247  19.639  0.00  0.00    +0.000 A 
ATOM     26  C   UNL     1      -0.718  15.723  19.445  0.00  0.00    +0.000 A 
ATOM     27  C   UNL     1      -0.979  16.940  18.818  0.00  0.00    +0.000 A 
ATOM     28  C   UNL     1       0.071  17.721  18.376  0.00  0.00    +0.000 A 
ATOM     29  C   UNL     1       1.386  17.286  18.557  0.00  0.00    +0.000 A 
ATOM     30  C   UNL     1       1.680  16.056  19.175  0.00  0.00    +0.000 A 
ENDBRANCH   3  18
TORSDOF 1
ENDMDL
MODEL 7
REMARK VINA RESULT:      -6.7      1.973      2.757
REMARK  Name = 
REMARK  3 active torsions:
REMARK  status: ('A' for Active; 'I' for Inactive)
REMARK    1  A    between atoms: C_1  and  C_2
REMARK    2  A    between atoms: C_3  and  C_4
REMARK    3  A    between atoms: N_9  and  C_10
REMARK                            x       y       z     vdW  Elec       q    Type
REMARK                         _______ _______ _______ _____ _____    ______ ____
ROOT
ATOM      1  C   UNL     1       2.850   8.007  17.747  0.00  0.00    +0.000 C 
ATOM      2  C   UNL     1       1.972   8.167  18.942  0.00  0.00    +0.000 A 
ATOM      3  C   UNL     1       1.412   9.302  19.524  0.00  0.00    +0.000 A 
ATOM      4  C   UNL     1       0.875   8.812  20.735  0.00  0.00    +0.000 A 
ATOM      5  N   UNL     1       0.904   7.487  20.828  0.00  0.00    +0.000 NA
ATOM      6  N   UNL     1       1.611   7.086  19.737  0.00  0.00    +0.000 N 
ATOM      7  C   UNL     1       1.905   5.708  19.578  0.00  0.00    +0.000 A 
ATOM      8  N   UNL     1       2.410   5.182  18.508  0.00  0.00    +0.000 NA
ATOM      9  N   UNL     1       2.715   3.873  18.658  0.00  0.00    +0.000 N 
ATOM     10  C   UNL     1       3.051   2.985  17.678  0.00  0.00    +0.000 A 
ATOM     11  C   UNL     1       3.395   1.789  18.280  0.00  0.00    +0.000 A 
ATOM     12  C   UNL     1       3.265   1.965  19.678  0.00  0.00    +0.000 A 
ATOM     13  C   UNL     1       2.771   3.233  19.865  0.00  0.00    +0.000 A 
ATOM     14  C   UNL     1       2.363   3.948  21.026  0.00  0.00    +0.000 A 
ATOM     15  O   UNL     1       2.692   3.668  22.174  0.00  0.00    +0.000 OA
ATOM     16  N   UNL     1       1.575   5.018  20.723  0.00  0.00    +0.000 N 
ATOM     17  H   UNL     1       0.623   4.686  20.609  0.00  0.00    +0.000 HD
ENDROOT
BRANCH   3  18
ATOM     18  C   UNL     1       1.486  10.685  19.015  0.00  0.00    +0.000 C 
ATOM     19  O   UNL     1       2.345  10.954  18.191  0.00  0.00    +0.000 OA
ATOM     20  N   UNL     1       0.527  11.611  19.486  0.00  0.00    +0.000 N 
ATOM     21  C   UNL     1      -0.684  11.195  20.207  0.00  0.00    +0.000 C 
ATOM     22  C   UNL     1      -1.907  12.030  19.875  0.00  0.00    +0.000 C 
ATOM     23  N   UNL     1      -1.627  13.420  20.173  0.00  0.00    +0.000 N 
ATOM     24  C   UNL     1      -2.692  14.257  20.691  0.00  0.00    +0.000 C 
ATOM     25  C   UNL     1      -0.423  13.918  19.669  0.00  0.00    +0.000 A 
ATOM     26  C   UNL     1      -0.236  15.308  19.524  0.00  0.00    +0.000 A 
ATOM     27  C   UNL     1       0.952  15.849  19.036  0.00  0.00    +0.000 A 
ATOM     28  C   UNL     1       1.993  15.010  18.688  0.00  0.00    +0.000 A 
ATOM     29  C   UNL     1       1.848  13.628  18.825  0.00  0.00    +0.000 A 
ATOM     30  C   UNL     1       0.656  13.052  19.302  0.00  0.00    +0.000 A 
ENDBRANCH   3  18
TORSDOF 1
ENDMDL
MODEL 8
REMARK VINA RESULT:      -6.7      5.016      7.835
REMARK  Name = 
REMARK  3 active torsions:
REMARK  status: ('A' for Active; 'I' for Inactive)
REMARK    1  A    between atoms: C_1  and  C_2
REMARK    2  A    between atoms: C_3  and  C_4
REMARK    3  A    between atoms: N_9  and  C_10
REMARK                            x       y       z     vdW  Elec       q    Type
REMARK                         _______ _______ _______ _____ _____    ______ ____
ROOT
ATOM      1  C   UNL     1      -0.201  14.305  18.624  0.00  0.00    +0.000 C 
ATOM      2  C   UNL     1       0.092  13.149  19.518  0.00  0.00    +0.000 A 
ATOM      3  C   UNL     1      -0.671  12.032  19.855  0.00  0.00    +0.000 A 
ATOM      4  C   UNL     1       0.073  11.436  20.897  0.00  0.00    +0.000 A 
ATOM      5  N   UNL     1       1.270  11.985  21.073  0.00  0.00    +0.000 NA
ATOM      6  N   UNL     1       1.273  13.065  20.245  0.00  0.00    +0.000 N 
ATOM      7  C   UNL     1       2.393  13.934  20.256  0.00  0.00    +0.000 A 
ATOM      8  N   UNL     1       2.594  14.885  19.399  0.00  0.00    +0.000 NA
ATOM      9  N   UNL     1       3.666  15.650  19.705  0.00  0.00    +0.000 N 
ATOM     10  C   UNL     1       4.272  16.580  18.911  0.00  0.00    +0.000 A 
ATOM     11  C   UNL     1       5.253  17.208  19.654  0.00  0.00    +0.000 A 
ATOM     12  C   UNL     1       5.236  16.638  20.949  0.00  0.00    +0.000 A 
ATOM     13  C   UNL     1       4.301  15.632  20.916  0.00  0.00    +0.000 A 
ATOM     14  C   UNL     1       3.894  14.662  21.875  0.00  0.00    +0.000 A 
ATOM     15  O   UNL     1       4.084  14.748  23.084  0.00  0.00    +0.000 OA
ATOM     16  N   UNL     1       3.228  13.618  21.304  0.00  0.00    +0.000 N 
ATOM     17  H   UNL     1       3.917  12.962  20.951  0.00  0.00    +0.000 HD
ENDROOT
BRANCH   3  18
ATOM     18  C   UNL     1      -1.989  11.664  19.305  0.00  0.00    +0.000 C 
ATOM     19  O   UNL     1      -2.032  10.846  18.400  0.00  0.00    +0.000 OA
ATOM     20  N   UNL     1      -3.134  12.255  19.888  0.00  0.00    +0.000 N 
ATOM     21  C   UNL     1      -3.085  12.966  21.174  0.00  0.00    +0.000 C 
ATOM     22  C   UNL     1      -4.320  12.757  22.031  0.00  0.00    +0.000 C 
ATOM     23  N   UNL     1      -5.489  13.187  21.291  0.00  0.00    +0.000 N 
ATOM     24  C   UNL     1      -6.581  13.819  22.006  0.00  0.00    +0.000 C 
ATOM     25  C   UNL     1      -5.593  12.700  19.986  0.00  0.00    +0.000 A 
ATOM     26  C   UNL     1      -6.841  12.692  19.330  0.00  0.00    +0.000 A 
ATOM     27  C   UNL     1      -6.989  12.225  18.025  0.00  0.00    +0.000 A 
ATOM     28  C   UNL     1      -5.885  11.763  17.335  0.00  0.00    +0.000 A 
ATOM     29  C   UNL     1      -4.631  11.763  17.948  0.00  0.00    +0.000 A 
ATOM     30  C   UNL     1      -4.453  12.215  19.269  0.00  0.00    +0.000 A 
ENDBRANCH   3  18
TORSDOF 1
ENDMDL
MODEL 9
REMARK VINA RESULT:      -6.7      2.274      3.140
REMARK  Name = 
REMARK  3 active torsions:
REMARK  status: ('A' for Active; 'I' for Inactive)
REMARK    1  A    between atoms: C_1  and  C_2
REMARK    2  A    between atoms: C_3  and  C_4
REMARK    3  A    between atoms: N_9  and  C_10
REMARK                            x       y       z     vdW  Elec       q    Type
REMARK                         _______ _______ _______ _____ _____    ______ ____
ROOT
ATOM      1  C   UNL     1       2.683   8.051  18.187  0.00  0.00    +0.000 C 
ATOM      2  C   UNL     1       1.821   8.032  19.403  0.00  0.00    +0.000 A 
ATOM      3  C   UNL     1       1.230   9.067  20.126  0.00  0.00    +0.000 A 
ATOM      4  C   UNL     1       0.732   8.414  21.275  0.00  0.00    +0.000 A 
ATOM      5  N   UNL     1       0.810   7.090  21.206  0.00  0.00    +0.000 NA
ATOM      6  N   UNL     1       1.513   6.851  20.066  0.00  0.00    +0.000 N 
ATOM      7  C   UNL     1       1.853   5.514  19.737  0.00  0.00    +0.000 A 
ATOM      8  N   UNL     1       2.358   5.141  18.605  0.00  0.00    +0.000 NA
ATOM      9  N   UNL     1       2.712   3.836  18.592  0.00  0.00    +0.000 N 
ATOM     10  C   UNL     1       3.064   3.085  17.507  0.00  0.00    +0.000 A 
ATOM     11  C   UNL     1       3.461   1.840  17.955  0.00  0.00    +0.000 A 
ATOM     12  C   UNL     1       3.348   1.840  19.366  0.00  0.00    +0.000 A 
ATOM     13  C   UNL     1       2.812   3.056  19.711  0.00  0.00    +0.000 A 
ATOM     14  C   UNL     1       2.398   3.610  20.955  0.00  0.00    +0.000 A 
ATOM     15  O   UNL     1       2.756   3.207  22.057  0.00  0.00    +0.000 OA
ATOM     16  N   UNL     1       1.567   4.679  20.794  0.00  0.00    +0.000 N 
ATOM     17  H   UNL     1       0.626   4.327  20.653  0.00  0.00    +0.000 HD
ENDROOT
BRANCH   3  18
ATOM     18  C   UNL     1       1.246  10.503  19.787  0.00  0.00    +0.000 C 
ATOM     19  O   UNL     1       1.669  10.836  18.692  0.00  0.00    +0.000 OA
ATOM     20  N   UNL     1       0.730  11.410  20.742  0.00  0.00    +0.000 N 
ATOM     21  C   UNL     1      -0.070  10.971  21.895  0.00  0.00    +0.000 C 
ATOM     22  C   UNL     1      -1.191  11.928  22.255  0.00  0.00    +0.000 C 
ATOM     23  N   UNL     1      -0.630  13.234  22.532  0.00  0.00    +0.000 N 
ATOM     24  C   UNL     1      -1.230  14.052  23.569  0.00  0.00    +0.000 C 
ATOM     25  C   UNL     1       0.272  13.721  21.583  0.00  0.00    +0.000 A 
ATOM     26  C   UNL     1       0.553  15.100  21.514  0.00  0.00    +0.000 A 
ATOM     27  C   UNL     1       1.453  15.628  20.590  0.00  0.00    +0.000 A 
ATOM     28  C   UNL     1       2.108  14.783  19.715  0.00  0.00    +0.000 A 
ATOM     29  C   UNL     1       1.862  13.409  19.758  0.00  0.00    +0.000 A 
ATOM     30  C   UNL     1       0.949  12.849  20.670  0.00  0.00    +0.000 A 
ENDBRANCH   3  18
TORSDOF 1
ENDMDL
