MODEL 1
REMARK VINA RESULT:      -6.4      0.000      0.000
REMARK  Name = 
REMARK  6 active torsions:
REMARK  status: ('A' for Active; 'I' for Inactive)
REMARK    1  A    between atoms: C_2  and  C_3
REMARK    2  A    between atoms: C_3  and  O_4
REMARK    3  A    between atoms: O_4  and  C_5
REMARK    4  A    between atoms: C_5  and  C_6
REMARK    5  A    between atoms: C_6  and  N_7
REMARK    6  A    between atoms: N_12  and  C_13
REMARK                            x       y       z     vdW  Elec       q    Type
REMARK                         _______ _______ _______ _____ _____    ______ ____
ROOT
ATOM      1  N   UNL     1       5.963   5.302  15.905  0.00  0.00    +0.000 N 
ATOM      2  C   UNL     1       4.927   4.402  16.097  0.00  0.00    +0.000 A 
ATOM      3  N   UNL     1       4.240   4.395  17.266  0.00  0.00    +0.000 N 
ATOM      4  C   UNL     1       2.828   3.975  17.280  0.00  0.00    +0.000 C 
ATOM      5  C   UNL     1       2.167   4.601  18.542  0.00  0.00    +0.000 C 
ATOM      6  N   UNL     1       2.834   4.165  19.796  0.00  0.00    +0.000 NA
ATOM      7  C   UNL     1       2.227   4.809  20.957  0.00  0.00    +0.000 C 
ATOM      8  C   UNL     1       4.282   4.467  19.719  0.00  0.00    +0.000 C 
ATOM      9  C   UNL     1       4.949   3.878  18.454  0.00  0.00    +0.000 C 
ATOM     10  N   UNL     1       4.753   3.658  15.026  0.00  0.00    +0.000 NA
ATOM     11  C   UNL     1       5.746   4.035  14.144  0.00  0.00    +0.000 A 
ATOM     12  C   UNL     1       6.049   3.575  12.853  0.00  0.00    +0.000 A 
ATOM     13  C   UNL     1       7.123   4.147  12.144  0.00  0.00    +0.000 A 
ATOM     14  C   UNL     1       7.929   5.118  12.726  0.00  0.00    +0.000 A 
ATOM     15  C   UNL     1       7.670   5.538  14.011  0.00  0.00    +0.000 A 
ATOM     16  C   UNL     1       6.549   5.027  14.694  0.00  0.00    +0.000 A 
ENDROOT
BRANCH   1  17
ATOM     17  C   UNL     1       6.343   6.371  16.815  0.00  0.00    +0.000 C 
BRANCH  17  18
ATOM     18  C   UNL     1       7.620   6.092  17.607  0.00  0.00    +0.000 C 
BRANCH  18  19
ATOM     19  O   UNL     1       7.956   7.161  18.493  0.00  0.00    +0.000 OA
BRANCH  19  20
ATOM     20  C   UNL     1       8.034   8.373  17.766  0.00  0.00    +0.000 C 
BRANCH  20  22
ATOM     21  C   UNL     1       9.077  10.577  18.122  0.00  0.00    +0.000 C 
ATOM     22  C   UNL     1       8.639   9.436  18.613  0.00  0.00    +0.000 C 
ENDBRANCH  20  22
ENDBRANCH  19  20
ENDBRANCH  18  19
ENDBRANCH  17  18
ENDBRANCH   1  17
TORSDOF 5
ENDMDL
MODEL 2
REMARK VINA RESULT:      -6.4      3.008      6.236
REMARK  Name = 
REMARK  6 active torsions:
REMARK  status: ('A' for Active; 'I' for Inactive)
REMARK    1  A    between atoms: C_2  and  C_3
REMARK    2  A    between atoms: C_3  and  O_4
REMARK    3  A    between atoms: O_4  and  C_5
REMARK    4  A    between atoms: C_5  and  C_6
REMARK    5  A    between atoms: C_6  and  N_7
REMARK    6  A    between atoms: N_12  and  C_13
REMARK                            x       y       z     vdW  Elec       q    Type
REMARK                         _______ _______ _______ _____ _____    ______ ____
ROOT
ATOM      1  N   UNL     1       3.494   5.240  18.740  0.00  0.00    +0.000 N 
ATOM      2  C   UNL     1       4.757   4.874  18.305  0.00  0.00    +0.000 A 
ATOM      3  N   UNL     1       5.715   5.816  18.129  0.00  0.00    +0.000 N 
ATOM      4  C   UNL     1       7.134   5.458  18.310  0.00  0.00    +0.000 C 
ATOM      5  C   UNL     1       7.910   6.769  18.625  0.00  0.00    +0.000 C 
ATOM      6  N   UNL     1       7.779   7.771  17.535  0.00  0.00    +0.000 NA
ATOM      7  C   UNL     1       8.472   9.008  17.882  0.00  0.00    +0.000 C 
ATOM      8  C   UNL     1       6.345   8.025  17.264  0.00  0.00    +0.000 C 
ATOM      9  C   UNL     1       5.552   6.729  16.979  0.00  0.00    +0.000 C 
ATOM     10  N   UNL     1       4.832   3.571  18.140  0.00  0.00    +0.000 NA
ATOM     11  C   UNL     1       3.566   3.087  18.405  0.00  0.00    +0.000 A 
ATOM     12  C   UNL     1       3.061   1.778  18.378  0.00  0.00    +0.000 A 
ATOM     13  C   UNL     1       1.713   1.545  18.714  0.00  0.00    +0.000 A 
ATOM     14  C   UNL     1       0.856   2.598  19.010  0.00  0.00    +0.000 A 
ATOM     15  C   UNL     1       1.332   3.890  18.988  0.00  0.00    +0.000 A 
ATOM     16  C   UNL     1       2.698   4.121  18.733  0.00  0.00    +0.000 A 
ENDROOT
BRANCH   1  17
ATOM     17  C   UNL     1       3.090   6.573  19.160  0.00  0.00    +0.000 C 
BRANCH  17  18
ATOM     18  C   UNL     1       2.304   7.349  18.105  0.00  0.00    +0.000 C 
BRANCH  18  19
ATOM     19  O   UNL     1       2.587   8.749  18.135  0.00  0.00    +0.000 OA
BRANCH  19  20
ATOM     20  C   UNL     1       1.389   9.479  17.939  0.00  0.00    +0.000 C 
BRANCH  20  22
ATOM     21  C   UNL     1      -0.482  10.209  19.367  0.00  0.00    +0.000 C 
ATOM     22  C   UNL     1       0.760   9.783  19.252  0.00  0.00    +0.000 C 
ENDBRANCH  20  22
ENDBRANCH  19  20
ENDBRANCH  18  19
ENDBRANCH  17  18
ENDBRANCH   1  17
TORSDOF 5
ENDMDL
MODEL 3
REMARK VINA RESULT:      -6.3      3.208      5.874
REMARK  Name = 
REMARK  6 active torsions:
REMARK  status: ('A' for Active; 'I' for Inactive)
REMARK    1  A    between atoms: C_2  and  C_3
REMARK    2  A    between atoms: C_3  and  O_4
REMARK    3  A    between atoms: O_4  and  C_5
REMARK    4  A    between atoms: C_5  and  C_6
REMARK    5  A    between atoms: C_6  and  N_7
REMARK    6  A    between atoms: N_12  and  C_13
REMARK                            x       y       z     vdW  Elec       q    Type
REMARK                         _______ _______ _______ _____ _____    ______ ____
ROOT
ATOM      1  N   UNL     1       2.609   7.324  18.323  0.00  0.00    +0.000 N 
ATOM      2  C   UNL     1       2.227   6.423  19.303  0.00  0.00    +0.000 A 
ATOM      3  N   UNL     1       2.548   5.111  19.183  0.00  0.00    +0.000 N 
ATOM      4  C   UNL     1       2.752   4.295  20.393  0.00  0.00    +0.000 C 
ATOM      5  C   UNL     1       3.640   3.082  19.994  0.00  0.00    +0.000 C 
ATOM      6  N   UNL     1       3.013   2.256  18.930  0.00  0.00    +0.000 NA
ATOM      7  C   UNL     1       3.892   1.158  18.540  0.00  0.00    +0.000 C 
ATOM      8  C   UNL     1       2.685   3.112  17.766  0.00  0.00    +0.000 C 
ATOM      9  C   UNL     1       1.827   4.340  18.150  0.00  0.00    +0.000 C 
ATOM     10  N   UNL     1       1.584   7.036  20.273  0.00  0.00    +0.000 NA
ATOM     11  C   UNL     1       1.484   8.356  19.880  0.00  0.00    +0.000 A 
ATOM     12  C   UNL     1       0.893   9.459  20.515  0.00  0.00    +0.000 A 
ATOM     13  C   UNL     1       0.943  10.725  19.899  0.00  0.00    +0.000 A 
ATOM     14  C   UNL     1       1.512  10.889  18.643  0.00  0.00    +0.000 A 
ATOM     15  C   UNL     1       2.048   9.801  17.991  0.00  0.00    +0.000 A 
ATOM     16  C   UNL     1       2.073   8.549  18.637  0.00  0.00    +0.000 A 
ENDROOT
BRANCH   1  17
ATOM     17  C   UNL     1       3.456   7.031  17.178  0.00  0.00    +0.000 C 
BRANCH  17  18
ATOM     18  C   UNL     1       4.921   6.780  17.533  0.00  0.00    +0.000 C 
BRANCH  18  19
ATOM     19  O   UNL     1       5.773   6.810  16.386  0.00  0.00    +0.000 OA
BRANCH  19  20
ATOM     20  C   UNL     1       7.068   6.364  16.747  0.00  0.00    +0.000 C 
BRANCH  20  22
ATOM     21  C   UNL     1       8.062   8.387  17.744  0.00  0.00    +0.000 C 
ATOM     22  C   UNL     1       7.582   7.168  17.888  0.00  0.00    +0.000 C 
ENDBRANCH  20  22
ENDBRANCH  19  20
ENDBRANCH  18  19
ENDBRANCH  17  18
ENDBRANCH   1  17
TORSDOF 5
ENDMDL
MODEL 4
REMARK VINA RESULT:      -6.3      6.003      8.432
REMARK  Name = 
REMARK  6 active torsions:
REMARK  status: ('A' for Active; 'I' for Inactive)
REMARK    1  A    between atoms: C_2  and  C_3
REMARK    2  A    between atoms: C_3  and  O_4
REMARK    3  A    between atoms: O_4  and  C_5
REMARK    4  A    between atoms: C_5  and  C_6
REMARK    5  A    between atoms: C_6  and  N_7
REMARK    6  A    between atoms: N_12  and  C_13
REMARK                            x       y       z     vdW  Elec       q    Type
REMARK                         _______ _______ _______ _____ _____    ______ ____
ROOT
ATOM      1  N   UNL     1       1.368   8.109  20.153  0.00  0.00    +0.000 N 
ATOM      2  C   UNL     1       1.695   8.911  19.072  0.00  0.00    +0.000 A 
ATOM      3  N   UNL     1       1.182  10.163  18.975  0.00  0.00    +0.000 N 
ATOM      4  C   UNL     1       1.948  11.213  18.280  0.00  0.00    +0.000 C 
ATOM      5  C   UNL     1       1.445  12.586  18.811  0.00  0.00    +0.000 C 
ATOM      6  N   UNL     1      -0.008  12.780  18.569  0.00  0.00    +0.000 NA
ATOM      7  C   UNL     1      -0.462  14.051  19.125  0.00  0.00    +0.000 C 
ATOM      8  C   UNL     1      -0.764  11.647  19.154  0.00  0.00    +0.000 C 
ATOM      9  C   UNL     1      -0.256  10.273  18.660  0.00  0.00    +0.000 C 
ATOM     10  N   UNL     1       2.526   8.288  18.266  0.00  0.00    +0.000 NA
ATOM     11  C   UNL     1       2.688   7.025  18.799  0.00  0.00    +0.000 A 
ATOM     12  C   UNL     1       3.453   5.934  18.356  0.00  0.00    +0.000 A 
ATOM     13  C   UNL     1       3.460   4.741  19.104  0.00  0.00    +0.000 A 
ATOM     14  C   UNL     1       2.673   4.602  20.240  0.00  0.00    +0.000 A 
ATOM     15  C   UNL     1       1.880   5.650  20.652  0.00  0.00    +0.000 A 
ATOM     16  C   UNL     1       1.931   6.872  19.954  0.00  0.00    +0.000 A 
ENDROOT
BRANCH   1  17
ATOM     17  C   UNL     1       0.591   8.516  21.314  0.00  0.00    +0.000 C 
BRANCH  17  18
ATOM     18  C   UNL     1       1.419   9.151  22.429  0.00  0.00    +0.000 C 
BRANCH  18  19
ATOM     19  O   UNL     1       0.617   9.888  23.353  0.00  0.00    +0.000 OA
BRANCH  19  20
ATOM     20  C   UNL     1      -0.681  10.067  22.815  0.00  0.00    +0.000 C 
BRANCH  20  22
ATOM     21  C   UNL     1      -2.325  11.875  23.138  0.00  0.00    +0.000 C 
ATOM     22  C   UNL     1      -1.082  11.495  22.920  0.00  0.00    +0.000 C 
ENDBRANCH  20  22
ENDBRANCH  19  20
ENDBRANCH  18  19
ENDBRANCH  17  18
ENDBRANCH   1  17
TORSDOF 5
ENDMDL
MODEL 5
REMARK VINA RESULT:      -6.3      1.540      5.620
REMARK  Name = 
REMARK  6 active torsions:
REMARK  status: ('A' for Active; 'I' for Inactive)
REMARK    1  A    between atoms: C_2  and  C_3
REMARK    2  A    between atoms: C_3  and  O_4
REMARK    3  A    between atoms: O_4  and  C_5
REMARK    4  A    between atoms: C_5  and  C_6
REMARK    5  A    between atoms: C_6  and  N_7
REMARK    6  A    between atoms: N_12  and  C_13
REMARK                            x       y       z     vdW  Elec       q    Type
REMARK                         _______ _______ _______ _____ _____    ______ ____
ROOT
ATOM      1  N   UNL     1       4.221   3.814  18.365  0.00  0.00    +0.000 N 
ATOM      2  C   UNL     1       3.865   3.866  17.027  0.00  0.00    +0.000 A 
ATOM      3  N   UNL     1       4.780   4.226  16.094  0.00  0.00    +0.000 N 
ATOM      4  C   UNL     1       4.673   3.695  14.724  0.00  0.00    +0.000 C 
ATOM      5  C   UNL     1       6.087   3.777  14.080  0.00  0.00    +0.000 C 
ATOM      6  N   UNL     1       6.602   5.170  14.040  0.00  0.00    +0.000 NA
ATOM      7  C   UNL     1       7.950   5.209  13.481  0.00  0.00    +0.000 C 
ATOM      8  C   UNL     1       6.578   5.747  15.405  0.00  0.00    +0.000 C 
ATOM      9  C   UNL     1       5.187   5.645  16.072  0.00  0.00    +0.000 C 
ATOM     10  N   UNL     1       2.608   3.511  16.866  0.00  0.00    +0.000 NA
ATOM     11  C   UNL     1       2.115   3.293  18.138  0.00  0.00    +0.000 A 
ATOM     12  C   UNL     1       0.839   2.905  18.572  0.00  0.00    +0.000 A 
ATOM     13  C   UNL     1       0.595   2.731  19.948  0.00  0.00    +0.000 A 
ATOM     14  C   UNL     1       1.580   2.998  20.890  0.00  0.00    +0.000 A 
ATOM     15  C   UNL     1       2.821   3.429  20.475  0.00  0.00    +0.000 A 
ATOM     16  C   UNL     1       3.094   3.527  19.096  0.00  0.00    +0.000 A 
ENDROOT
BRANCH   1  17
ATOM     17  C   UNL     1       5.561   4.000  18.900  0.00  0.00    +0.000 C 
BRANCH  17  18
ATOM     18  C   UNL     1       5.813   5.388  19.484  0.00  0.00    +0.000 C 
BRANCH  18  19
ATOM     19  O   UNL     1       7.166   5.566  19.906  0.00  0.00    +0.000 OA
BRANCH  19  20
ATOM     20  C   UNL     1       7.981   5.834  18.780  0.00  0.00    +0.000 C 
BRANCH  20  22
ATOM     21  C   UNL     1       7.764   8.019  17.660  0.00  0.00    +0.000 C 
ATOM     22  C   UNL     1       8.220   7.298  18.664  0.00  0.00    +0.000 C 
ENDBRANCH  20  22
ENDBRANCH  19  20
ENDBRANCH  18  19
ENDBRANCH  17  18
ENDBRANCH   1  17
TORSDOF 5
ENDMDL
MODEL 6
REMARK VINA RESULT:      -6.2      3.185      6.408
REMARK  Name = 
REMARK  6 active torsions:
REMARK  status: ('A' for Active; 'I' for Inactive)
REMARK    1  A    between atoms: C_2  and  C_3
REMARK    2  A    between atoms: C_3  and  O_4
REMARK    3  A    between atoms: O_4  and  C_5
REMARK    4  A    between atoms: C_5  and  C_6
REMARK    5  A    between atoms: C_6  and  N_7
REMARK    6  A    between atoms: N_12  and  C_13
REMARK                            x       y       z     vdW  Elec       q    Type
REMARK                         _______ _______ _______ _____ _____    ______ ____
ROOT
ATOM      1  N   UNL     1       3.463   5.253  18.978  0.00  0.00    +0.000 N 
ATOM      2  C   UNL     1       4.634   4.900  18.327  0.00  0.00    +0.000 A 
ATOM      3  N   UNL     1       5.606   5.823  18.130  0.00  0.00    +0.000 N 
ATOM      4  C   UNL     1       7.015   5.396  18.064  0.00  0.00    +0.000 C 
ATOM      5  C   UNL     1       7.894   6.630  18.418  0.00  0.00    +0.000 C 
ATOM      6  N   UNL     1       7.667   7.764  17.484  0.00  0.00    +0.000 NA
ATOM      7  C   UNL     1       8.465   8.924  17.873  0.00  0.00    +0.000 C 
ATOM      8  C   UNL     1       6.225   8.099  17.452  0.00  0.00    +0.000 C 
ATOM      9  C   UNL     1       5.334   6.877  17.132  0.00  0.00    +0.000 C 
ATOM     10  N   UNL     1       4.618   3.626  18.000  0.00  0.00    +0.000 NA
ATOM     11  C   UNL     1       3.377   3.156  18.384  0.00  0.00    +0.000 A 
ATOM     12  C   UNL     1       2.806   1.879  18.274  0.00  0.00    +0.000 A 
ATOM     13  C   UNL     1       1.506   1.654  18.768  0.00  0.00    +0.000 A 
ATOM     14  C   UNL     1       0.754   2.690  19.306  0.00  0.00    +0.000 A 
ATOM     15  C   UNL     1       1.288   3.958  19.370  0.00  0.00    +0.000 A 
ATOM     16  C   UNL     1       2.616   4.172  18.952  0.00  0.00    +0.000 A 
ENDROOT
BRANCH   1  17
ATOM     17  C   UNL     1       3.190   6.536  19.608  0.00  0.00    +0.000 C 
BRANCH  17  18
ATOM     18  C   UNL     1       2.292   7.457  18.783  0.00  0.00    +0.000 C 
BRANCH  18  19
ATOM     19  O   UNL     1       1.564   8.379  19.595  0.00  0.00    +0.000 OA
BRANCH  19  20
ATOM     20  C   UNL     1       1.370   7.825  20.884  0.00  0.00    +0.000 C 
BRANCH  20  22
ATOM     21  C   UNL     1      -0.001   9.259  22.346  0.00  0.00    +0.000 C 
ATOM     22  C   UNL     1       1.183   8.912  21.881  0.00  0.00    +0.000 C 
ENDBRANCH  20  22
ENDBRANCH  19  20
ENDBRANCH  18  19
ENDBRANCH  17  18
ENDBRANCH   1  17
TORSDOF 5
ENDMDL
MODEL 7
REMARK VINA RESULT:      -6.2      7.657     10.106
REMARK  Name = 
REMARK  6 active torsions:
REMARK  status: ('A' for Active; 'I' for Inactive)
REMARK    1  A    between atoms: C_2  and  C_3
REMARK    2  A    between atoms: C_3  and  O_4
REMARK    3  A    between atoms: O_4  and  C_5
REMARK    4  A    between atoms: C_5  and  C_6
REMARK    5  A    between atoms: C_6  and  N_7
REMARK    6  A    between atoms: N_12  and  C_13
REMARK                            x       y       z     vdW  Elec       q    Type
REMARK                         _______ _______ _______ _____ _____    ______ ____
ROOT
ATOM      1  N   UNL     1       0.069  10.696  19.633  0.00  0.00    +0.000 N 
ATOM      2  C   UNL     1      -0.020  10.562  21.009  0.00  0.00    +0.000 A 
ATOM      3  N   UNL     1      -0.705  11.478  21.738  0.00  0.00    +0.000 N 
ATOM      4  C   UNL     1      -1.355  11.070  22.996  0.00  0.00    +0.000 C 
ATOM      5  C   UNL     1      -2.492  12.092  23.286  0.00  0.00    +0.000 C 
ATOM      6  N   UNL     1      -1.977  13.480  23.412  0.00  0.00    +0.000 NA
ATOM      7  C   UNL     1      -3.071  14.422  23.630  0.00  0.00    +0.000 C 
ATOM      8  C   UNL     1      -1.206  13.836  22.198  0.00  0.00    +0.000 C 
ATOM      9  C   UNL     1      -0.091  12.813  21.878  0.00  0.00    +0.000 C 
ATOM     10  N   UNL     1       0.603   9.476  21.412  0.00  0.00    +0.000 NA
ATOM     11  C   UNL     1       1.172   8.929  20.278  0.00  0.00    +0.000 A 
ATOM     12  C   UNL     1       1.956   7.778  20.111  0.00  0.00    +0.000 A 
ATOM     13  C   UNL     1       2.406   7.424  18.824  0.00  0.00    +0.000 A 
ATOM     14  C   UNL     1       2.140   8.231  17.724  0.00  0.00    +0.000 A 
ATOM     15  C   UNL     1       1.415   9.390  17.890  0.00  0.00    +0.000 A 
ATOM     16  C   UNL     1       0.894   9.706  19.160  0.00  0.00    +0.000 A 
ENDROOT
BRANCH   1  17
ATOM     17  C   UNL     1      -0.617  11.694  18.827  0.00  0.00    +0.000 C 
BRANCH  17  18
ATOM     18  C   UNL     1      -2.129  11.491  18.736  0.00  0.00    +0.000 C 
BRANCH  18  19
ATOM     19  O   UNL     1      -2.570  11.268  17.396  0.00  0.00    +0.000 OA
BRANCH  19  20
ATOM     20  C   UNL     1      -2.189   9.968  16.982  0.00  0.00    +0.000 C 
BRANCH  20  22
ATOM     21  C   UNL     1      -3.335  10.603  14.895  0.00  0.00    +0.000 C 
ATOM     22  C   UNL     1      -2.730   9.689  15.625  0.00  0.00    +0.000 C 
ENDBRANCH  20  22
ENDBRANCH  19  20
ENDBRANCH  18  19
ENDBRANCH  17  18
ENDBRANCH   1  17
TORSDOF 5
ENDMDL
MODEL 8
REMARK VINA RESULT:      -6.1      2.623      6.601
REMARK  Name = 
REMARK  6 active torsions:
REMARK  status: ('A' for Active; 'I' for Inactive)
REMARK    1  A    between atoms: C_2  and  C_3
REMARK    2  A    between atoms: C_3  and  O_4
REMARK    3  A    between atoms: O_4  and  C_5
REMARK    4  A    between atoms: C_5  and  C_6
REMARK    5  A    between atoms: C_6  and  N_7
REMARK    6  A    between atoms: N_12  and  C_13
REMARK                            x       y       z     vdW  Elec       q    Type
REMARK                         _______ _______ _______ _____ _____    ______ ____
ROOT
ATOM      1  N   UNL     1       3.377   4.573  18.374  0.00  0.00    +0.000 N 
ATOM      2  C   UNL     1       4.617   3.967  18.247  0.00  0.00    +0.000 A 
ATOM      3  N   UNL     1       5.425   4.284  17.206  0.00  0.00    +0.000 N 
ATOM      4  C   UNL     1       6.887   4.200  17.365  0.00  0.00    +0.000 C 
ATOM      5  C   UNL     1       7.527   5.133  16.297  0.00  0.00    +0.000 C 
ATOM      6  N   UNL     1       7.149   4.741  14.914  0.00  0.00    +0.000 NA
ATOM      7  C   UNL     1       7.719   5.665  13.938  0.00  0.00    +0.000 C 
ATOM      8  C   UNL     1       5.672   4.694  14.799  0.00  0.00    +0.000 C 
ATOM      9  C   UNL     1       5.017   3.795  15.873  0.00  0.00    +0.000 C 
ATOM     10  N   UNL     1       4.832   3.137  19.245  0.00  0.00    +0.000 NA
ATOM     11  C   UNL     1       3.675   3.150  19.999  0.00  0.00    +0.000 A 
ATOM     12  C   UNL     1       3.336   2.453  21.168  0.00  0.00    +0.000 A 
ATOM     13  C   UNL     1       2.075   2.661  21.760  0.00  0.00    +0.000 A 
ATOM     14  C   UNL     1       1.135   3.497  21.171  0.00  0.00    +0.000 A 
ATOM     15  C   UNL     1       1.442   4.144  19.995  0.00  0.00    +0.000 A 
ATOM     16  C   UNL     1       2.730   4.003  19.442  0.00  0.00    +0.000 A 
ENDROOT
BRANCH   1  17
ATOM     17  C   UNL     1       2.863   5.647  17.538  0.00  0.00    +0.000 C 
BRANCH  17  18
ATOM     18  C   UNL     1       3.091   7.046  18.109  0.00  0.00    +0.000 C 
BRANCH  18  19
ATOM     19  O   UNL     1       2.039   7.951  17.772  0.00  0.00    +0.000 OA
BRANCH  19  20
ATOM     20  C   UNL     1       1.737   8.765  18.890  0.00  0.00    +0.000 C 
BRANCH  20  22
ATOM     21  C   UNL     1       1.064   8.207  21.195  0.00  0.00    +0.000 C 
ATOM     22  C   UNL     1       1.813   7.960  20.139  0.00  0.00    +0.000 C 
ENDBRANCH  20  22
ENDBRANCH  19  20
ENDBRANCH  18  19
ENDBRANCH  17  18
ENDBRANCH   1  17
TORSDOF 5
ENDMDL
MODEL 9
REMARK VINA RESULT:      -6.1      3.233      6.406
REMARK  Name = 
REMARK  6 active torsions:
REMARK  status: ('A' for Active; 'I' for Inactive)
REMARK    1  A    between atoms: C_2  and  C_3
REMARK    2  A    between atoms: C_3  and  O_4
REMARK    3  A    between atoms: O_4  and  C_5
REMARK    4  A    between atoms: C_5  and  C_6
REMARK    5  A    between atoms: C_6  and  N_7
REMARK    6  A    between atoms: N_12  and  C_13
REMARK                            x       y       z     vdW  Elec       q    Type
REMARK                         _______ _______ _______ _____ _____    ______ ____
ROOT
ATOM      1  N   UNL     1       2.469   7.323  18.413  0.00  0.00    +0.000 N 
ATOM      2  C   UNL     1       2.170   6.409  19.410  0.00  0.00    +0.000 A 
ATOM      3  N   UNL     1       2.502   5.103  19.257  0.00  0.00    +0.000 N 
ATOM      4  C   UNL     1       2.802   4.282  20.443  0.00  0.00    +0.000 C 
ATOM      5  C   UNL     1       3.679   3.086  19.974  0.00  0.00    +0.000 C 
ATOM      6  N   UNL     1       2.992   2.258  18.949  0.00  0.00    +0.000 NA
ATOM      7  C   UNL     1       3.859   1.176  18.489  0.00  0.00    +0.000 C 
ATOM      8  C   UNL     1       2.571   3.116  17.818  0.00  0.00    +0.000 C 
ATOM      9  C   UNL     1       1.724   4.328  18.270  0.00  0.00    +0.000 C 
ATOM     10  N   UNL     1       1.587   7.004  20.427  0.00  0.00    +0.000 NA
ATOM     11  C   UNL     1       1.439   8.325  20.053  0.00  0.00    +0.000 A 
ATOM     12  C   UNL     1       0.877   9.414  20.736  0.00  0.00    +0.000 A 
ATOM     13  C   UNL     1       0.864  10.685  20.129  0.00  0.00    +0.000 A 
ATOM     14  C   UNL     1       1.343  10.867  18.837  0.00  0.00    +0.000 A 
ATOM     15  C   UNL     1       1.849   9.792  18.141  0.00  0.00    +0.000 A 
ATOM     16  C   UNL     1       1.938   8.537  18.773  0.00  0.00    +0.000 A 
ENDROOT
BRANCH   1  17
ATOM     17  C   UNL     1       3.240   7.052  17.210  0.00  0.00    +0.000 C 
BRANCH  17  18
ATOM     18  C   UNL     1       4.720   6.774  17.465  0.00  0.00    +0.000 C 
BRANCH  18  19
ATOM     19  O   UNL     1       5.120   5.482  17.005  0.00  0.00    +0.000 OA
BRANCH  19  20
ATOM     20  C   UNL     1       5.819   5.611  15.781  0.00  0.00    +0.000 C 
BRANCH  20  22
ATOM     21  C   UNL     1       5.966   3.981  13.937  0.00  0.00    +0.000 C 
ATOM     22  C   UNL     1       6.107   4.265  15.216  0.00  0.00    +0.000 C 
ENDBRANCH  20  22
ENDBRANCH  19  20
ENDBRANCH  18  19
ENDBRANCH  17  18
ENDBRANCH   1  17
TORSDOF 5
ENDMDL
