MODEL 1
REMARK VINA RESULT:      -6.7      0.000      0.000
REMARK  Name = 
REMARK  5 active torsions:
REMARK  status: ('A' for Active; 'I' for Inactive)
REMARK    1  A    between atoms: C_2  and  O_3
REMARK    2  A    between atoms: C_2  and  C_4
REMARK    3  A    between atoms: C_4  and  C_6
REMARK    4  A    between atoms: C_7  and  O_8
REMARK    5  A    between atoms: C_7  and  C_9
REMARK                            x       y       z     vdW  Elec       q    Type
REMARK                         _______ _______ _______ _____ _____    ______ ____
ROOT
ATOM      1  C   UNL     1       5.527   4.109  16.207  0.00  0.00    +0.000 C 
ATOM      2  C   UNL     1       5.172   3.877  17.482  0.00  0.00    +0.000 C 
ENDROOT
BRANCH   2   3
ATOM      3  C   UNL     1       3.787   3.515  17.860  0.00  0.00    +0.000 A 
ATOM      4  C   UNL     1       3.477   2.268  18.428  0.00  0.00    +0.000 A 
ATOM      5  C   UNL     1       2.162   1.936  18.774  0.00  0.00    +0.000 A 
ATOM      6  C   UNL     1       1.136   2.854  18.570  0.00  0.00    +0.000 A 
ATOM      7  C   UNL     1       1.424   4.104  18.029  0.00  0.00    +0.000 A 
ATOM      8  C   UNL     1       2.739   4.432  17.680  0.00  0.00    +0.000 A 
ENDBRANCH   2   3
BRANCH   1   9
ATOM      9  C   UNL     1       6.910   4.458  15.808  0.00  0.00    +0.000 C 
ATOM     10  O   UNL     1       7.859   4.493  16.586  0.00  0.00    +0.000 OA
BRANCH   9  12
ATOM     11  O   UNL     1       7.934   5.625  13.946  0.00  0.00    +0.000 OA
ATOM     12  C   UNL     1       7.153   4.777  14.328  0.00  0.00    +0.000 C 
BRANCH  12  13
ATOM     13  O   UNL     1       6.385   4.004  13.538  0.00  0.00    +0.000 OA
ATOM     14  H   UNL     1       5.682   3.567  14.071  0.00  0.00    +0.000 HD
ENDBRANCH  12  13
ENDBRANCH   9  12
ENDBRANCH   1   9
BRANCH   2  15
ATOM     15  O   UNL     1       6.052   3.976  18.546  0.00  0.00    +0.000 OA
ATOM     16  H   UNL     1       6.624   3.181  18.566  0.00  0.00    +0.000 HD
ENDBRANCH   2  15
TORSDOF 5
ENDMDL
MODEL 2
REMARK VINA RESULT:      -6.5      0.949      1.556
REMARK  Name = 
REMARK  5 active torsions:
REMARK  status: ('A' for Active; 'I' for Inactive)
REMARK    1  A    between atoms: C_2  and  O_3
REMARK    2  A    between atoms: C_2  and  C_4
REMARK    3  A    between atoms: C_4  and  C_6
REMARK    4  A    between atoms: C_7  and  O_8
REMARK    5  A    between atoms: C_7  and  C_9
REMARK                            x       y       z     vdW  Elec       q    Type
REMARK                         _______ _______ _______ _____ _____    ______ ____
ROOT
ATOM      1  C   UNL     1       5.446   4.400  16.571  0.00  0.00    +0.000 C 
ATOM      2  C   UNL     1       5.198   4.118  17.861  0.00  0.00    +0.000 C 
ENDROOT
BRANCH   2   3
ATOM      3  C   UNL     1       3.819   4.021  18.394  0.00  0.00    +0.000 A 
ATOM      4  C   UNL     1       2.700   3.964  17.546  0.00  0.00    +0.000 A 
ATOM      5  C   UNL     1       1.403   3.880  18.064  0.00  0.00    +0.000 A 
ATOM      6  C   UNL     1       1.204   3.836  19.440  0.00  0.00    +0.000 A 
ATOM      7  C   UNL     1       2.301   3.868  20.298  0.00  0.00    +0.000 A 
ATOM      8  C   UNL     1       3.596   3.957  19.779  0.00  0.00    +0.000 A 
ENDBRANCH   2   3
BRANCH   1   9
ATOM      9  C   UNL     1       6.817   4.487  16.018  0.00  0.00    +0.000 C 
ATOM     10  O   UNL     1       7.836   4.450  16.701  0.00  0.00    +0.000 OA
BRANCH   9  12
ATOM     11  O   UNL     1       6.322   3.938  13.709  0.00  0.00    +0.000 OA
ATOM     12  C   UNL     1       6.951   4.616  14.495  0.00  0.00    +0.000 C 
BRANCH  12  13
ATOM     13  O   UNL     1       7.851   5.563  14.171  0.00  0.00    +0.000 OA
ATOM     14  H   UNL     1       8.538   5.632  14.873  0.00  0.00    +0.000 HD
ENDBRANCH  12  13
ENDBRANCH   9  12
ENDBRANCH   1   9
BRANCH   2  15
ATOM     15  O   UNL     1       6.194   3.918  18.801  0.00  0.00    +0.000 OA
ATOM     16  H   UNL     1       5.783   3.726  19.670  0.00  0.00    +0.000 HD
ENDBRANCH   2  15
TORSDOF 5
ENDMDL
MODEL 3
REMARK VINA RESULT:      -6.5      1.493      2.226
REMARK  Name = 
REMARK  5 active torsions:
REMARK  status: ('A' for Active; 'I' for Inactive)
REMARK    1  A    between atoms: C_2  and  O_3
REMARK    2  A    between atoms: C_2  and  C_4
REMARK    3  A    between atoms: C_4  and  C_6
REMARK    4  A    between atoms: C_7  and  O_8
REMARK    5  A    between atoms: C_7  and  C_9
REMARK                            x       y       z     vdW  Elec       q    Type
REMARK                         _______ _______ _______ _____ _____    ______ ____
ROOT
ATOM      1  C   UNL     1       4.709   4.238  16.799  0.00  0.00    +0.000 C 
ATOM      2  C   UNL     1       4.642   3.890  18.095  0.00  0.00    +0.000 C 
ENDROOT
BRANCH   2   3
ATOM      3  C   UNL     1       3.386   3.992  18.874  0.00  0.00    +0.000 A 
ATOM      4  C   UNL     1       3.249   4.892  19.943  0.00  0.00    +0.000 A 
ATOM      5  C   UNL     1       2.059   4.972  20.674  0.00  0.00    +0.000 A 
ATOM      6  C   UNL     1       0.979   4.161  20.338  0.00  0.00    +0.000 A 
ATOM      7  C   UNL     1       1.086   3.278  19.267  0.00  0.00    +0.000 A 
ATOM      8  C   UNL     1       2.278   3.196  18.540  0.00  0.00    +0.000 A 
ENDBRANCH   2   3
BRANCH   1   9
ATOM      9  C   UNL     1       5.952   4.128  16.002  0.00  0.00    +0.000 C 
ATOM     10  O   UNL     1       6.065   3.427  15.000  0.00  0.00    +0.000 OA
BRANCH   9  12
ATOM     11  O   UNL     1       7.238   6.161  16.307  0.00  0.00    +0.000 OA
ATOM     12  C   UNL     1       7.156   4.960  16.463  0.00  0.00    +0.000 C 
BRANCH  12  13
ATOM     13  O   UNL     1       8.085   4.178  17.043  0.00  0.00    +0.000 OA
ATOM     14  H   UNL     1       8.740   3.875  16.373  0.00  0.00    +0.000 HD
ENDBRANCH  12  13
ENDBRANCH   9  12
ENDBRANCH   1   9
BRANCH   2  15
ATOM     15  O   UNL     1       5.731   3.433  18.817  0.00  0.00    +0.000 OA
ATOM     16  H   UNL     1       5.490   2.598  19.270  0.00  0.00    +0.000 HD
ENDBRANCH   2  15
TORSDOF 5
ENDMDL
MODEL 4
REMARK VINA RESULT:      -6.5      1.733      2.207
REMARK  Name = 
REMARK  5 active torsions:
REMARK  status: ('A' for Active; 'I' for Inactive)
REMARK    1  A    between atoms: C_2  and  O_3
REMARK    2  A    between atoms: C_2  and  C_4
REMARK    3  A    between atoms: C_4  and  C_6
REMARK    4  A    between atoms: C_7  and  O_8
REMARK    5  A    between atoms: C_7  and  C_9
REMARK                            x       y       z     vdW  Elec       q    Type
REMARK                         _______ _______ _______ _____ _____    ______ ____
ROOT
ATOM      1  C   UNL     1       4.584   4.784  16.665  0.00  0.00    +0.000 C 
ATOM      2  C   UNL     1       3.714   5.331  17.531  0.00  0.00    +0.000 C 
ENDROOT
BRANCH   2   3
ATOM      3  C   UNL     1       2.730   4.515  18.279  0.00  0.00    +0.000 A 
ATOM      4  C   UNL     1       2.288   3.270  17.804  0.00  0.00    +0.000 A 
ATOM      5  C   UNL     1       1.351   2.513  18.518  0.00  0.00    +0.000 A 
ATOM      6  C   UNL     1       0.852   2.985  19.728  0.00  0.00    +0.000 A 
ATOM      7  C   UNL     1       1.294   4.207  20.228  0.00  0.00    +0.000 A 
ATOM      8  C   UNL     1       2.227   4.964  19.511  0.00  0.00    +0.000 A 
ENDBRANCH   2   3
BRANCH   1   9
ATOM      9  C   UNL     1       5.585   5.581  15.920  0.00  0.00    +0.000 C 
ATOM     10  O   UNL     1       5.331   6.635  15.344  0.00  0.00    +0.000 OA
BRANCH   9  12
ATOM     11  O   UNL     1       7.552   4.498  16.835  0.00  0.00    +0.000 OA
ATOM     12  C   UNL     1       7.024   5.049  15.891  0.00  0.00    +0.000 C 
BRANCH  12  13
ATOM     13  O   UNL     1       7.598   5.285  14.697  0.00  0.00    +0.000 OA
ATOM     14  H   UNL     1       7.568   6.247  14.491  0.00  0.00    +0.000 HD
ENDBRANCH  12  13
ENDBRANCH   9  12
ENDBRANCH   1   9
BRANCH   2  15
ATOM     15  O   UNL     1       3.645   6.690  17.783  0.00  0.00    +0.000 OA
ATOM     16  H   UNL     1       3.928   6.862  18.704  0.00  0.00    +0.000 HD
ENDBRANCH   2  15
TORSDOF 5
ENDMDL
MODEL 5
REMARK VINA RESULT:      -6.5      2.022      2.745
REMARK  Name = 
REMARK  5 active torsions:
REMARK  status: ('A' for Active; 'I' for Inactive)
REMARK    1  A    between atoms: C_2  and  O_3
REMARK    2  A    between atoms: C_2  and  C_4
REMARK    3  A    between atoms: C_4  and  C_6
REMARK    4  A    between atoms: C_7  and  O_8
REMARK    5  A    between atoms: C_7  and  C_9
REMARK                            x       y       z     vdW  Elec       q    Type
REMARK                         _______ _______ _______ _____ _____    ______ ____
ROOT
ATOM      1  C   UNL     1       4.527   5.133  16.893  0.00  0.00    +0.000 C 
ATOM      2  C   UNL     1       3.629   5.680  17.729  0.00  0.00    +0.000 C 
ENDROOT
BRANCH   2   3
ATOM      3  C   UNL     1       2.657   4.859  18.488  0.00  0.00    +0.000 A 
ATOM      4  C   UNL     1       2.232   5.219  19.777  0.00  0.00    +0.000 A 
ATOM      5  C   UNL     1       1.319   4.429  20.485  0.00  0.00    +0.000 A 
ATOM      6  C   UNL     1       0.805   3.272  19.907  0.00  0.00    +0.000 A 
ATOM      7  C   UNL     1       1.196   2.909  18.622  0.00  0.00    +0.000 A 
ATOM      8  C   UNL     1       2.112   3.697  17.917  0.00  0.00    +0.000 A 
ENDBRANCH   2   3
BRANCH   1   9
ATOM      9  C   UNL     1       5.516   5.936  16.138  0.00  0.00    +0.000 C 
ATOM     10  O   UNL     1       5.217   6.774  15.293  0.00  0.00    +0.000 OA
BRANCH   9  12
ATOM     11  O   UNL     1       7.490   4.599  16.579  0.00  0.00    +0.000 OA
ATOM     12  C   UNL     1       6.998   5.702  16.457  0.00  0.00    +0.000 C 
BRANCH  12  13
ATOM     13  O   UNL     1       7.652   6.872  16.583  0.00  0.00    +0.000 OA
ATOM     14  H   UNL     1       8.195   7.045  15.781  0.00  0.00    +0.000 HD
ENDBRANCH  12  13
ENDBRANCH   9  12
ENDBRANCH   1   9
BRANCH   2  15
ATOM     15  O   UNL     1       3.518   7.044  17.938  0.00  0.00    +0.000 OA
ATOM     16  H   UNL     1       2.604   7.252  18.224  0.00  0.00    +0.000 HD
ENDBRANCH   2  15
TORSDOF 5
ENDMDL
MODEL 6
REMARK VINA RESULT:      -6.4      1.251      1.478
REMARK  Name = 
REMARK  5 active torsions:
REMARK  status: ('A' for Active; 'I' for Inactive)
REMARK    1  A    between atoms: C_2  and  O_3
REMARK    2  A    between atoms: C_2  and  C_4
REMARK    3  A    between atoms: C_4  and  C_6
REMARK    4  A    between atoms: C_7  and  O_8
REMARK    5  A    between atoms: C_7  and  C_9
REMARK                            x       y       z     vdW  Elec       q    Type
REMARK                         _______ _______ _______ _____ _____    ______ ____
ROOT
ATOM      1  C   UNL     1       5.421   4.325  17.009  0.00  0.00    +0.000 C 
ATOM      2  C   UNL     1       5.129   4.297  18.320  0.00  0.00    +0.000 C 
ENDROOT
BRANCH   2   3
ATOM      3  C   UNL     1       3.739   4.166  18.814  0.00  0.00    +0.000 A 
ATOM      4  C   UNL     1       3.293   4.846  19.960  0.00  0.00    +0.000 A 
ATOM      5  C   UNL     1       1.979   4.706  20.420  0.00  0.00    +0.000 A 
ATOM      6  C   UNL     1       1.084   3.893  19.731  0.00  0.00    +0.000 A 
ATOM      7  C   UNL     1       1.498   3.228  18.581  0.00  0.00    +0.000 A 
ATOM      8  C   UNL     1       2.814   3.365  18.125  0.00  0.00    +0.000 A 
ENDBRANCH   2   3
BRANCH   1   9
ATOM      9  C   UNL     1       6.806   4.441  16.496  0.00  0.00    +0.000 C 
ATOM     10  O   UNL     1       7.804   4.432  17.211  0.00  0.00    +0.000 OA
BRANCH   9  12
ATOM     11  O   UNL     1       7.600   5.465  14.447  0.00  0.00    +0.000 OA
ATOM     12  C   UNL     1       6.983   4.564  14.978  0.00  0.00    +0.000 C 
BRANCH  12  13
ATOM     13  O   UNL     1       6.362   3.555  14.339  0.00  0.00    +0.000 OA
ATOM     14  H   UNL     1       6.593   2.695  14.759  0.00  0.00    +0.000 HD
ENDBRANCH  12  13
ENDBRANCH   9  12
ENDBRANCH   1   9
BRANCH   2  15
ATOM     15  O   UNL     1       6.085   4.411  19.314  0.00  0.00    +0.000 OA
ATOM     16  H   UNL     1       6.621   5.214  19.155  0.00  0.00    +0.000 HD
ENDBRANCH   2  15
TORSDOF 5
ENDMDL
MODEL 7
REMARK VINA RESULT:      -6.4      1.548      2.198
REMARK  Name = 
REMARK  5 active torsions:
REMARK  status: ('A' for Active; 'I' for Inactive)
REMARK    1  A    between atoms: C_2  and  O_3
REMARK    2  A    between atoms: C_2  and  C_4
REMARK    3  A    between atoms: C_4  and  C_6
REMARK    4  A    between atoms: C_7  and  O_8
REMARK    5  A    between atoms: C_7  and  C_9
REMARK                            x       y       z     vdW  Elec       q    Type
REMARK                         _______ _______ _______ _____ _____    ______ ____
ROOT
ATOM      1  C   UNL     1       4.757   4.527  17.096  0.00  0.00    +0.000 C 
ATOM      2  C   UNL     1       4.112   3.485  17.646  0.00  0.00    +0.000 C 
ENDROOT
BRANCH   2   3
ATOM      3  C   UNL     1       2.990   3.667  18.596  0.00  0.00    +0.000 A 
ATOM      4  C   UNL     1       1.862   2.830  18.577  0.00  0.00    +0.000 A 
ATOM      5  C   UNL     1       0.806   3.018  19.475  0.00  0.00    +0.000 A 
ATOM      6  C   UNL     1       0.867   4.040  20.418  0.00  0.00    +0.000 A 
ATOM      7  C   UNL     1       1.986   4.867  20.469  0.00  0.00    +0.000 A 
ATOM      8  C   UNL     1       3.039   4.680  19.567  0.00  0.00    +0.000 A 
ENDBRANCH   2   3
BRANCH   1   9
ATOM      9  C   UNL     1       5.871   4.365  16.133  0.00  0.00    +0.000 C 
ATOM     10  O   UNL     1       5.776   3.759  15.070  0.00  0.00    +0.000 OA
BRANCH   9  12
ATOM     11  O   UNL     1       7.499   6.159  16.221  0.00  0.00    +0.000 OA
ATOM     12  C   UNL     1       7.213   5.012  16.499  0.00  0.00    +0.000 C 
BRANCH  12  13
ATOM     13  O   UNL     1       8.005   4.141  17.149  0.00  0.00    +0.000 OA
ATOM     14  H   UNL     1       8.761   4.615  17.565  0.00  0.00    +0.000 HD
ENDBRANCH  12  13
ENDBRANCH   9  12
ENDBRANCH   1   9
BRANCH   2  15
ATOM     15  O   UNL     1       4.447   2.166  17.397  0.00  0.00    +0.000 OA
ATOM     16  H   UNL     1       5.301   1.963  17.833  0.00  0.00    +0.000 HD
ENDBRANCH   2  15
TORSDOF 5
ENDMDL
MODEL 8
REMARK VINA RESULT:      -6.4      1.568      2.405
REMARK  Name = 
REMARK  5 active torsions:
REMARK  status: ('A' for Active; 'I' for Inactive)
REMARK    1  A    between atoms: C_2  and  O_3
REMARK    2  A    between atoms: C_2  and  C_4
REMARK    3  A    between atoms: C_4  and  C_6
REMARK    4  A    between atoms: C_7  and  O_8
REMARK    5  A    between atoms: C_7  and  C_9
REMARK                            x       y       z     vdW  Elec       q    Type
REMARK                         _______ _______ _______ _____ _____    ______ ____
ROOT
ATOM      1  C   UNL     1       4.879   3.848  16.827  0.00  0.00    +0.000 C 
ATOM      2  C   UNL     1       4.113   4.813  17.364  0.00  0.00    +0.000 C 
ENDROOT
BRANCH   2   3
ATOM      3  C   UNL     1       3.024   4.512  18.321  0.00  0.00    +0.000 A 
ATOM      4  C   UNL     1       2.865   5.237  19.513  0.00  0.00    +0.000 A 
ATOM      5  C   UNL     1       1.836   4.937  20.412  0.00  0.00    +0.000 A 
ATOM      6  C   UNL     1       0.938   3.913  20.126  0.00  0.00    +0.000 A 
ATOM      7  C   UNL     1       1.064   3.195  18.939  0.00  0.00    +0.000 A 
ATOM      8  C   UNL     1       2.096   3.495  18.044  0.00  0.00    +0.000 A 
ENDBRANCH   2   3
BRANCH   1   9
ATOM      9  C   UNL     1       5.982   4.132  15.880  0.00  0.00    +0.000 C 
ATOM     10  O   UNL     1       5.936   3.881  14.679  0.00  0.00    +0.000 OA
BRANCH   9  12
ATOM     11  O   UNL     1       8.069   4.195  17.112  0.00  0.00    +0.000 OA
ATOM     12  C   UNL     1       7.244   4.791  16.451  0.00  0.00    +0.000 C 
BRANCH  12  13
ATOM     13  O   UNL     1       7.292   6.096  16.126  0.00  0.00    +0.000 OA
ATOM     14  H   UNL     1       6.491   6.559  16.463  0.00  0.00    +0.000 HD
ENDBRANCH  12  13
ENDBRANCH   9  12
ENDBRANCH   1   9
BRANCH   2  15
ATOM     15  O   UNL     1       4.255   6.155  17.057  0.00  0.00    +0.000 OA
ATOM     16  H   UNL     1       3.720   6.363  16.263  0.00  0.00    +0.000 HD
ENDBRANCH   2  15
TORSDOF 5
ENDMDL
MODEL 9
REMARK VINA RESULT:      -6.3      1.865      2.244
REMARK  Name = 
REMARK  5 active torsions:
REMARK  status: ('A' for Active; 'I' for Inactive)
REMARK    1  A    between atoms: C_2  and  O_3
REMARK    2  A    between atoms: C_2  and  C_4
REMARK    3  A    between atoms: C_4  and  C_6
REMARK    4  A    between atoms: C_7  and  O_8
REMARK    5  A    between atoms: C_7  and  C_9
REMARK                            x       y       z     vdW  Elec       q    Type
REMARK                         _______ _______ _______ _____ _____    ______ ____
ROOT
ATOM      1  C   UNL     1       4.370   4.773  16.632  0.00  0.00    +0.000 C 
ATOM      2  C   UNL     1       3.671   5.358  17.619  0.00  0.00    +0.000 C 
ENDROOT
BRANCH   2   3
ATOM      3  C   UNL     1       2.673   4.615  18.424  0.00  0.00    +0.000 A 
ATOM      4  C   UNL     1       2.287   5.046  19.704  0.00  0.00    +0.000 A 
ATOM      5  C   UNL     1       1.349   4.330  20.456  0.00  0.00    +0.000 A 
ATOM      6  C   UNL     1       0.771   3.177  19.933  0.00  0.00    +0.000 A 
ATOM      7  C   UNL     1       1.124   2.745  18.658  0.00  0.00    +0.000 A 
ATOM      8  C   UNL     1       2.065   3.460  17.909  0.00  0.00    +0.000 A 
ENDBRANCH   2   3
BRANCH   1   9
ATOM      9  C   UNL     1       5.382   5.496  15.827  0.00  0.00    +0.000 C 
ATOM     10  O   UNL     1       5.303   6.686  15.535  0.00  0.00    +0.000 OA
BRANCH   9  12
ATOM     11  O   UNL     1       7.606   5.210  14.906  0.00  0.00    +0.000 OA
ATOM     12  C   UNL     1       6.601   4.696  15.351  0.00  0.00    +0.000 C 
BRANCH  12  13
ATOM     13  O   UNL     1       6.391   3.374  15.490  0.00  0.00    +0.000 OA
ATOM     14  H   UNL     1       6.632   2.903  14.660  0.00  0.00    +0.000 HD
ENDBRANCH  12  13
ENDBRANCH   9  12
ENDBRANCH   1   9
BRANCH   2  15
ATOM     15  O   UNL     1       3.800   6.695  17.954  0.00  0.00    +0.000 OA
ATOM     16  H   UNL     1       3.680   7.241  17.150  0.00  0.00    +0.000 HD
ENDBRANCH   2  15
TORSDOF 5
ENDMDL
