MODEL 1
REMARK VINA RESULT:      -7.8      0.000      0.000
REMARK  Name = 
REMARK  7 active torsions:
REMARK  status: ('A' for Active; 'I' for Inactive)
REMARK    1  A    between atoms: C_1  and  C_2
REMARK    2  A    between atoms: C_2  and  C_3
REMARK    3  A    between atoms: C_3  and  O_4
REMARK    4  A    between atoms: O_4  and  C_5
REMARK    5  A    between atoms: C_5  and  C_6
REMARK    6  A    between atoms: C_9  and  C_10
REMARK    7  A    between atoms: C_19  and  C_20
REMARK                            x       y       z     vdW  Elec       q    Type
REMARK                         _______ _______ _______ _____ _____    ______ ____
ROOT
ATOM      1  C   UNL     1       2.339   5.846  19.802  0.00  0.00    +0.000 A 
ATOM      2  N   UNL     1       1.419   5.565  20.739  0.00  0.00    +0.000 NA
ATOM      3  O   UNL     1       0.996   6.815  21.175  0.00  0.00    +0.000 OA
ATOM      4  C   UNL     1       1.745   7.734  20.503  0.00  0.00    +0.000 A 
ATOM      5  N   UNL     1       2.591   7.195  19.653  0.00  0.00    +0.000 NA
ENDROOT
BRANCH   4   6
ATOM      6  C   UNL     1       1.482   9.154  20.846  0.00  0.00    +0.000 C 
ATOM      7  C   UNL     1       0.953   9.244  22.293  0.00  0.00    +0.000 C 
ATOM      8  C   UNL     1      -0.137  10.252  22.162  0.00  0.00    +0.000 A 
ATOM      9  C   UNL     1      -0.864  10.829  23.195  0.00  0.00    +0.000 A 
ATOM     10  C   UNL     1      -1.872  11.735  22.869  0.00  0.00    +0.000 A 
ATOM     11  C   UNL     1      -2.144  12.037  21.528  0.00  0.00    +0.000 A 
ATOM     12  C   UNL     1      -1.413  11.435  20.498  0.00  0.00    +0.000 A 
ATOM     13  C   UNL     1      -0.404  10.542  20.823  0.00  0.00    +0.000 A 
ATOM     14  N   UNL     1       0.476   9.825  19.970  0.00  0.00    +0.000 N 
ATOM     15  C   UNL     1       0.516   9.985  18.596  0.00  0.00    +0.000 C 
ATOM     16  C   UNL     1       1.531   9.202  17.799  0.00  0.00    +0.000 C 
ATOM     17  O   UNL     1      -0.254  10.712  17.959  0.00  0.00    +0.000 OA
ENDBRANCH   4   6
BRANCH   1  18
ATOM     18  C   UNL     1       3.009   4.778  18.953  0.00  0.00    +0.000 C 
ATOM     19  C   UNL     1       2.073   4.287  17.818  0.00  0.00    +0.000 C 
ATOM     20  C   UNL     1       2.685   3.132  17.021  0.00  0.00    +0.000 C 
ATOM     21  C   UNL     1       3.010   1.951  17.928  0.00  0.00    +0.000 C 
ATOM     22  C   UNL     1       3.914   2.366  19.079  0.00  0.00    +0.000 C 
ATOM     23  C   UNL     1       3.338   3.553  19.854  0.00  0.00    +0.000 C 
BRANCH  18  24
ATOM     24  O   UNL     1       4.291   5.219  18.418  0.00  0.00    +0.000 OA
BRANCH  24  25
ATOM     25  C   UNL     1       5.374   5.261  19.349  0.00  0.00    +0.000 C 
BRANCH  25  27
ATOM     26  C   UNL     1       6.825   4.617  17.415  0.00  0.00    +0.000 C 
ATOM     27  C   UNL     1       6.676   5.546  18.611  0.00  0.00    +0.000 C 
ENDBRANCH  25  27
ENDBRANCH  24  25
ENDBRANCH  18  24
ENDBRANCH   1  18
TORSDOF 5
ENDMDL
MODEL 2
REMARK VINA RESULT:      -7.7      2.121      8.140
REMARK  Name = 
REMARK  7 active torsions:
REMARK  status: ('A' for Active; 'I' for Inactive)
REMARK    1  A    between atoms: C_1  and  C_2
REMARK    2  A    between atoms: C_2  and  C_3
REMARK    3  A    between atoms: C_3  and  O_4
REMARK    4  A    between atoms: O_4  and  C_5
REMARK    5  A    between atoms: C_5  and  C_6
REMARK    6  A    between atoms: C_9  and  C_10
REMARK    7  A    between atoms: C_19  and  C_20
REMARK                            x       y       z     vdW  Elec       q    Type
REMARK                         _______ _______ _______ _____ _____    ______ ____
ROOT
ATOM      1  C   UNL     1       1.540   8.618  19.229  0.00  0.00    +0.000 A 
ATOM      2  N   UNL     1       1.748   8.912  17.935  0.00  0.00    +0.000 NA
ATOM      3  O   UNL     1       2.681   7.968  17.526  0.00  0.00    +0.000 OA
ATOM      4  C   UNL     1       2.995   7.230  18.627  0.00  0.00    +0.000 A 
ATOM      5  N   UNL     1       2.330   7.591  19.702  0.00  0.00    +0.000 NA
ENDROOT
BRANCH   4   6
ATOM      6  C   UNL     1       4.017   6.173  18.424  0.00  0.00    +0.000 C 
ATOM      7  C   UNL     1       5.295   6.800  17.827  0.00  0.00    +0.000 C 
ATOM      8  C   UNL     1       5.684   5.790  16.801  0.00  0.00    +0.000 A 
ATOM      9  C   UNL     1       6.855   5.774  16.054  0.00  0.00    +0.000 A 
ATOM     10  C   UNL     1       7.026   4.759  15.114  0.00  0.00    +0.000 A 
ATOM     11  C   UNL     1       6.028   3.793  14.929  0.00  0.00    +0.000 A 
ATOM     12  C   UNL     1       4.847   3.832  15.678  0.00  0.00    +0.000 A 
ATOM     13  C   UNL     1       4.682   4.836  16.619  0.00  0.00    +0.000 A 
ATOM     14  N   UNL     1       3.596   5.076  17.502  0.00  0.00    +0.000 N 
ATOM     15  C   UNL     1       2.502   4.236  17.621  0.00  0.00    +0.000 C 
ATOM     16  C   UNL     1       1.432   4.572  18.633  0.00  0.00    +0.000 C 
ATOM     17  O   UNL     1       2.318   3.232  16.926  0.00  0.00    +0.000 OA
ENDBRANCH   4   6
BRANCH   1  18
ATOM     18  C   UNL     1       0.497   9.324  20.080  0.00  0.00    +0.000 C 
ATOM     19  C   UNL     1       0.955  10.752  20.471  0.00  0.00    +0.000 C 
ATOM     20  C   UNL     1      -0.029  11.438  21.421  0.00  0.00    +0.000 C 
ATOM     21  C   UNL     1      -0.219  10.624  22.696  0.00  0.00    +0.000 C 
ATOM     22  C   UNL     1      -0.654   9.198  22.385  0.00  0.00    +0.000 C 
ATOM     23  C   UNL     1       0.295   8.518  21.396  0.00  0.00    +0.000 C 
BRANCH  18  24
ATOM     24  O   UNL     1      -0.813   9.352  19.441  0.00  0.00    +0.000 OA
BRANCH  24  25
ATOM     25  C   UNL     1      -1.050  10.446  18.555  0.00  0.00    +0.000 C 
BRANCH  25  27
ATOM     26  C   UNL     1      -3.204   9.800  17.458  0.00  0.00    +0.000 C 
ATOM     27  C   UNL     1      -1.700   9.939  17.273  0.00  0.00    +0.000 C 
ENDBRANCH  25  27
ENDBRANCH  24  25
ENDBRANCH  18  24
ENDBRANCH   1  18
TORSDOF 5
ENDMDL
MODEL 3
REMARK VINA RESULT:      -7.5      2.005      8.151
REMARK  Name = 
REMARK  7 active torsions:
REMARK  status: ('A' for Active; 'I' for Inactive)
REMARK    1  A    between atoms: C_1  and  C_2
REMARK    2  A    between atoms: C_2  and  C_3
REMARK    3  A    between atoms: C_3  and  O_4
REMARK    4  A    between atoms: O_4  and  C_5
REMARK    5  A    between atoms: C_5  and  C_6
REMARK    6  A    between atoms: C_9  and  C_10
REMARK    7  A    between atoms: C_19  and  C_20
REMARK                            x       y       z     vdW  Elec       q    Type
REMARK                         _______ _______ _______ _____ _____    ______ ____
ROOT
ATOM      1  C   UNL     1       1.518   9.042  18.691  0.00  0.00    +0.000 A 
ATOM      2  N   UNL     1       1.760   9.152  17.375  0.00  0.00    +0.000 NA
ATOM      3  O   UNL     1       2.682   8.144  17.121  0.00  0.00    +0.000 OA
ATOM      4  C   UNL     1       2.957   7.559  18.321  0.00  0.00    +0.000 A 
ATOM      5  N   UNL     1       2.276   8.075  19.319  0.00  0.00    +0.000 NA
ENDROOT
BRANCH   4   6
ATOM      6  C   UNL     1       3.960   6.466  18.289  0.00  0.00    +0.000 C 
ATOM      7  C   UNL     1       5.280   6.996  17.690  0.00  0.00    +0.000 C 
ATOM      8  C   UNL     1       5.693   5.870  16.804  0.00  0.00    +0.000 A 
ATOM      9  C   UNL     1       6.897   5.747  16.123  0.00  0.00    +0.000 A 
ATOM     10  C   UNL     1       7.087   4.629  15.313  0.00  0.00    +0.000 A 
ATOM     11  C   UNL     1       6.075   3.668  15.187  0.00  0.00    +0.000 A 
ATOM     12  C   UNL     1       4.862   3.814  15.867  0.00  0.00    +0.000 A 
ATOM     13  C   UNL     1       4.677   4.921  16.680  0.00  0.00    +0.000 A 
ATOM     14  N   UNL     1       3.556   5.280  17.475  0.00  0.00    +0.000 N 
ATOM     15  C   UNL     1       2.437   4.481  17.632  0.00  0.00    +0.000 C 
ATOM     16  C   UNL     1       1.329   4.949  18.545  0.00  0.00    +0.000 C 
ATOM     17  O   UNL     1       2.262   3.408  17.045  0.00  0.00    +0.000 OA
ENDBRANCH   4   6
BRANCH   1  18
ATOM     18  C   UNL     1       0.472   9.876  19.413  0.00  0.00    +0.000 C 
ATOM     19  C   UNL     1      -0.748  10.168  18.502  0.00  0.00    +0.000 C 
ATOM     20  C   UNL     1      -1.761  11.101  19.171  0.00  0.00    +0.000 C 
ATOM     21  C   UNL     1      -1.115  12.426  19.558  0.00  0.00    +0.000 C 
ATOM     22  C   UNL     1       0.105  12.213  20.443  0.00  0.00    +0.000 C 
ATOM     23  C   UNL     1       1.103  11.242  19.808  0.00  0.00    +0.000 C 
BRANCH  18  24
ATOM     24  O   UNL     1       0.051   9.269  20.671  0.00  0.00    +0.000 OA
BRANCH  24  25
ATOM     25  C   UNL     1       1.086   9.034  21.626  0.00  0.00    +0.000 C 
BRANCH  25  27
ATOM     26  C   UNL     1      -0.831   9.937  22.956  0.00  0.00    +0.000 C 
ATOM     27  C   UNL     1       0.599   9.423  23.017  0.00  0.00    +0.000 C 
ENDBRANCH  25  27
ENDBRANCH  24  25
ENDBRANCH  18  24
ENDBRANCH   1  18
TORSDOF 5
ENDMDL
MODEL 4
REMARK VINA RESULT:      -7.4      1.998      2.603
REMARK  Name = 
REMARK  7 active torsions:
REMARK  status: ('A' for Active; 'I' for Inactive)
REMARK    1  A    between atoms: C_1  and  C_2
REMARK    2  A    between atoms: C_2  and  C_3
REMARK    3  A    between atoms: C_3  and  O_4
REMARK    4  A    between atoms: O_4  and  C_5
REMARK    5  A    between atoms: C_5  and  C_6
REMARK    6  A    between atoms: C_9  and  C_10
REMARK    7  A    between atoms: C_19  and  C_20
REMARK                            x       y       z     vdW  Elec       q    Type
REMARK                         _______ _______ _______ _____ _____    ______ ____
ROOT
ATOM      1  C   UNL     1       2.095   7.898  18.589  0.00  0.00    +0.000 A 
ATOM      2  N   UNL     1       2.541   8.420  17.435  0.00  0.00    +0.000 NA
ATOM      3  O   UNL     1       2.082   9.730  17.462  0.00  0.00    +0.000 OA
ATOM      4  C   UNL     1       1.349   9.861  18.603  0.00  0.00    +0.000 A 
ATOM      5  N   UNL     1       1.317   8.766  19.329  0.00  0.00    +0.000 NA
ENDROOT
BRANCH   4   6
ATOM      6  C   UNL     1       0.724  11.190  18.819  0.00  0.00    +0.000 C 
ATOM      7  C   UNL     1       1.378  11.874  20.037  0.00  0.00    +0.000 C 
ATOM      8  C   UNL     1       0.198  12.467  20.730  0.00  0.00    +0.000 A 
ATOM      9  C   UNL     1       0.220  13.327  21.820  0.00  0.00    +0.000 A 
ATOM     10  C   UNL     1      -0.996  13.752  22.352  0.00  0.00    +0.000 A 
ATOM     11  C   UNL     1      -2.204  13.304  21.799  0.00  0.00    +0.000 A 
ATOM     12  C   UNL     1      -2.209  12.425  20.711  0.00  0.00    +0.000 A 
ATOM     13  C   UNL     1      -0.999  12.010  20.177  0.00  0.00    +0.000 A 
ATOM     14  N   UNL     1      -0.746  11.147  19.078  0.00  0.00    +0.000 N 
ATOM     15  C   UNL     1      -1.739  10.620  18.269  0.00  0.00    +0.000 C 
ATOM     16  C   UNL     1      -1.342   9.753  17.099  0.00  0.00    +0.000 C 
ATOM     17  O   UNL     1      -2.948  10.785  18.458  0.00  0.00    +0.000 OA
ENDBRANCH   4   6
BRANCH   1  18
ATOM     18  C   UNL     1       2.452   6.498  19.059  0.00  0.00    +0.000 C 
ATOM     19  C   UNL     1       1.986   5.423  18.043  0.00  0.00    +0.000 C 
ATOM     20  C   UNL     1       2.235   4.000  18.548  0.00  0.00    +0.000 C 
ATOM     21  C   UNL     1       1.523   3.756  19.874  0.00  0.00    +0.000 C 
ATOM     22  C   UNL     1       1.922   4.790  20.918  0.00  0.00    +0.000 C 
ATOM     23  C   UNL     1       1.725   6.218  20.406  0.00  0.00    +0.000 C 
BRANCH  18  24
ATOM     24  O   UNL     1       3.874   6.358  19.352  0.00  0.00    +0.000 OA
BRANCH  24  25
ATOM     25  C   UNL     1       4.701   5.969  18.254  0.00  0.00    +0.000 C 
BRANCH  25  27
ATOM     26  C   UNL     1       6.859   4.851  17.663  0.00  0.00    +0.000 C 
ATOM     27  C   UNL     1       5.810   5.048  18.747  0.00  0.00    +0.000 C 
ENDBRANCH  25  27
ENDBRANCH  24  25
ENDBRANCH  18  24
ENDBRANCH   1  18
TORSDOF 5
ENDMDL
MODEL 5
REMARK VINA RESULT:      -7.3      2.391      3.219
REMARK  Name = 
REMARK  7 active torsions:
REMARK  status: ('A' for Active; 'I' for Inactive)
REMARK    1  A    between atoms: C_1  and  C_2
REMARK    2  A    between atoms: C_2  and  C_3
REMARK    3  A    between atoms: C_3  and  O_4
REMARK    4  A    between atoms: O_4  and  C_5
REMARK    5  A    between atoms: C_5  and  C_6
REMARK    6  A    between atoms: C_9  and  C_10
REMARK    7  A    between atoms: C_19  and  C_20
REMARK                            x       y       z     vdW  Elec       q    Type
REMARK                         _______ _______ _______ _____ _____    ______ ____
ROOT
ATOM      1  C   UNL     1       1.988   7.343  19.376  0.00  0.00    +0.000 A 
ATOM      2  N   UNL     1       1.722   8.031  20.499  0.00  0.00    +0.000 NA
ATOM      3  O   UNL     1       1.419   9.308  20.043  0.00  0.00    +0.000 OA
ATOM      4  C   UNL     1       1.589   9.287  18.691  0.00  0.00    +0.000 A 
ATOM      5  N   UNL     1       1.946   8.110  18.229  0.00  0.00    +0.000 NA
ENDROOT
BRANCH   4   6
ATOM      6  C   UNL     1       1.351  10.575  17.993  0.00  0.00    +0.000 C 
ATOM      7  C   UNL     1       2.625  11.443  18.066  0.00  0.00    +0.000 C 
ATOM      8  C   UNL     1       2.063  12.795  18.352  0.00  0.00    +0.000 A 
ATOM      9  C   UNL     1       2.759  13.996  18.377  0.00  0.00    +0.000 A 
ATOM     10  C   UNL     1       2.061  15.159  18.698  0.00  0.00    +0.000 A 
ATOM     11  C   UNL     1       0.693  15.100  19.000  0.00  0.00    +0.000 A 
ATOM     12  C   UNL     1       0.010  13.880  18.987  0.00  0.00    +0.000 A 
ATOM     13  C   UNL     1       0.703  12.726  18.657  0.00  0.00    +0.000 A 
ATOM     14  N   UNL     1       0.234  11.388  18.560  0.00  0.00    +0.000 N 
ATOM     15  C   UNL     1      -1.093  11.026  18.708  0.00  0.00    +0.000 C 
ATOM     16  C   UNL     1      -1.477   9.576  18.532  0.00  0.00    +0.000 C 
ATOM     17  O   UNL     1      -1.998  11.811  19.010  0.00  0.00    +0.000 OA
ENDBRANCH   4   6
BRANCH   1  18
ATOM     18  C   UNL     1       2.266   5.849  19.367  0.00  0.00    +0.000 C 
ATOM     19  C   UNL     1       1.944   5.221  17.986  0.00  0.00    +0.000 C 
ATOM     20  C   UNL     1       2.109   3.700  17.988  0.00  0.00    +0.000 C 
ATOM     21  C   UNL     1       1.213   3.052  19.037  0.00  0.00    +0.000 C 
ATOM     22  C   UNL     1       1.464   3.636  20.420  0.00  0.00    +0.000 C 
ATOM     23  C   UNL     1       1.352   5.162  20.421  0.00  0.00    +0.000 C 
BRANCH  18  24
ATOM     24  O   UNL     1       3.630   5.537  19.777  0.00  0.00    +0.000 OA
BRANCH  24  25
ATOM     25  C   UNL     1       4.658   5.911  18.860  0.00  0.00    +0.000 C 
BRANCH  25  27
ATOM     26  C   UNL     1       7.142   5.798  18.585  0.00  0.00    +0.000 C 
ATOM     27  C   UNL     1       5.912   5.087  19.128  0.00  0.00    +0.000 C 
ENDBRANCH  25  27
ENDBRANCH  24  25
ENDBRANCH  18  24
ENDBRANCH   1  18
TORSDOF 5
ENDMDL
MODEL 6
REMARK VINA RESULT:      -7.2      1.081      2.402
REMARK  Name = 
REMARK  7 active torsions:
REMARK  status: ('A' for Active; 'I' for Inactive)
REMARK    1  A    between atoms: C_1  and  C_2
REMARK    2  A    between atoms: C_2  and  C_3
REMARK    3  A    between atoms: C_3  and  O_4
REMARK    4  A    between atoms: O_4  and  C_5
REMARK    5  A    between atoms: C_5  and  C_6
REMARK    6  A    between atoms: C_9  and  C_10
REMARK    7  A    between atoms: C_19  and  C_20
REMARK                            x       y       z     vdW  Elec       q    Type
REMARK                         _______ _______ _______ _____ _____    ______ ____
ROOT
ATOM      1  C   UNL     1       2.349   6.016  19.904  0.00  0.00    +0.000 A 
ATOM      2  N   UNL     1       1.317   5.741  20.718  0.00  0.00    +0.000 NA
ATOM      3  O   UNL     1       0.849   6.994  21.096  0.00  0.00    +0.000 OA
ATOM      4  C   UNL     1       1.681   7.908  20.522  0.00  0.00    +0.000 A 
ATOM      5  N   UNL     1       2.623   7.363  19.786  0.00  0.00    +0.000 NA
ENDROOT
BRANCH   4   6
ATOM      6  C   UNL     1       1.384   9.330  20.827  0.00  0.00    +0.000 C 
ATOM      7  C   UNL     1       0.865   9.447  22.276  0.00  0.00    +0.000 C 
ATOM      8  C   UNL     1      -0.252  10.423  22.127  0.00  0.00    +0.000 A 
ATOM      9  C   UNL     1      -0.986  11.010  23.150  0.00  0.00    +0.000 A 
ATOM     10  C   UNL     1      -2.020  11.880  22.808  0.00  0.00    +0.000 A 
ATOM     11  C   UNL     1      -2.310  12.136  21.461  0.00  0.00    +0.000 A 
ATOM     12  C   UNL     1      -1.573  11.524  20.442  0.00  0.00    +0.000 A 
ATOM     13  C   UNL     1      -0.538  10.668  20.783  0.00  0.00    +0.000 A 
ATOM     14  N   UNL     1       0.353   9.950  19.942  0.00  0.00    +0.000 N 
ATOM     15  C   UNL     1       0.377  10.072  18.563  0.00  0.00    +0.000 C 
ATOM     16  C   UNL     1       1.406   9.293  17.780  0.00  0.00    +0.000 C 
ATOM     17  O   UNL     1      -0.417  10.760  17.914  0.00  0.00    +0.000 OA
ENDBRANCH   4   6
BRANCH   1  18
ATOM     18  C   UNL     1       3.114   4.943  19.147  0.00  0.00    +0.000 C 
ATOM     19  C   UNL     1       4.543   5.419  18.777  0.00  0.00    +0.000 C 
ATOM     20  C   UNL     1       5.290   4.398  17.917  0.00  0.00    +0.000 C 
ATOM     21  C   UNL     1       4.529   4.102  16.630  0.00  0.00    +0.000 C 
ATOM     22  C   UNL     1       3.106   3.644  16.918  0.00  0.00    +0.000 C 
ATOM     23  C   UNL     1       2.364   4.633  17.820  0.00  0.00    +0.000 C 
BRANCH  18  24
ATOM     24  O   UNL     1       3.157   3.678  19.870  0.00  0.00    +0.000 OA
BRANCH  24  25
ATOM     25  C   UNL     1       2.222   2.685  19.446  0.00  0.00    +0.000 C 
BRANCH  25  27
ATOM     26  C   UNL     1       1.769   2.559  21.903  0.00  0.00    +0.000 C 
ATOM     27  C   UNL     1       1.152   2.496  20.514  0.00  0.00    +0.000 C 
ENDBRANCH  25  27
ENDBRANCH  24  25
ENDBRANCH  18  24
ENDBRANCH   1  18
TORSDOF 5
ENDMDL
MODEL 7
REMARK VINA RESULT:      -7.1      2.142      8.003
REMARK  Name = 
REMARK  7 active torsions:
REMARK  status: ('A' for Active; 'I' for Inactive)
REMARK    1  A    between atoms: C_1  and  C_2
REMARK    2  A    between atoms: C_2  and  C_3
REMARK    3  A    between atoms: C_3  and  O_4
REMARK    4  A    between atoms: O_4  and  C_5
REMARK    5  A    between atoms: C_5  and  C_6
REMARK    6  A    between atoms: C_9  and  C_10
REMARK    7  A    between atoms: C_19  and  C_20
REMARK                            x       y       z     vdW  Elec       q    Type
REMARK                         _______ _______ _______ _____ _____    ______ ____
ROOT
ATOM      1  C   UNL     1       1.543   8.496  19.105  0.00  0.00    +0.000 A 
ATOM      2  N   UNL     1       1.543   7.941  20.329  0.00  0.00    +0.000 NA
ATOM      3  O   UNL     1       2.513   6.950  20.244  0.00  0.00    +0.000 OA
ATOM      4  C   UNL     1       2.966   6.959  18.960  0.00  0.00    +0.000 A 
ATOM      5  N   UNL     1       2.400   7.882  18.215  0.00  0.00    +0.000 NA
ENDROOT
BRANCH   4   6
ATOM      6  C   UNL     1       3.996   5.941  18.633  0.00  0.00    +0.000 C 
ATOM      7  C   UNL     1       5.260   6.644  18.093  0.00  0.00    +0.000 C 
ATOM      8  C   UNL     1       5.648   5.755  16.960  0.00  0.00    +0.000 A 
ATOM      9  C   UNL     1       6.809   5.832  16.202  0.00  0.00    +0.000 A 
ATOM     10  C   UNL     1       6.980   4.926  15.158  0.00  0.00    +0.000 A 
ATOM     11  C   UNL     1       5.990   3.973  14.882  0.00  0.00    +0.000 A 
ATOM     12  C   UNL     1       4.818   3.918  15.643  0.00  0.00    +0.000 A 
ATOM     13  C   UNL     1       4.654   4.814  16.688  0.00  0.00    +0.000 A 
ATOM     14  N   UNL     1       3.576   4.945  17.604  0.00  0.00    +0.000 N 
ATOM     15  C   UNL     1       2.492   4.084  17.644  0.00  0.00    +0.000 C 
ATOM     16  C   UNL     1       1.431   4.297  18.697  0.00  0.00    +0.000 C 
ATOM     17  O   UNL     1       2.311   3.158  16.847  0.00  0.00    +0.000 OA
ENDBRANCH   4   6
BRANCH   1  18
ATOM     18  C   UNL     1       0.709   9.715  18.749  0.00  0.00    +0.000 C 
ATOM     19  C   UNL     1      -0.006  10.297  19.996  0.00  0.00    +0.000 C 
ATOM     20  C   UNL     1      -0.940  11.456  19.641  0.00  0.00    +0.000 C 
ATOM     21  C   UNL     1      -1.998  11.020  18.634  0.00  0.00    +0.000 C 
ATOM     22  C   UNL     1      -1.364  10.420  17.386  0.00  0.00    +0.000 C 
ATOM     23  C   UNL     1      -0.389   9.293  17.731  0.00  0.00    +0.000 C 
BRANCH  18  24
ATOM     24  O   UNL     1       1.490  10.741  18.069  0.00  0.00    +0.000 OA
BRANCH  24  25
ATOM     25  C   UNL     1       2.116  11.709  18.912  0.00  0.00    +0.000 C 
BRANCH  25  27
ATOM     26  C   UNL     1       1.426  14.096  18.625  0.00  0.00    +0.000 C 
ATOM     27  C   UNL     1       2.353  12.996  18.131  0.00  0.00    +0.000 C 
ENDBRANCH  25  27
ENDBRANCH  24  25
ENDBRANCH  18  24
ENDBRANCH   1  18
TORSDOF 5
ENDMDL
MODEL 8
REMARK VINA RESULT:      -7.1      2.439      3.703
REMARK  Name = 
REMARK  7 active torsions:
REMARK  status: ('A' for Active; 'I' for Inactive)
REMARK    1  A    between atoms: C_1  and  C_2
REMARK    2  A    between atoms: C_2  and  C_3
REMARK    3  A    between atoms: C_3  and  O_4
REMARK    4  A    between atoms: O_4  and  C_5
REMARK    5  A    between atoms: C_5  and  C_6
REMARK    6  A    between atoms: C_9  and  C_10
REMARK    7  A    between atoms: C_19  and  C_20
REMARK                            x       y       z     vdW  Elec       q    Type
REMARK                         _______ _______ _______ _____ _____    ______ ____
ROOT
ATOM      1  C   UNL     1       2.202   7.438  19.111  0.00  0.00    +0.000 A 
ATOM      2  N   UNL     1       1.800   7.984  20.270  0.00  0.00    +0.000 NA
ATOM      3  O   UNL     1       1.385   9.260  19.911  0.00  0.00    +0.000 OA
ATOM      4  C   UNL     1       1.633   9.388  18.578  0.00  0.00    +0.000 A 
ATOM      5  N   UNL     1       2.141   8.303  18.037  0.00  0.00    +0.000 NA
ENDROOT
BRANCH   4   6
ATOM      6  C   UNL     1       1.296  10.706  17.984  0.00  0.00    +0.000 C 
ATOM      7  C   UNL     1       2.509  11.653  18.112  0.00  0.00    +0.000 C 
ATOM      8  C   UNL     1       1.859  12.935  18.507  0.00  0.00    +0.000 A 
ATOM      9  C   UNL     1       2.470  14.177  18.618  0.00  0.00    +0.000 A 
ATOM     10  C   UNL     1       1.699  15.260  19.035  0.00  0.00    +0.000 A 
ATOM     11  C   UNL     1       0.343  15.083  19.345  0.00  0.00    +0.000 A 
ATOM     12  C   UNL     1      -0.255  13.823  19.244  0.00  0.00    +0.000 A 
ATOM     13  C   UNL     1       0.511  12.748  18.819  0.00  0.00    +0.000 A 
ATOM     14  N   UNL     1       0.135  11.393  18.623  0.00  0.00    +0.000 N 
ATOM     15  C   UNL     1      -1.162  10.929  18.755  0.00  0.00    +0.000 C 
ATOM     16  C   UNL     1      -1.448   9.473  18.471  0.00  0.00    +0.000 C 
ATOM     17  O   UNL     1      -2.114  11.623  19.126  0.00  0.00    +0.000 OA
ENDBRANCH   4   6
BRANCH   1  18
ATOM     18  C   UNL     1       2.641   5.989  18.985  0.00  0.00    +0.000 C 
ATOM     19  C   UNL     1       4.116   5.881  18.522  0.00  0.00    +0.000 C 
ATOM     20  C   UNL     1       4.543   4.431  18.280  0.00  0.00    +0.000 C 
ATOM     21  C   UNL     1       3.656   3.764  17.236  0.00  0.00    +0.000 C 
ATOM     22  C   UNL     1       2.186   3.848  17.620  0.00  0.00    +0.000 C 
ATOM     23  C   UNL     1       1.758   5.288  17.913  0.00  0.00    +0.000 C 
BRANCH  18  24
ATOM     24  O   UNL     1       2.423   5.236  20.215  0.00  0.00    +0.000 OA
BRANCH  24  25
ATOM     25  C   UNL     1       1.135   4.637  20.360  0.00  0.00    +0.000 C 
BRANCH  25  27
ATOM     26  C   UNL     1       2.722   2.887  21.183  0.00  0.00    +0.000 C 
ATOM     27  C   UNL     1       1.264   3.314  21.104  0.00  0.00    +0.000 C 
ENDBRANCH  25  27
ENDBRANCH  24  25
ENDBRANCH  18  24
ENDBRANCH   1  18
TORSDOF 5
ENDMDL
MODEL 9
REMARK VINA RESULT:      -7.1      1.945      8.019
REMARK  Name = 
REMARK  7 active torsions:
REMARK  status: ('A' for Active; 'I' for Inactive)
REMARK    1  A    between atoms: C_1  and  C_2
REMARK    2  A    between atoms: C_2  and  C_3
REMARK    3  A    between atoms: C_3  and  O_4
REMARK    4  A    between atoms: O_4  and  C_5
REMARK    5  A    between atoms: C_5  and  C_6
REMARK    6  A    between atoms: C_9  and  C_10
REMARK    7  A    between atoms: C_19  and  C_20
REMARK                            x       y       z     vdW  Elec       q    Type
REMARK                         _______ _______ _______ _____ _____    ______ ____
ROOT
ATOM      1  C   UNL     1       1.597   8.218  19.803  0.00  0.00    +0.000 A 
ATOM      2  N   UNL     1       1.264   7.370  20.789  0.00  0.00    +0.000 NA
ATOM      3  O   UNL     1       2.127   6.296  20.611  0.00  0.00    +0.000 OA
ATOM      4  C   UNL     1       2.861   6.570  19.496  0.00  0.00    +0.000 A 
ATOM      5  N   UNL     1       2.573   7.733  18.956  0.00  0.00    +0.000 NA
ENDROOT
BRANCH   4   6
ATOM      6  C   UNL     1       3.836   5.525  19.094  0.00  0.00    +0.000 C 
ATOM      7  C   UNL     1       5.196   6.183  18.779  0.00  0.00    +0.000 C 
ATOM      8  C   UNL     1       5.619   5.448  17.553  0.00  0.00    +0.000 A 
ATOM      9  C   UNL     1       6.850   5.535  16.915  0.00  0.00    +0.000 A 
ATOM     10  C   UNL     1       7.048   4.789  15.755  0.00  0.00    +0.000 A 
ATOM     11  C   UNL     1       6.018   3.985  15.248  0.00  0.00    +0.000 A 
ATOM     12  C   UNL     1       4.778   3.921  15.893  0.00  0.00    +0.000 A 
ATOM     13  C   UNL     1       4.585   4.656  17.052  0.00  0.00    +0.000 A 
ATOM     14  N   UNL     1       3.439   4.742  17.886  0.00  0.00    +0.000 N 
ATOM     15  C   UNL     1       2.293   3.989  17.698  0.00  0.00    +0.000 C 
ATOM     16  C   UNL     1       1.156   4.132  18.681  0.00  0.00    +0.000 C 
ATOM     17  O   UNL     1       2.117   3.218  16.749  0.00  0.00    +0.000 OA
ENDBRANCH   4   6
BRANCH   1  18
ATOM     18  C   UNL     1       0.989   9.604  19.662  0.00  0.00    +0.000 C 
ATOM     19  C   UNL     1       1.820  10.493  18.702  0.00  0.00    +0.000 C 
ATOM     20  C   UNL     1       1.289  11.926  18.633  0.00  0.00    +0.000 C 
ATOM     21  C   UNL     1       1.281  12.576  20.012  0.00  0.00    +0.000 C 
ATOM     22  C   UNL     1       0.494  11.743  21.014  0.00  0.00    +0.000 C 
ATOM     23  C   UNL     1       0.982  10.294  21.056  0.00  0.00    +0.000 C 
BRANCH  18  24
ATOM     24  O   UNL     1      -0.409   9.555  19.249  0.00  0.00    +0.000 OA
BRANCH  24  25
ATOM     25  C   UNL     1      -0.645   9.607  17.841  0.00  0.00    +0.000 C 
BRANCH  25  27
ATOM     26  C   UNL     1      -3.124   9.653  17.504  0.00  0.00    +0.000 C 
ATOM     27  C   UNL     1      -1.853  10.489  17.555  0.00  0.00    +0.000 C 
ENDBRANCH  25  27
ENDBRANCH  24  25
ENDBRANCH  18  24
ENDBRANCH   1  18
TORSDOF 5
ENDMDL
