MODEL 1
REMARK VINA RESULT:      -8.1      0.000      0.000
REMARK  Name = 
REMARK  5 active torsions:
REMARK  status: ('A' for Active; 'I' for Inactive)
REMARK    1  A    between atoms: C_1  and  C_2
REMARK    2  A    between atoms: C_2  and  C_3
REMARK    3  A    between atoms: C_2  and  C_4
REMARK    4  A    between atoms: C_9  and  C_11
REMARK    5  A    between atoms: C_11  and  N_12
REMARK                            x       y       z     vdW  Elec       q    Type
REMARK                         _______ _______ _______ _____ _____    ______ ____
ROOT
ATOM      1  C   UNL     1       1.283   9.787  18.722  0.00  0.00    +0.000 A 
ATOM      2  N   UNL     1       1.902   9.584  17.577  0.00  0.00    +0.000 NA
ATOM      3  N   UNL     1       2.543   8.359  17.546  0.00  0.00    +0.000 NA
ATOM      4  C   UNL     1       2.339   7.664  18.643  0.00  0.00    +0.000 A 
ATOM      5  N   UNL     1       2.889   6.423  18.854  0.00  0.00    +0.000 N 
ATOM      6  C   UNL     1       2.568   5.562  19.884  0.00  0.00    +0.000 C 
ATOM      7  O   UNL     1       1.745   5.763  20.772  0.00  0.00    +0.000 OA
ATOM      8  S   UNL     1       1.394   8.466  19.810  0.00  0.00    +0.000 S 
ATOM      9  H   UNL     1       3.567   6.152  18.152  0.00  0.00    +0.000 HD
ENDROOT
BRANCH   1  11
ATOM     10  C   UNL     1      -0.933  10.920  18.790  0.00  0.00    +0.000 C 
ATOM     11  C   UNL     1       0.554  11.039  19.120  0.00  0.00    +0.000 C 
ATOM     12  C   UNL     1       0.764  11.349  20.601  0.00  0.00    +0.000 C 
ENDBRANCH   1  11
BRANCH   6  13
ATOM     13  C   UNL     1       3.403   4.287  19.887  0.00  0.00    +0.000 C 
BRANCH  13  14
ATOM     14  N   UNL     1       4.255   4.287  18.720  0.00  0.00    +0.000 N 
ATOM     15  C   UNL     1       3.844   3.953  17.460  0.00  0.00    +0.000 C 
ATOM     16  O   UNL     1       2.756   3.565  17.081  0.00  0.00    +0.000 OA
ATOM     17  C   UNL     1       4.985   4.192  16.579  0.00  0.00    +0.000 A 
ATOM     18  C   UNL     1       5.086   4.102  15.204  0.00  0.00    +0.000 A 
ATOM     19  C   UNL     1       6.313   4.450  14.631  0.00  0.00    +0.000 A 
ATOM     20  C   UNL     1       7.397   4.860  15.434  0.00  0.00    +0.000 A 
ATOM     21  C   UNL     1       7.270   4.947  16.825  0.00  0.00    +0.000 A 
ATOM     22  C   UNL     1       6.043   4.617  17.366  0.00  0.00    +0.000 A 
ATOM     23  C   UNL     1       5.562   4.677  18.745  0.00  0.00    +0.000 C 
ATOM     24  O   UNL     1       6.220   5.025  19.710  0.00  0.00    +0.000 OA
ENDBRANCH  13  14
ENDBRANCH   6  13
TORSDOF 3
ENDMDL
MODEL 2
REMARK VINA RESULT:      -7.9      0.656      1.949
REMARK  Name = 
REMARK  5 active torsions:
REMARK  status: ('A' for Active; 'I' for Inactive)
REMARK    1  A    between atoms: C_1  and  C_2
REMARK    2  A    between atoms: C_2  and  C_3
REMARK    3  A    between atoms: C_2  and  C_4
REMARK    4  A    between atoms: C_9  and  C_11
REMARK    5  A    between atoms: C_11  and  N_12
REMARK                            x       y       z     vdW  Elec       q    Type
REMARK                         _______ _______ _______ _____ _____    ______ ____
ROOT
ATOM      1  C   UNL     1       1.086   9.446  19.748  0.00  0.00    +0.000 A 
ATOM      2  N   UNL     1       1.555   9.429  18.516  0.00  0.00    +0.000 NA
ATOM      3  N   UNL     1       2.215   8.247  18.231  0.00  0.00    +0.000 NA
ATOM      4  C   UNL     1       2.172   7.399  19.234  0.00  0.00    +0.000 A 
ATOM      5  N   UNL     1       2.773   6.165  19.195  0.00  0.00    +0.000 N 
ATOM      6  C   UNL     1       2.609   5.157  20.124  0.00  0.00    +0.000 C 
ATOM      7  O   UNL     1       1.905   5.199  21.129  0.00  0.00    +0.000 OA
ATOM      8  S   UNL     1       1.370   7.992  20.614  0.00  0.00    +0.000 S 
ATOM      9  H   UNL     1       3.360   6.022  18.381  0.00  0.00    +0.000 HD
ENDROOT
BRANCH   1  11
ATOM     10  C   UNL     1      -0.917  10.921  19.683  0.00  0.00    +0.000 C 
ATOM     11  C   UNL     1       0.388  10.600  20.410  0.00  0.00    +0.000 C 
ATOM     12  C   UNL     1       0.136  10.314  21.889  0.00  0.00    +0.000 C 
ENDBRANCH   1  11
BRANCH   6  13
ATOM     13  C   UNL     1       3.467   3.929  19.840  0.00  0.00    +0.000 C 
BRANCH  13  14
ATOM     14  N   UNL     1       4.282   4.191  18.676  0.00  0.00    +0.000 N 
ATOM     15  C   UNL     1       5.572   4.639  18.717  0.00  0.00    +0.000 C 
ATOM     16  O   UNL     1       6.255   4.937  19.678  0.00  0.00    +0.000 OA
ATOM     17  C   UNL     1       6.043   4.664  17.333  0.00  0.00    +0.000 A 
ATOM     18  C   UNL     1       7.293   4.950  16.821  0.00  0.00    +0.000 A 
ATOM     19  C   UNL     1       7.456   4.837  15.437  0.00  0.00    +0.000 A 
ATOM     20  C   UNL     1       6.378   4.459  14.610  0.00  0.00    +0.000 A 
ATOM     21  C   UNL     1       5.121   4.171  15.153  0.00  0.00    +0.000 A 
ATOM     22  C   UNL     1       4.990   4.271  16.524  0.00  0.00    +0.000 A 
ATOM     23  C   UNL     1       3.859   3.966  17.398  0.00  0.00    +0.000 C 
ATOM     24  O   UNL     1       2.765   3.575  17.030  0.00  0.00    +0.000 OA
ENDBRANCH  13  14
ENDBRANCH   6  13
TORSDOF 3
ENDMDL
MODEL 3
REMARK VINA RESULT:      -7.9      1.771      1.995
REMARK  Name = 
REMARK  5 active torsions:
REMARK  status: ('A' for Active; 'I' for Inactive)
REMARK    1  A    between atoms: C_1  and  C_2
REMARK    2  A    between atoms: C_2  and  C_3
REMARK    3  A    between atoms: C_2  and  C_4
REMARK    4  A    between atoms: C_9  and  C_11
REMARK    5  A    between atoms: C_11  and  N_12
REMARK                            x       y       z     vdW  Elec       q    Type
REMARK                         _______ _______ _______ _____ _____    ______ ____
ROOT
ATOM      1  C   UNL     1       0.466  10.528  20.796  0.00  0.00    +0.000 A 
ATOM      2  N   UNL     1       0.630  10.175  22.055  0.00  0.00    +0.000 NA
ATOM      3  N   UNL     1       1.189   8.915  22.170  0.00  0.00    +0.000 NA
ATOM      4  C   UNL     1       1.475   8.390  20.999  0.00  0.00    +0.000 A 
ATOM      5  N   UNL     1       2.021   7.139  20.855  0.00  0.00    +0.000 N 
ATOM      6  C   UNL     1       2.521   6.605  19.684  0.00  0.00    +0.000 C 
ATOM      7  O   UNL     1       2.559   7.158  18.589  0.00  0.00    +0.000 OA
ATOM      8  S   UNL     1       1.043   9.367  19.673  0.00  0.00    +0.000 S 
ATOM      9  H   UNL     1       2.059   6.608  21.717  0.00  0.00    +0.000 HD
ENDROOT
BRANCH   1  11
ATOM     10  C   UNL     1       0.844  12.687  19.616  0.00  0.00    +0.000 C 
ATOM     11  C   UNL     1      -0.182  11.795  20.313  0.00  0.00    +0.000 C 
ATOM     12  C   UNL     1      -1.361  11.492  19.391  0.00  0.00    +0.000 C 
ENDBRANCH   1  11
BRANCH   6  13
ATOM     13  C   UNL     1       2.995   5.163  19.831  0.00  0.00    +0.000 C 
BRANCH  13  14
ATOM     14  N   UNL     1       3.905   4.862  18.751  0.00  0.00    +0.000 N 
ATOM     15  C   UNL     1       3.529   4.354  17.539  0.00  0.00    +0.000 C 
ATOM     16  O   UNL     1       2.426   4.025  17.149  0.00  0.00    +0.000 OA
ATOM     17  C   UNL     1       4.739   4.306  16.720  0.00  0.00    +0.000 A 
ATOM     18  C   UNL     1       4.906   3.960  15.394  0.00  0.00    +0.000 A 
ATOM     19  C   UNL     1       6.196   4.065  14.865  0.00  0.00    +0.000 A 
ATOM     20  C   UNL     1       7.274   4.493  15.667  0.00  0.00    +0.000 A 
ATOM     21  C   UNL     1       7.080   4.841  17.008  0.00  0.00    +0.000 A 
ATOM     22  C   UNL     1       5.794   4.748  17.502  0.00  0.00    +0.000 A 
ATOM     23  C   UNL     1       5.246   5.106  18.809  0.00  0.00    +0.000 C 
ATOM     24  O   UNL     1       5.886   5.548  19.747  0.00  0.00    +0.000 OA
ENDBRANCH  13  14
ENDBRANCH   6  13
TORSDOF 3
ENDMDL
MODEL 4
REMARK VINA RESULT:      -7.7      3.551      7.440
REMARK  Name = 
REMARK  5 active torsions:
REMARK  status: ('A' for Active; 'I' for Inactive)
REMARK    1  A    between atoms: C_1  and  C_2
REMARK    2  A    between atoms: C_2  and  C_3
REMARK    3  A    between atoms: C_2  and  C_4
REMARK    4  A    between atoms: C_9  and  C_11
REMARK    5  A    between atoms: C_11  and  N_12
REMARK                            x       y       z     vdW  Elec       q    Type
REMARK                         _______ _______ _______ _____ _____    ______ ____
ROOT
ATOM      1  C   UNL     1       6.725   3.899  12.433  0.00  0.00    +0.000 A 
ATOM      2  N   UNL     1       7.735   4.723  12.626  0.00  0.00    +0.000 NA
ATOM      3  N   UNL     1       7.619   5.412  13.820  0.00  0.00    +0.000 NA
ATOM      4  C   UNL     1       6.559   5.044  14.504  0.00  0.00    +0.000 A 
ATOM      5  N   UNL     1       6.221   5.600  15.714  0.00  0.00    +0.000 N 
ATOM      6  C   UNL     1       5.244   5.137  16.571  0.00  0.00    +0.000 C 
ATOM      7  O   UNL     1       4.523   4.159  16.394  0.00  0.00    +0.000 OA
ATOM      8  S   UNL     1       5.601   3.870  13.728  0.00  0.00    +0.000 S 
ATOM      9  H   UNL     1       6.783   6.406  15.964  0.00  0.00    +0.000 HD
ENDROOT
BRANCH   1  11
ATOM     10  C   UNL     1       7.513   1.917  11.149  0.00  0.00    +0.000 C 
ATOM     11  C   UNL     1       6.497   3.056  11.210  0.00  0.00    +0.000 C 
ATOM     12  C   UNL     1       5.067   2.519  11.173  0.00  0.00    +0.000 C 
ENDBRANCH   1  11
BRANCH   6  13
ATOM     13  C   UNL     1       5.058   6.013  17.805  0.00  0.00    +0.000 C 
BRANCH  13  14
ATOM     14  N   UNL     1       4.197   5.323  18.738  0.00  0.00    +0.000 N 
ATOM     15  C   UNL     1       2.888   5.641  18.966  0.00  0.00    +0.000 C 
ATOM     16  O   UNL     1       2.220   6.543  18.499  0.00  0.00    +0.000 OA
ATOM     17  C   UNL     1       2.375   4.632  19.892  0.00  0.00    +0.000 A 
ATOM     18  C   UNL     1       1.098   4.434  20.378  0.00  0.00    +0.000 A 
ATOM     19  C   UNL     1       0.899   3.336  21.220  0.00  0.00    +0.000 A 
ATOM     20  C   UNL     1       1.970   2.483  21.561  0.00  0.00    +0.000 A 
ATOM     21  C   UNL     1       3.255   2.702  21.053  0.00  0.00    +0.000 A 
ATOM     22  C   UNL     1       3.421   3.782  20.209  0.00  0.00    +0.000 A 
ATOM     23  C   UNL     1       4.592   4.233  19.458  0.00  0.00    +0.000 C 
ATOM     24  O   UNL     1       5.692   3.711  19.481  0.00  0.00    +0.000 OA
ENDBRANCH  13  14
ENDBRANCH   6  13
TORSDOF 3
ENDMDL
MODEL 5
REMARK VINA RESULT:      -7.6      3.871      8.047
REMARK  Name = 
REMARK  5 active torsions:
REMARK  status: ('A' for Active; 'I' for Inactive)
REMARK    1  A    between atoms: C_1  and  C_2
REMARK    2  A    between atoms: C_2  and  C_3
REMARK    3  A    between atoms: C_2  and  C_4
REMARK    4  A    between atoms: C_9  and  C_11
REMARK    5  A    between atoms: C_11  and  N_12
REMARK                            x       y       z     vdW  Elec       q    Type
REMARK                         _______ _______ _______ _____ _____    ______ ____
ROOT
ATOM      1  C   UNL     1       2.335   4.403  19.939  0.00  0.00    +0.000 A 
ATOM      2  N   UNL     1       3.381   4.883  19.298  0.00  0.00    +0.000 NA
ATOM      3  N   UNL     1       3.344   6.264  19.209  0.00  0.00    +0.000 NA
ATOM      4  C   UNL     1       2.304   6.774  19.830  0.00  0.00    +0.000 A 
ATOM      5  N   UNL     1       2.042   8.121  19.864  0.00  0.00    +0.000 N 
ATOM      6  C   UNL     1       1.089   8.739  20.648  0.00  0.00    +0.000 C 
ATOM      7  O   UNL     1       0.326   8.189  21.438  0.00  0.00    +0.000 OA
ATOM      8  S   UNL     1       1.270   5.614  20.526  0.00  0.00    +0.000 S 
ATOM      9  H   UNL     1       2.643   8.670  19.260  0.00  0.00    +0.000 HD
ENDROOT
BRANCH   1  11
ATOM     10  C   UNL     1       1.696   2.680  21.617  0.00  0.00    +0.000 C 
ATOM     11  C   UNL     1       2.020   2.949  20.148  0.00  0.00    +0.000 C 
ATOM     12  C   UNL     1       0.875   2.499  19.242  0.00  0.00    +0.000 C 
ENDBRANCH   1  11
BRANCH   6  13
ATOM     13  C   UNL     1       0.991  10.242  20.409  0.00  0.00    +0.000 C 
BRANCH  13  14
ATOM     14  N   UNL     1      -0.124  10.499  19.527  0.00  0.00    +0.000 N 
ATOM     15  C   UNL     1      -0.230  10.021  18.251  0.00  0.00    +0.000 C 
ATOM     16  O   UNL     1       0.559   9.357  17.608  0.00  0.00    +0.000 OA
ATOM     17  C   UNL     1      -1.549  10.428  17.768  0.00  0.00    +0.000 A 
ATOM     18  C   UNL     1      -2.195  10.134  16.584  0.00  0.00    +0.000 A 
ATOM     19  C   UNL     1      -3.493  10.630  16.425  0.00  0.00    +0.000 A 
ATOM     20  C   UNL     1      -4.098  11.408  17.434  0.00  0.00    +0.000 A 
ATOM     21  C   UNL     1      -3.424  11.690  18.627  0.00  0.00    +0.000 A 
ATOM     22  C   UNL     1      -2.151  11.172  18.768  0.00  0.00    +0.000 A 
ATOM     23  C   UNL     1      -1.226  11.212  19.900  0.00  0.00    +0.000 C 
ATOM     24  O   UNL     1      -1.432  11.769  20.963  0.00  0.00    +0.000 OA
ENDBRANCH  13  14
ENDBRANCH   6  13
TORSDOF 3
ENDMDL
MODEL 6
REMARK VINA RESULT:      -7.5      3.722      8.055
REMARK  Name = 
REMARK  5 active torsions:
REMARK  status: ('A' for Active; 'I' for Inactive)
REMARK    1  A    between atoms: C_1  and  C_2
REMARK    2  A    between atoms: C_2  and  C_3
REMARK    3  A    between atoms: C_2  and  C_4
REMARK    4  A    between atoms: C_9  and  C_11
REMARK    5  A    between atoms: C_11  and  N_12
REMARK                            x       y       z     vdW  Elec       q    Type
REMARK                         _______ _______ _______ _____ _____    ______ ____
ROOT
ATOM      1  C   UNL     1       2.613   4.242  19.923  0.00  0.00    +0.000 A 
ATOM      2  N   UNL     1       3.616   4.704  19.204  0.00  0.00    +0.000 NA
ATOM      3  N   UNL     1       3.535   6.073  19.025  0.00  0.00    +0.000 NA
ATOM      4  C   UNL     1       2.509   6.598  19.658  0.00  0.00    +0.000 A 
ATOM      5  N   UNL     1       2.211   7.937  19.614  0.00  0.00    +0.000 N 
ATOM      6  C   UNL     1       1.276   8.582  20.398  0.00  0.00    +0.000 C 
ATOM      7  O   UNL     1       0.565   8.069  21.257  0.00  0.00    +0.000 OA
ATOM      8  S   UNL     1       1.541   5.462  20.477  0.00  0.00    +0.000 S 
ATOM      9  H   UNL     1       2.769   8.459  18.948  0.00  0.00    +0.000 HD
ENDROOT
BRANCH   1  11
ATOM     10  C   UNL     1       1.726   2.665  21.632  0.00  0.00    +0.000 C 
ATOM     11  C   UNL     1       2.349   2.798  20.244  0.00  0.00    +0.000 C 
ATOM     12  C   UNL     1       1.463   2.152  19.181  0.00  0.00    +0.000 C 
ENDBRANCH   1  11
BRANCH   6  13
ATOM     13  C   UNL     1       1.124  10.062  20.064  0.00  0.00    +0.000 C 
BRANCH  13  14
ATOM     14  N   UNL     1      -0.095  10.245  19.310  0.00  0.00    +0.000 N 
ATOM     15  C   UNL     1      -1.184  10.939  19.755  0.00  0.00    +0.000 C 
ATOM     16  O   UNL     1      -1.369  11.481  20.827  0.00  0.00    +0.000 OA
ATOM     17  C   UNL     1      -2.137  10.964  18.646  0.00  0.00    +0.000 A 
ATOM     18  C   UNL     1      -3.355  11.604  18.529  0.00  0.00    +0.000 A 
ATOM     19  C   UNL     1      -4.024  11.484  17.307  0.00  0.00    +0.000 A 
ATOM     20  C   UNL     1      -3.473  10.727  16.252  0.00  0.00    +0.000 A 
ATOM     21  C   UNL     1      -2.235  10.090  16.393  0.00  0.00    +0.000 A 
ATOM     22  C   UNL     1      -1.585  10.239  17.602  0.00  0.00    +0.000 A 
ATOM     23  C   UNL     1      -0.267   9.781  18.038  0.00  0.00    +0.000 C 
ATOM     24  O   UNL     1       0.511   9.124  17.370  0.00  0.00    +0.000 OA
ENDBRANCH  13  14
ENDBRANCH   6  13
TORSDOF 3
ENDMDL
MODEL 7
REMARK VINA RESULT:      -7.4      3.825      6.240
REMARK  Name = 
REMARK  5 active torsions:
REMARK  status: ('A' for Active; 'I' for Inactive)
REMARK    1  A    between atoms: C_1  and  C_2
REMARK    2  A    between atoms: C_2  and  C_3
REMARK    3  A    between atoms: C_2  and  C_4
REMARK    4  A    between atoms: C_9  and  C_11
REMARK    5  A    between atoms: C_11  and  N_12
REMARK                            x       y       z     vdW  Elec       q    Type
REMARK                         _______ _______ _______ _____ _____    ______ ____
ROOT
ATOM      1  C   UNL     1      -4.559  11.486  17.366  0.00  0.00    +0.000 A 
ATOM      2  N   UNL     1      -4.007  11.009  16.268  0.00  0.00    +0.000 NA
ATOM      3  N   UNL     1      -2.648  10.801  16.422  0.00  0.00    +0.000 NA
ATOM      4  C   UNL     1      -2.238  11.076  17.640  0.00  0.00    +0.000 A 
ATOM      5  N   UNL     1      -0.926  10.964  18.029  0.00  0.00    +0.000 N 
ATOM      6  C   UNL     1      -0.457  11.048  19.325  0.00  0.00    +0.000 C 
ATOM      7  O   UNL     1      -1.132  11.234  20.333  0.00  0.00    +0.000 OA
ATOM      8  S   UNL     1      -3.462  11.652  18.674  0.00  0.00    +0.000 S 
ATOM      9  H   UNL     1      -0.287  10.781  17.264  0.00  0.00    +0.000 HD
ENDROOT
BRANCH   1  11
ATOM     10  C   UNL     1      -6.771  10.835  18.303  0.00  0.00    +0.000 C 
ATOM     11  C   UNL     1      -5.996  11.896  17.524  0.00  0.00    +0.000 C 
ATOM     12  C   UNL     1      -6.106  13.262  18.198  0.00  0.00    +0.000 C 
ENDBRANCH   1  11
BRANCH   6  13
ATOM     13  C   UNL     1       1.061  10.954  19.425  0.00  0.00    +0.000 C 
BRANCH  13  14
ATOM     14  N   UNL     1       1.440   9.560  19.436  0.00  0.00    +0.000 N 
ATOM     15  C   UNL     1       1.321   8.733  20.517  0.00  0.00    +0.000 C 
ATOM     16  O   UNL     1       0.938   8.984  21.643  0.00  0.00    +0.000 OA
ATOM     17  C   UNL     1       1.715   7.401  20.060  0.00  0.00    +0.000 A 
ATOM     18  C   UNL     1       1.695   6.188  20.721  0.00  0.00    +0.000 A 
ATOM     19  C   UNL     1       2.086   5.060  19.995  0.00  0.00    +0.000 A 
ATOM     20  C   UNL     1       2.496   5.171  18.650  0.00  0.00    +0.000 A 
ATOM     21  C   UNL     1       2.505   6.410  18.000  0.00  0.00    +0.000 A 
ATOM     22  C   UNL     1       2.095   7.507  18.733  0.00  0.00    +0.000 A 
ATOM     23  C   UNL     1       1.913   8.903  18.338  0.00  0.00    +0.000 C 
ATOM     24  O   UNL     1       2.136   9.360  17.231  0.00  0.00    +0.000 OA
ENDBRANCH  13  14
ENDBRANCH   6  13
TORSDOF 3
ENDMDL
MODEL 8
REMARK VINA RESULT:      -7.4      5.129      6.301
REMARK  Name = 
REMARK  5 active torsions:
REMARK  status: ('A' for Active; 'I' for Inactive)
REMARK    1  A    between atoms: C_1  and  C_2
REMARK    2  A    between atoms: C_2  and  C_3
REMARK    3  A    between atoms: C_2  and  C_4
REMARK    4  A    between atoms: C_9  and  C_11
REMARK    5  A    between atoms: C_11  and  N_12
REMARK                            x       y       z     vdW  Elec       q    Type
REMARK                         _______ _______ _______ _____ _____    ______ ____
ROOT
ATOM      1  C   UNL     1       9.550  11.685  19.332  0.00  0.00    +0.000 A 
ATOM      2  N   UNL     1       8.845  12.261  18.379  0.00  0.00    +0.000 NA
ATOM      3  N   UNL     1       8.191  11.333  17.588  0.00  0.00    +0.000 NA
ATOM      4  C   UNL     1       8.383  10.102  18.004  0.00  0.00    +0.000 A 
ATOM      5  N   UNL     1       7.851   9.007  17.368  0.00  0.00    +0.000 N 
ATOM      6  C   UNL     1       7.849   7.714  17.851  0.00  0.00    +0.000 C 
ATOM      7  O   UNL     1       8.319   7.334  18.920  0.00  0.00    +0.000 OA
ATOM      8  S   UNL     1       9.409   9.975  19.357  0.00  0.00    +0.000 S 
ATOM      9  H   UNL     1       7.411   9.223  16.481  0.00  0.00    +0.000 HD
ENDROOT
BRANCH   1  11
ATOM     10  C   UNL     1      10.928  13.716  19.743  0.00  0.00    +0.000 C 
ATOM     11  C   UNL     1      10.439  12.387  20.318  0.00  0.00    +0.000 C 
ATOM     12  C   UNL     1       9.724  12.597  21.651  0.00  0.00    +0.000 C 
ENDBRANCH   1  11
BRANCH   6  13
ATOM     13  C   UNL     1       7.244   6.707  16.879  0.00  0.00    +0.000 C 
BRANCH  13  14
ATOM     14  N   UNL     1       6.135   6.045  17.527  0.00  0.00    +0.000 N 
ATOM     15  C   UNL     1       4.835   6.458  17.452  0.00  0.00    +0.000 C 
ATOM     16  O   UNL     1       4.366   7.433  16.899  0.00  0.00    +0.000 OA
ATOM     17  C   UNL     1       4.043   5.451  18.157  0.00  0.00    +0.000 A 
ATOM     18  C   UNL     1       2.675   5.335  18.305  0.00  0.00    +0.000 A 
ATOM     19  C   UNL     1       2.201   4.217  18.997  0.00  0.00    +0.000 A 
ATOM     20  C   UNL     1       3.094   3.264  19.530  0.00  0.00    +0.000 A 
ATOM     21  C   UNL     1       4.477   3.401  19.364  0.00  0.00    +0.000 A 
ATOM     22  C   UNL     1       4.919   4.504  18.660  0.00  0.00    +0.000 A 
ATOM     23  C   UNL     1       6.266   4.893  18.247  0.00  0.00    +0.000 C 
ATOM     24  O   UNL     1       7.289   4.282  18.501  0.00  0.00    +0.000 OA
ENDBRANCH  13  14
ENDBRANCH   6  13
TORSDOF 3
ENDMDL
MODEL 9
REMARK VINA RESULT:      -7.3      3.797      6.244
REMARK  Name = 
REMARK  5 active torsions:
REMARK  status: ('A' for Active; 'I' for Inactive)
REMARK    1  A    between atoms: C_1  and  C_2
REMARK    2  A    between atoms: C_2  and  C_3
REMARK    3  A    between atoms: C_2  and  C_4
REMARK    4  A    between atoms: C_9  and  C_11
REMARK    5  A    between atoms: C_11  and  N_12
REMARK                            x       y       z     vdW  Elec       q    Type
REMARK                         _______ _______ _______ _____ _____    ______ ____
ROOT
ATOM      1  C   UNL     1      -4.723  11.529  17.269  0.00  0.00    +0.000 A 
ATOM      2  N   UNL     1      -4.132  11.166  16.148  0.00  0.00    +0.000 NA
ATOM      3  N   UNL     1      -2.770  10.987  16.316  0.00  0.00    +0.000 NA
ATOM      4  C   UNL     1      -2.396  11.168  17.563  0.00  0.00    +0.000 A 
ATOM      5  N   UNL     1      -1.089  11.063  17.973  0.00  0.00    +0.000 N 
ATOM      6  C   UNL     1      -0.652  11.049  19.282  0.00  0.00    +0.000 C 
ATOM      7  O   UNL     1      -1.354  11.127  20.286  0.00  0.00    +0.000 OA
ATOM      8  S   UNL     1      -3.660  11.614  18.613  0.00  0.00    +0.000 S 
ATOM      9  H   UNL     1      -0.428  10.967  17.210  0.00  0.00    +0.000 HD
ENDROOT
BRANCH   1  11
ATOM     10  C   UNL     1      -6.645  11.581  18.849  0.00  0.00    +0.000 C 
ATOM     11  C   UNL     1      -6.175  11.879  17.426  0.00  0.00    +0.000 C 
ATOM     12  C   UNL     1      -6.431  13.340  17.059  0.00  0.00    +0.000 C 
ENDBRANCH   1  11
BRANCH   6  13
ATOM     13  C   UNL     1       0.866  10.994  19.411  0.00  0.00    +0.000 C 
BRANCH  13  14
ATOM     14  N   UNL     1       1.285   9.612  19.370  0.00  0.00    +0.000 N 
ATOM     15  C   UNL     1       1.885   9.015  18.297  0.00  0.00    +0.000 C 
ATOM     16  O   UNL     1       2.140   9.474  17.201  0.00  0.00    +0.000 OA
ATOM     17  C   UNL     1       2.232   7.659  18.722  0.00  0.00    +0.000 A 
ATOM     18  C   UNL     1       2.929   6.668  18.060  0.00  0.00    +0.000 A 
ATOM     19  C   UNL     1       3.154   5.475  18.754  0.00  0.00    +0.000 A 
ATOM     20  C   UNL     1       2.672   5.301  20.069  0.00  0.00    +0.000 A 
ATOM     21  C   UNL     1       1.972   6.322  20.720  0.00  0.00    +0.000 A 
ATOM     22  C   UNL     1       1.779   7.497  20.020  0.00  0.00    +0.000 A 
ATOM     23  C   UNL     1       1.171   8.762  20.431  0.00  0.00    +0.000 C 
ATOM     24  O   UNL     1       0.677   8.989  21.521  0.00  0.00    +0.000 OA
ENDBRANCH  13  14
ENDBRANCH   6  13
TORSDOF 3
ENDMDL
