MODEL 1
REMARK VINA RESULT:      -8.2      0.000      0.000
REMARK  Name = 
REMARK  13 active torsions:
REMARK  status: ('A' for Active; 'I' for Inactive)
REMARK    1  A    between atoms: C_1  and  C_2
REMARK    2  A    between atoms: C_5  and  C_6
REMARK    3  A    between atoms: C_6  and  C_7
REMARK    4  A    between atoms: C_6  and  C_8
REMARK    5  A    between atoms: C_6  and  C_9
REMARK    6  A    between atoms: C_9  and  C_10
REMARK    7  A    between atoms: C_10  and  O_11
REMARK    8  A    between atoms: C_10  and  C_12
REMARK    9  A    between atoms: C_10  and  C_26
REMARK   10  A    between atoms: C_12  and  C_13
REMARK   11  A    between atoms: C_17  and  S_18
REMARK   12  A    between atoms: S_18  and  C_19
REMARK   13  A    between atoms: C_30  and  C_31
REMARK                            x       y       z     vdW  Elec       q    Type
REMARK                         _______ _______ _______ _____ _____    ______ ____
ROOT
ATOM      1  C   UNL     1       4.312   4.628  18.522  0.00  0.00    +0.000 C 
ENDROOT
BRANCH   1   2
ATOM      2  C   UNL     1       4.047   3.240  19.204  0.00  0.00    +0.000 C 
ATOM      3  F   UNL     1       2.913   3.202  19.925  0.00  0.00    +0.000 F 
ATOM      4  F   UNL     1       3.976   2.243  18.292  0.00  0.00    +0.000 F 
ATOM      5  F   UNL     1       5.036   2.898  20.069  0.00  0.00    +0.000 F 
ENDBRANCH   1   2
BRANCH   1   6
ATOM      6  O   UNL     1       4.834   5.587  19.463  0.00  0.00    +0.000 OA
ATOM      7  H   UNL     1       5.636   5.986  19.079  0.00  0.00    +0.000 HD
ENDBRANCH   1   6
BRANCH   1   8
ATOM      8  C   UNL     1       5.316   4.482  17.330  0.00  0.00    +0.000 C 
BRANCH   8   9
ATOM      9  C   UNL     1       6.062   5.728  16.638  0.00  0.00    +0.000 C 
ATOM     10  C   UNL     1       5.015   6.338  15.647  0.00  0.00    +0.000 C 
ATOM     11  C   UNL     1       7.169   5.122  15.705  0.00  0.00    +0.000 C 
BRANCH   9  16
ATOM     12  C   UNL     1       9.318  10.224  18.734  0.00  0.00    +0.000 C 
ATOM     13  C   UNL     1       8.422   9.090  18.326  0.00  0.00    +0.000 A 
ATOM     14  C   UNL     1       7.391   9.287  17.425  0.00  0.00    +0.000 A 
ATOM     15  C   UNL     1       6.582   8.217  17.030  0.00  0.00    +0.000 A 
ATOM     16  C   UNL     1       6.791   6.873  17.450  0.00  0.00    +0.000 A 
ATOM     17  C   UNL     1       7.810   6.701  18.444  0.00  0.00    +0.000 A 
ATOM     18  C   UNL     1       8.597   7.810  18.859  0.00  0.00    +0.000 A 
BRANCH  17  19
ATOM     19  C   UNL     1       8.107   5.380  19.110  0.00  0.00    +0.000 C 
ATOM     20  N   UNL     1       8.083   5.287  20.475  0.00  0.00    +0.000 N 
ATOM     21  O   UNL     1       8.395   4.377  18.481  0.00  0.00    +0.000 OA
ATOM     22  H   UNL     1       7.596   5.917  21.091  0.00  0.00    +0.000 HD
ATOM     23  H   UNL     1       8.305   4.372  20.855  0.00  0.00    +0.000 HD
ENDBRANCH  17  19
ENDBRANCH   9  16
ENDBRANCH   8   9
ENDBRANCH   1   8
BRANCH   1  24
ATOM     24  C   UNL     1       2.880   5.154  18.083  0.00  0.00    +0.000 C 
BRANCH  24  25
ATOM     25  C   UNL     1       2.479   6.554  18.496  0.00  0.00    +0.000 A 
ATOM     26  C   UNL     1       2.373   7.756  17.811  0.00  0.00    +0.000 A 
ATOM     27  C   UNL     1       1.866   8.744  18.726  0.00  0.00    +0.000 A 
ATOM     28  C   UNL     1       1.503  10.098  18.645  0.00  0.00    +0.000 A 
ATOM     29  C   UNL     1       0.952  10.625  19.814  0.00  0.00    +0.000 A 
ATOM     30  N   UNL     1       0.732   9.953  20.974  0.00  0.00    +0.000 NA
ATOM     31  C   UNL     1       1.142   8.680  21.058  0.00  0.00    +0.000 A 
ATOM     32  C   UNL     1       1.735   8.093  19.952  0.00  0.00    +0.000 A 
ATOM     33  N   UNL     1       2.316   6.856  19.821  0.00  0.00    +0.000 N 
ATOM     34  H   UNL     1       2.542   6.248  20.598  0.00  0.00    +0.000 HD
BRANCH  29  35
ATOM     35  S   UNL     1       0.530  12.350  19.929  0.00  0.00    +0.000 S 
ATOM     36  C   UNL     1       2.058  13.158  20.354  0.00  0.00    +0.000 C 
ATOM     37  O   UNL     1       0.136  12.789  18.615  0.00  0.00    +0.000 OA
ATOM     38  O   UNL     1      -0.373  12.494  21.064  0.00  0.00    +0.000 OA
ENDBRANCH  29  35
ENDBRANCH  24  25
ENDBRANCH   1  24
TORSDOF 9
ENDMDL
MODEL 2
REMARK VINA RESULT:      -7.8      0.886      1.197
REMARK  Name = 
REMARK  13 active torsions:
REMARK  status: ('A' for Active; 'I' for Inactive)
REMARK    1  A    between atoms: C_1  and  C_2
REMARK    2  A    between atoms: C_5  and  C_6
REMARK    3  A    between atoms: C_6  and  C_7
REMARK    4  A    between atoms: C_6  and  C_8
REMARK    5  A    between atoms: C_6  and  C_9
REMARK    6  A    between atoms: C_9  and  C_10
REMARK    7  A    between atoms: C_10  and  O_11
REMARK    8  A    between atoms: C_10  and  C_12
REMARK    9  A    between atoms: C_10  and  C_26
REMARK   10  A    between atoms: C_12  and  C_13
REMARK   11  A    between atoms: C_17  and  S_18
REMARK   12  A    between atoms: S_18  and  C_19
REMARK   13  A    between atoms: C_30  and  C_31
REMARK                            x       y       z     vdW  Elec       q    Type
REMARK                         _______ _______ _______ _____ _____    ______ ____
ROOT
ATOM      1  C   UNL     1       4.239   4.525  18.830  0.00  0.00    +0.000 C 
ENDROOT
BRANCH   1   2
ATOM      2  C   UNL     1       3.908   3.149  19.509  0.00  0.00    +0.000 C 
ATOM      3  F   UNL     1       3.417   2.233  18.656  0.00  0.00    +0.000 F 
ATOM      4  F   UNL     1       5.001   2.608  20.095  0.00  0.00    +0.000 F 
ATOM      5  F   UNL     1       2.972   3.273  20.484  0.00  0.00    +0.000 F 
ENDBRANCH   1   2
BRANCH   1   6
ATOM      6  O   UNL     1       4.755   5.473  19.785  0.00  0.00    +0.000 OA
ATOM      7  H   UNL     1       4.319   6.331  19.630  0.00  0.00    +0.000 HD
ENDBRANCH   1   6
BRANCH   1   8
ATOM      8  C   UNL     1       5.281   4.342  17.676  0.00  0.00    +0.000 C 
BRANCH   8   9
ATOM      9  C   UNL     1       5.973   5.570  16.902  0.00  0.00    +0.000 C 
ATOM     10  C   UNL     1       4.868   6.133  15.947  0.00  0.00    +0.000 C 
ATOM     11  C   UNL     1       7.036   4.942  15.932  0.00  0.00    +0.000 C 
BRANCH   9  16
ATOM     12  C   UNL     1       9.337  10.124  18.678  0.00  0.00    +0.000 C 
ATOM     13  C   UNL     1       8.414   8.986  18.350  0.00  0.00    +0.000 A 
ATOM     14  C   UNL     1       7.384   9.144  17.441  0.00  0.00    +0.000 A 
ATOM     15  C   UNL     1       6.550   8.068  17.121  0.00  0.00    +0.000 A 
ATOM     16  C   UNL     1       6.731   6.751  17.632  0.00  0.00    +0.000 A 
ATOM     17  C   UNL     1       7.749   6.624  18.632  0.00  0.00    +0.000 A 
ATOM     18  C   UNL     1       8.562   7.742  18.970  0.00  0.00    +0.000 A 
BRANCH  17  19
ATOM     19  C   UNL     1       8.019   5.346  19.387  0.00  0.00    +0.000 C 
ATOM     20  N   UNL     1       8.694   4.325  18.774  0.00  0.00    +0.000 N 
ATOM     21  O   UNL     1       7.639   5.164  20.530  0.00  0.00    +0.000 OA
ATOM     22  H   UNL     1       9.301   4.427  17.978  0.00  0.00    +0.000 HD
ATOM     23  H   UNL     1       8.829   3.490  19.336  0.00  0.00    +0.000 HD
ENDBRANCH  17  19
ENDBRANCH   9  16
ENDBRANCH   8   9
ENDBRANCH   1   8
BRANCH   1  24
ATOM     24  C   UNL     1       2.841   5.091  18.337  0.00  0.00    +0.000 C 
BRANCH  24  25
ATOM     25  C   UNL     1       2.431   6.475  18.794  0.00  0.00    +0.000 A 
ATOM     26  C   UNL     1       2.320   7.697  18.146  0.00  0.00    +0.000 A 
ATOM     27  C   UNL     1       1.808   8.653  19.091  0.00  0.00    +0.000 A 
ATOM     28  C   UNL     1       1.438  10.008  19.052  0.00  0.00    +0.000 A 
ATOM     29  C   UNL     1       0.884  10.495  20.236  0.00  0.00    +0.000 A 
ATOM     30  N   UNL     1       0.666   9.787  21.375  0.00  0.00    +0.000 NA
ATOM     31  C   UNL     1       1.083   8.514  21.420  0.00  0.00    +0.000 A 
ATOM     32  C   UNL     1       1.679   7.964  20.296  0.00  0.00    +0.000 A 
ATOM     33  N   UNL     1       2.266   6.735  20.128  0.00  0.00    +0.000 N 
ATOM     34  H   UNL     1       2.495   6.104  20.886  0.00  0.00    +0.000 HD
BRANCH  29  35
ATOM     35  S   UNL     1       0.453  12.214  20.404  0.00  0.00    +0.000 S 
ATOM     36  C   UNL     1      -0.712  12.514  19.092  0.00  0.00    +0.000 C 
ATOM     37  O   UNL     1      -0.232  12.368  21.661  0.00  0.00    +0.000 OA
ATOM     38  O   UNL     1       1.653  12.986  20.110  0.00  0.00    +0.000 OA
ENDBRANCH  29  35
ENDBRANCH  24  25
ENDBRANCH   1  24
TORSDOF 9
ENDMDL
MODEL 3
REMARK VINA RESULT:      -7.7      4.654      9.265
REMARK  Name = 
REMARK  13 active torsions:
REMARK  status: ('A' for Active; 'I' for Inactive)
REMARK    1  A    between atoms: C_1  and  C_2
REMARK    2  A    between atoms: C_5  and  C_6
REMARK    3  A    between atoms: C_6  and  C_7
REMARK    4  A    between atoms: C_6  and  C_8
REMARK    5  A    between atoms: C_6  and  C_9
REMARK    6  A    between atoms: C_9  and  C_10
REMARK    7  A    between atoms: C_10  and  O_11
REMARK    8  A    between atoms: C_10  and  C_12
REMARK    9  A    between atoms: C_10  and  C_26
REMARK   10  A    between atoms: C_12  and  C_13
REMARK   11  A    between atoms: C_17  and  S_18
REMARK   12  A    between atoms: S_18  and  C_19
REMARK   13  A    between atoms: C_30  and  C_31
REMARK                            x       y       z     vdW  Elec       q    Type
REMARK                         _______ _______ _______ _____ _____    ______ ____
ROOT
ATOM      1  C   UNL     1      -0.104  10.349  21.584  0.00  0.00    +0.000 C 
ENDROOT
BRANCH   1   2
ATOM      2  C   UNL     1      -0.543   9.612  22.898  0.00  0.00    +0.000 C 
ATOM      3  F   UNL     1       0.473   9.368  23.744  0.00  0.00    +0.000 F 
ATOM      4  F   UNL     1      -1.472  10.320  23.580  0.00  0.00    +0.000 F 
ATOM      5  F   UNL     1      -1.097   8.399  22.642  0.00  0.00    +0.000 F 
ENDBRANCH   1   2
BRANCH   1   6
ATOM      6  O   UNL     1      -0.842   9.874  20.441  0.00  0.00    +0.000 OA
ATOM      7  H   UNL     1      -1.793   9.945  20.640  0.00  0.00    +0.000 HD
ENDBRANCH   1   6
BRANCH   1   8
ATOM      8  C   UNL     1      -0.306  11.896  21.718  0.00  0.00    +0.000 C 
BRANCH   8   9
ATOM      9  C   UNL     1      -1.565  12.684  21.100  0.00  0.00    +0.000 C 
ATOM     10  C   UNL     1      -1.248  14.202  21.314  0.00  0.00    +0.000 C 
ATOM     11  C   UNL     1      -2.778  12.404  22.056  0.00  0.00    +0.000 C 
BRANCH   9  16
ATOM     12  C   UNL     1      -3.921  10.743  16.011  0.00  0.00    +0.000 C 
ATOM     13  C   UNL     1      -3.321  11.364  17.240  0.00  0.00    +0.000 A 
ATOM     14  C   UNL     1      -4.095  11.623  18.356  0.00  0.00    +0.000 A 
ATOM     15  C   UNL     1      -3.518  12.173  19.505  0.00  0.00    +0.000 A 
ATOM     16  C   UNL     1      -2.126  12.433  19.642  0.00  0.00    +0.000 A 
ATOM     17  C   UNL     1      -1.353  12.236  18.451  0.00  0.00    +0.000 A 
ATOM     18  C   UNL     1      -1.967  11.710  17.280  0.00  0.00    +0.000 A 
BRANCH  17  19
ATOM     19  C   UNL     1       0.114  12.569  18.347  0.00  0.00    +0.000 C 
ATOM     20  N   UNL     1       1.036  11.561  18.255  0.00  0.00    +0.000 N 
ATOM     21  O   UNL     1       0.531  13.714  18.363  0.00  0.00    +0.000 OA
ATOM     22  H   UNL     1       0.840  10.624  17.944  0.00  0.00    +0.000 HD
ATOM     23  H   UNL     1       2.005  11.858  18.201  0.00  0.00    +0.000 HD
ENDBRANCH  17  19
ENDBRANCH   9  16
ENDBRANCH   8   9
ENDBRANCH   1   8
BRANCH   1  24
ATOM     24  C   UNL     1       1.409   9.926  21.357  0.00  0.00    +0.000 C 
BRANCH  24  25
ATOM     25  C   UNL     1       1.683   8.627  20.629  0.00  0.00    +0.000 A 
ATOM     26  C   UNL     1       2.041   8.326  19.323  0.00  0.00    +0.000 A 
ATOM     27  C   UNL     1       2.237   6.902  19.236  0.00  0.00    +0.000 A 
ATOM     28  C   UNL     1       2.638   6.002  18.236  0.00  0.00    +0.000 A 
ATOM     29  C   UNL     1       2.781   4.682  18.664  0.00  0.00    +0.000 A 
ATOM     30  N   UNL     1       2.586   4.219  19.926  0.00  0.00    +0.000 NA
ATOM     31  C   UNL     1       2.140   5.076  20.855  0.00  0.00    +0.000 A 
ATOM     32  C   UNL     1       1.936   6.400  20.501  0.00  0.00    +0.000 A 
ATOM     33  N   UNL     1       1.402   7.431  21.233  0.00  0.00    +0.000 N 
ATOM     34  H   UNL     1       0.916   7.313  22.113  0.00  0.00    +0.000 HD
BRANCH  29  35
ATOM     35  S   UNL     1       3.183   3.385  17.512  0.00  0.00    +0.000 S 
ATOM     36  C   UNL     1       3.557   1.977  18.535  0.00  0.00    +0.000 C 
ATOM     37  O   UNL     1       1.992   3.092  16.756  0.00  0.00    +0.000 OA
ATOM     38  O   UNL     1       4.414   3.779  16.839  0.00  0.00    +0.000 OA
ENDBRANCH  29  35
ENDBRANCH  24  25
ENDBRANCH   1  24
TORSDOF 9
ENDMDL
MODEL 4
REMARK VINA RESULT:      -7.6      1.308      1.672
REMARK  Name = 
REMARK  13 active torsions:
REMARK  status: ('A' for Active; 'I' for Inactive)
REMARK    1  A    between atoms: C_1  and  C_2
REMARK    2  A    between atoms: C_5  and  C_6
REMARK    3  A    between atoms: C_6  and  C_7
REMARK    4  A    between atoms: C_6  and  C_8
REMARK    5  A    between atoms: C_6  and  C_9
REMARK    6  A    between atoms: C_9  and  C_10
REMARK    7  A    between atoms: C_10  and  O_11
REMARK    8  A    between atoms: C_10  and  C_12
REMARK    9  A    between atoms: C_10  and  C_26
REMARK   10  A    between atoms: C_12  and  C_13
REMARK   11  A    between atoms: C_17  and  S_18
REMARK   12  A    between atoms: S_18  and  C_19
REMARK   13  A    between atoms: C_30  and  C_31
REMARK                            x       y       z     vdW  Elec       q    Type
REMARK                         _______ _______ _______ _____ _____    ______ ____
ROOT
ATOM      1  C   UNL     1       3.714   5.186  18.400  0.00  0.00    +0.000 C 
ENDROOT
BRANCH   1   2
ATOM      2  C   UNL     1       2.536   4.150  18.392  0.00  0.00    +0.000 C 
ATOM      3  F   UNL     1       1.437   4.578  19.038  0.00  0.00    +0.000 F 
ATOM      4  F   UNL     1       2.162   3.831  17.131  0.00  0.00    +0.000 F 
ATOM      5  F   UNL     1       2.878   2.983  18.997  0.00  0.00    +0.000 F 
ENDBRANCH   1   2
BRANCH   1   6
ATOM      6  O   UNL     1       4.074   5.565  19.743  0.00  0.00    +0.000 OA
ATOM      7  H   UNL     1       3.257   5.774  20.231  0.00  0.00    +0.000 HD
ENDBRANCH   1   6
BRANCH   1   8
ATOM      8  C   UNL     1       4.975   4.605  17.677  0.00  0.00    +0.000 C 
BRANCH   8   9
ATOM      9  C   UNL     1       6.083   5.517  16.953  0.00  0.00    +0.000 C 
ATOM     10  C   UNL     1       5.437   5.954  15.595  0.00  0.00    +0.000 C 
ATOM     11  C   UNL     1       7.248   4.553  16.533  0.00  0.00    +0.000 C 
BRANCH   9  16
ATOM     12  C   UNL     1       9.417  10.114  18.675  0.00  0.00    +0.000 C 
ATOM     13  C   UNL     1       8.486   8.982  18.347  0.00  0.00    +0.000 A 
ATOM     14  C   UNL     1       7.602   9.072  17.288  0.00  0.00    +0.000 A 
ATOM     15  C   UNL     1       6.762   7.999  16.974  0.00  0.00    +0.000 A 
ATOM     16  C   UNL     1       6.798   6.746  17.648  0.00  0.00    +0.000 A 
ATOM     17  C   UNL     1       7.660   6.698  18.792  0.00  0.00    +0.000 A 
ATOM     18  C   UNL     1       8.479   7.814  19.115  0.00  0.00    +0.000 A 
BRANCH  17  19
ATOM     19  C   UNL     1       7.752   5.507  19.713  0.00  0.00    +0.000 C 
ATOM     20  N   UNL     1       8.980   5.028  20.083  0.00  0.00    +0.000 N 
ATOM     21  O   UNL     1       6.769   4.925  20.137  0.00  0.00    +0.000 OA
ATOM     22  H   UNL     1       9.838   5.553  20.060  0.00  0.00    +0.000 HD
ATOM     23  H   UNL     1       8.967   4.217  20.695  0.00  0.00    +0.000 HD
ENDBRANCH  17  19
ENDBRANCH   9  16
ENDBRANCH   8   9
ENDBRANCH   1   8
BRANCH   1  24
ATOM     24  C   UNL     1       3.127   6.486  17.703  0.00  0.00    +0.000 C 
BRANCH  24  25
ATOM     25  C   UNL     1       2.466   7.528  18.580  0.00  0.00    +0.000 A 
ATOM     26  C   UNL     1       1.981   8.805  18.340  0.00  0.00    +0.000 A 
ATOM     27  C   UNL     1       1.388   9.289  19.559  0.00  0.00    +0.000 A 
ATOM     28  C   UNL     1       0.706  10.451  19.954  0.00  0.00    +0.000 A 
ATOM     29  C   UNL     1       0.216  10.425  21.260  0.00  0.00    +0.000 A 
ATOM     30  N   UNL     1       0.328   9.397  22.141  0.00  0.00    +0.000 NA
ATOM     31  C   UNL     1       1.038   8.321  21.774  0.00  0.00    +0.000 A 
ATOM     32  C   UNL     1       1.591   8.284  20.504  0.00  0.00    +0.000 A 
ATOM     33  N   UNL     1       2.425   7.354  19.938  0.00  0.00    +0.000 N 
ATOM     34  H   UNL     1       2.897   6.622  20.454  0.00  0.00    +0.000 HD
BRANCH  29  35
ATOM     35  S   UNL     1      -0.585  11.850  21.965  0.00  0.00    +0.000 S 
ATOM     36  C   UNL     1      -1.917  12.216  20.843  0.00  0.00    +0.000 C 
ATOM     37  O   UNL     1      -1.152  11.448  23.226  0.00  0.00    +0.000 OA
ATOM     38  O   UNL     1       0.365  12.952  21.892  0.00  0.00    +0.000 OA
ENDBRANCH  29  35
ENDBRANCH  24  25
ENDBRANCH   1  24
TORSDOF 9
ENDMDL
MODEL 5
REMARK VINA RESULT:      -7.5      1.393      1.881
REMARK  Name = 
REMARK  13 active torsions:
REMARK  status: ('A' for Active; 'I' for Inactive)
REMARK    1  A    between atoms: C_1  and  C_2
REMARK    2  A    between atoms: C_5  and  C_6
REMARK    3  A    between atoms: C_6  and  C_7
REMARK    4  A    between atoms: C_6  and  C_8
REMARK    5  A    between atoms: C_6  and  C_9
REMARK    6  A    between atoms: C_9  and  C_10
REMARK    7  A    between atoms: C_10  and  O_11
REMARK    8  A    between atoms: C_10  and  C_12
REMARK    9  A    between atoms: C_10  and  C_26
REMARK   10  A    between atoms: C_12  and  C_13
REMARK   11  A    between atoms: C_17  and  S_18
REMARK   12  A    between atoms: S_18  and  C_19
REMARK   13  A    between atoms: C_30  and  C_31
REMARK                            x       y       z     vdW  Elec       q    Type
REMARK                         _______ _______ _______ _____ _____    ______ ____
ROOT
ATOM      1  C   UNL     1       3.827   5.127  18.449  0.00  0.00    +0.000 C 
ENDROOT
BRANCH   1   2
ATOM      2  C   UNL     1       2.710   4.049  18.678  0.00  0.00    +0.000 C 
ATOM      3  F   UNL     1       2.167   4.090  19.907  0.00  0.00    +0.000 F 
ATOM      4  F   UNL     1       1.701   4.181  17.787  0.00  0.00    +0.000 F 
ATOM      5  F   UNL     1       3.185   2.785  18.536  0.00  0.00    +0.000 F 
ENDBRANCH   1   2
BRANCH   1   6
ATOM      6  O   UNL     1       4.272   5.700  19.694  0.00  0.00    +0.000 OA
ATOM      7  H   UNL     1       3.645   5.437  20.392  0.00  0.00    +0.000 HD
ENDBRANCH   1   6
BRANCH   1   8
ATOM      8  C   UNL     1       5.056   4.509  17.702  0.00  0.00    +0.000 C 
BRANCH   8   9
ATOM      9  C   UNL     1       6.204   5.389  17.000  0.00  0.00    +0.000 C 
ATOM     10  C   UNL     1       5.641   5.754  15.586  0.00  0.00    +0.000 C 
ATOM     11  C   UNL     1       7.395   4.411  16.700  0.00  0.00    +0.000 C 
BRANCH   9  16
ATOM     12  C   UNL     1       9.391  10.111  18.661  0.00  0.00    +0.000 C 
ATOM     13  C   UNL     1       8.494   8.949  18.345  0.00  0.00    +0.000 A 
ATOM     14  C   UNL     1       7.636   8.986  17.261  0.00  0.00    +0.000 A 
ATOM     15  C   UNL     1       6.828   7.885  16.960  0.00  0.00    +0.000 A 
ATOM     16  C   UNL     1       6.873   6.654  17.674  0.00  0.00    +0.000 A 
ATOM     17  C   UNL     1       7.706   6.661  18.841  0.00  0.00    +0.000 A 
ATOM     18  C   UNL     1       8.492   7.806  19.150  0.00  0.00    +0.000 A 
BRANCH  17  19
ATOM     19  C   UNL     1       7.800   5.503  19.802  0.00  0.00    +0.000 C 
ATOM     20  N   UNL     1       9.028   5.024  20.172  0.00  0.00    +0.000 N 
ATOM     21  O   UNL     1       6.817   4.945  20.257  0.00  0.00    +0.000 OA
ATOM     22  H   UNL     1       9.891   5.541  20.120  0.00  0.00    +0.000 HD
ATOM     23  H   UNL     1       9.016   4.236  20.812  0.00  0.00    +0.000 HD
ENDBRANCH  17  19
ENDBRANCH   9  16
ENDBRANCH   8   9
ENDBRANCH   1   8
BRANCH   1  24
ATOM     24  C   UNL     1       3.116   6.294  17.640  0.00  0.00    +0.000 C 
BRANCH  24  25
ATOM     25  C   UNL     1       2.397   7.370  18.426  0.00  0.00    +0.000 A 
ATOM     26  C   UNL     1       1.923   7.442  19.728  0.00  0.00    +0.000 A 
ATOM     27  C   UNL     1       1.387   8.762  19.931  0.00  0.00    +0.000 A 
ATOM     28  C   UNL     1       0.818   9.462  21.007  0.00  0.00    +0.000 A 
ATOM     29  C   UNL     1       0.528  10.801  20.743  0.00  0.00    +0.000 A 
ATOM     30  N   UNL     1       0.759  11.461  19.578  0.00  0.00    +0.000 NA
ATOM     31  C   UNL     1       1.242  10.765  18.540  0.00  0.00    +0.000 A 
ATOM     32  C   UNL     1       1.521   9.418  18.708  0.00  0.00    +0.000 A 
ATOM     33  N   UNL     1       1.924   8.484  17.786  0.00  0.00    +0.000 N 
ATOM     34  H   UNL     1       1.911   8.630  16.785  0.00  0.00    +0.000 HD
BRANCH  29  35
ATOM     35  S   UNL     1      -0.291  11.815  21.955  0.00  0.00    +0.000 S 
ATOM     36  C   UNL     1      -1.913  12.099  21.279  0.00  0.00    +0.000 C 
ATOM     37  O   UNL     1      -0.432  11.030  23.154  0.00  0.00    +0.000 OA
ATOM     38  O   UNL     1       0.405  13.095  21.981  0.00  0.00    +0.000 OA
ENDBRANCH  29  35
ENDBRANCH  24  25
ENDBRANCH   1  24
TORSDOF 9
ENDMDL
MODEL 6
REMARK VINA RESULT:      -7.5      4.647      9.946
REMARK  Name = 
REMARK  13 active torsions:
REMARK  status: ('A' for Active; 'I' for Inactive)
REMARK    1  A    between atoms: C_1  and  C_2
REMARK    2  A    between atoms: C_5  and  C_6
REMARK    3  A    between atoms: C_6  and  C_7
REMARK    4  A    between atoms: C_6  and  C_8
REMARK    5  A    between atoms: C_6  and  C_9
REMARK    6  A    between atoms: C_9  and  C_10
REMARK    7  A    between atoms: C_10  and  O_11
REMARK    8  A    between atoms: C_10  and  C_12
REMARK    9  A    between atoms: C_10  and  C_26
REMARK   10  A    between atoms: C_12  and  C_13
REMARK   11  A    between atoms: C_17  and  S_18
REMARK   12  A    between atoms: S_18  and  C_19
REMARK   13  A    between atoms: C_30  and  C_31
REMARK                            x       y       z     vdW  Elec       q    Type
REMARK                         _______ _______ _______ _____ _____    ______ ____
ROOT
ATOM      1  C   UNL     1      -0.175  10.165  21.382  0.00  0.00    +0.000 C 
ENDROOT
BRANCH   1   2
ATOM      2  C   UNL     1      -0.483   9.819  22.881  0.00  0.00    +0.000 C 
ATOM      3  F   UNL     1       0.619   9.648  23.632  0.00  0.00    +0.000 F 
ATOM      4  F   UNL     1      -1.227  10.781  23.472  0.00  0.00    +0.000 F 
ATOM      5  F   UNL     1      -1.184   8.662  23.004  0.00  0.00    +0.000 F 
ENDBRANCH   1   2
BRANCH   1   6
ATOM      6  O   UNL     1      -0.932   9.334  20.481  0.00  0.00    +0.000 OA
ATOM      7  H   UNL     1      -1.458   9.913  19.900  0.00  0.00    +0.000 HD
ENDBRANCH   1   6
BRANCH   1   8
ATOM      8  C   UNL     1      -0.492  11.669  21.080  0.00  0.00    +0.000 C 
BRANCH   8   9
ATOM      9  C   UNL     1      -1.170  12.176  19.713  0.00  0.00    +0.000 C 
ATOM     10  C   UNL     1      -0.306  11.553  18.566  0.00  0.00    +0.000 C 
ATOM     11  C   UNL     1      -0.883  13.717  19.619  0.00  0.00    +0.000 C 
BRANCH   9  16
ATOM     12  C   UNL     1      -6.747  12.324  17.690  0.00  0.00    +0.000 C 
ATOM     13  C   UNL     1      -5.375  12.179  18.285  0.00  0.00    +0.000 A 
ATOM     14  C   UNL     1      -4.352  11.576  17.576  0.00  0.00    +0.000 A 
ATOM     15  C   UNL     1      -3.072  11.474  18.129  0.00  0.00    +0.000 A 
ATOM     16  C   UNL     1      -2.711  12.026  19.391  0.00  0.00    +0.000 A 
ATOM     17  C   UNL     1      -3.800  12.573  20.145  0.00  0.00    +0.000 A 
ATOM     18  C   UNL     1      -5.103  12.634  19.578  0.00  0.00    +0.000 A 
BRANCH  17  19
ATOM     19  C   UNL     1      -3.655  13.098  21.553  0.00  0.00    +0.000 C 
ATOM     20  N   UNL     1      -4.067  12.331  22.609  0.00  0.00    +0.000 N 
ATOM     21  O   UNL     1      -3.201  14.201  21.800  0.00  0.00    +0.000 OA
ATOM     22  H   UNL     1      -4.181  11.331  22.591  0.00  0.00    +0.000 HD
ATOM     23  H   UNL     1      -3.952  12.752  23.526  0.00  0.00    +0.000 HD
ENDBRANCH  17  19
ENDBRANCH   9  16
ENDBRANCH   8   9
ENDBRANCH   1   8
BRANCH   1  24
ATOM     24  C   UNL     1       1.353   9.787  21.175  0.00  0.00    +0.000 C 
BRANCH  24  25
ATOM     25  C   UNL     1       1.675   8.465  20.511  0.00  0.00    +0.000 A 
ATOM     26  C   UNL     1       2.069   8.115  19.227  0.00  0.00    +0.000 A 
ATOM     27  C   UNL     1       2.302   6.695  19.208  0.00  0.00    +0.000 A 
ATOM     28  C   UNL     1       2.747   5.762  18.258  0.00  0.00    +0.000 A 
ATOM     29  C   UNL     1       2.913   4.466  18.747  0.00  0.00    +0.000 A 
ATOM     30  N   UNL     1       2.702   4.054  20.024  0.00  0.00    +0.000 NA
ATOM     31  C   UNL     1       2.215   4.940  20.905  0.00  0.00    +0.000 A 
ATOM     32  C   UNL     1       1.986   6.242  20.488  0.00  0.00    +0.000 A 
ATOM     33  N   UNL     1       1.411   7.290  21.162  0.00  0.00    +0.000 N 
ATOM     34  H   UNL     1       0.908   7.198  22.036  0.00  0.00    +0.000 HD
BRANCH  29  35
ATOM     35  S   UNL     1       3.372   3.131  17.663  0.00  0.00    +0.000 S 
ATOM     36  C   UNL     1       4.732   3.773  16.711  0.00  0.00    +0.000 C 
ATOM     37  O   UNL     1       3.862   2.054  18.484  0.00  0.00    +0.000 OA
ATOM     38  O   UNL     1       2.256   2.922  16.748  0.00  0.00    +0.000 OA
ENDBRANCH  29  35
ENDBRANCH  24  25
ENDBRANCH   1  24
TORSDOF 9
ENDMDL
MODEL 7
REMARK VINA RESULT:      -7.4      2.201      3.272
REMARK  Name = 
REMARK  13 active torsions:
REMARK  status: ('A' for Active; 'I' for Inactive)
REMARK    1  A    between atoms: C_1  and  C_2
REMARK    2  A    between atoms: C_5  and  C_6
REMARK    3  A    between atoms: C_6  and  C_7
REMARK    4  A    between atoms: C_6  and  C_8
REMARK    5  A    between atoms: C_6  and  C_9
REMARK    6  A    between atoms: C_9  and  C_10
REMARK    7  A    between atoms: C_10  and  O_11
REMARK    8  A    between atoms: C_10  and  C_12
REMARK    9  A    between atoms: C_10  and  C_26
REMARK   10  A    between atoms: C_12  and  C_13
REMARK   11  A    between atoms: C_17  and  S_18
REMARK   12  A    between atoms: S_18  and  C_19
REMARK   13  A    between atoms: C_30  and  C_31
REMARK                            x       y       z     vdW  Elec       q    Type
REMARK                         _______ _______ _______ _____ _____    ______ ____
ROOT
ATOM      1  C   UNL     1       3.265   4.767  19.577  0.00  0.00    +0.000 C 
ENDROOT
BRANCH   1   2
ATOM      2  C   UNL     1       2.270   4.083  20.580  0.00  0.00    +0.000 C 
ATOM      3  F   UNL     1       0.977   4.247  20.251  0.00  0.00    +0.000 F 
ATOM      4  F   UNL     1       2.495   2.752  20.674  0.00  0.00    +0.000 F 
ATOM      5  F   UNL     1       2.388   4.582  21.837  0.00  0.00    +0.000 F 
ENDBRANCH   1   2
BRANCH   1   6
ATOM      6  O   UNL     1       4.055   5.781  20.227  0.00  0.00    +0.000 OA
ATOM      7  H   UNL     1       4.225   5.496  21.143  0.00  0.00    +0.000 HD
ENDBRANCH   1   6
BRANCH   1   8
ATOM      8  C   UNL     1       4.221   3.709  18.930  0.00  0.00    +0.000 C 
BRANCH   8   9
ATOM      9  C   UNL     1       4.182   3.312  17.373  0.00  0.00    +0.000 C 
ATOM     10  C   UNL     1       2.667   3.334  16.978  0.00  0.00    +0.000 C 
ATOM     11  C   UNL     1       4.579   1.795  17.290  0.00  0.00    +0.000 C 
BRANCH   9  16
ATOM     12  C   UNL     1       7.689   4.965  12.881  0.00  0.00    +0.000 C 
ATOM     13  C   UNL     1       6.765   4.683  14.031  0.00  0.00    +0.000 A 
ATOM     14  C   UNL     1       5.520   4.120  13.821  0.00  0.00    +0.000 A 
ATOM     15  C   UNL     1       4.681   3.834  14.903  0.00  0.00    +0.000 A 
ATOM     16  C   UNL     1       5.055   4.025  16.264  0.00  0.00    +0.000 A 
ATOM     17  C   UNL     1       6.313   4.684  16.459  0.00  0.00    +0.000 A 
ATOM     18  C   UNL     1       7.135   4.999  15.341  0.00  0.00    +0.000 A 
BRANCH  17  19
ATOM     19  C   UNL     1       6.838   5.089  17.814  0.00  0.00    +0.000 C 
ATOM     20  N   UNL     1       7.830   4.355  18.406  0.00  0.00    +0.000 N 
ATOM     21  O   UNL     1       6.398   6.044  18.430  0.00  0.00    +0.000 OA
ATOM     22  H   UNL     1       8.471   3.749  17.921  0.00  0.00    +0.000 HD
ATOM     23  H   UNL     1       8.126   4.678  19.322  0.00  0.00    +0.000 HD
ENDBRANCH  17  19
ENDBRANCH   9  16
ENDBRANCH   8   9
ENDBRANCH   1   8
BRANCH   1  24
ATOM     24  C   UNL     1       2.342   5.514  18.523  0.00  0.00    +0.000 C 
BRANCH  24  25
ATOM     25  C   UNL     1       2.150   7.008  18.678  0.00  0.00    +0.000 A 
ATOM     26  C   UNL     1       2.365   8.088  17.834  0.00  0.00    +0.000 A 
ATOM     27  C   UNL     1       1.924   9.276  18.516  0.00  0.00    +0.000 A 
ATOM     28  C   UNL     1       1.831  10.641  18.201  0.00  0.00    +0.000 A 
ATOM     29  C   UNL     1       1.226  11.427  19.182  0.00  0.00    +0.000 A 
ATOM     30  N   UNL     1       0.723  10.990  20.366  0.00  0.00    +0.000 NA
ATOM     31  C   UNL     1       0.877   9.697  20.683  0.00  0.00    +0.000 A 
ATOM     32  C   UNL     1       1.503   8.855  19.777  0.00  0.00    +0.000 A 
ATOM     33  N   UNL     1       1.859   7.537  19.907  0.00  0.00    +0.000 N 
ATOM     34  H   UNL     1       1.856   7.030  20.783  0.00  0.00    +0.000 HD
BRANCH  29  35
ATOM     35  S   UNL     1       1.116  13.194  18.999  0.00  0.00    +0.000 S 
ATOM     36  C   UNL     1      -0.521  13.477  18.358  0.00  0.00    +0.000 C 
ATOM     37  O   UNL     1       1.193  13.772  20.316  0.00  0.00    +0.000 OA
ATOM     38  O   UNL     1       2.065  13.576  17.961  0.00  0.00    +0.000 OA
ENDBRANCH  29  35
ENDBRANCH  24  25
ENDBRANCH   1  24
TORSDOF 9
ENDMDL
MODEL 8
REMARK VINA RESULT:      -7.2      2.196      3.195
REMARK  Name = 
REMARK  13 active torsions:
REMARK  status: ('A' for Active; 'I' for Inactive)
REMARK    1  A    between atoms: C_1  and  C_2
REMARK    2  A    between atoms: C_5  and  C_6
REMARK    3  A    between atoms: C_6  and  C_7
REMARK    4  A    between atoms: C_6  and  C_8
REMARK    5  A    between atoms: C_6  and  C_9
REMARK    6  A    between atoms: C_9  and  C_10
REMARK    7  A    between atoms: C_10  and  O_11
REMARK    8  A    between atoms: C_10  and  C_12
REMARK    9  A    between atoms: C_10  and  C_26
REMARK   10  A    between atoms: C_12  and  C_13
REMARK   11  A    between atoms: C_17  and  S_18
REMARK   12  A    between atoms: S_18  and  C_19
REMARK   13  A    between atoms: C_30  and  C_31
REMARK                            x       y       z     vdW  Elec       q    Type
REMARK                         _______ _______ _______ _____ _____    ______ ____
ROOT
ATOM      1  C   UNL     1       3.200   4.706  19.576  0.00  0.00    +0.000 C 
ENDROOT
BRANCH   1   2
ATOM      2  C   UNL     1       2.019   3.994  20.324  0.00  0.00    +0.000 C 
ATOM      3  F   UNL     1       0.812   4.248  19.789  0.00  0.00    +0.000 F 
ATOM      4  F   UNL     1       2.176   2.650  20.338  0.00  0.00    +0.000 F 
ATOM      5  F   UNL     1       1.927   4.383  21.621  0.00  0.00    +0.000 F 
ENDBRANCH   1   2
BRANCH   1   6
ATOM      6  O   UNL     1       3.972   5.528  20.473  0.00  0.00    +0.000 OA
ATOM      7  H   UNL     1       3.616   5.417  21.373  0.00  0.00    +0.000 HD
ENDBRANCH   1   6
BRANCH   1   8
ATOM      8  C   UNL     1       4.146   3.658  18.900  0.00  0.00    +0.000 C 
BRANCH   8   9
ATOM      9  C   UNL     1       4.111   3.313  17.330  0.00  0.00    +0.000 C 
ATOM     10  C   UNL     1       2.601   3.376  16.925  0.00  0.00    +0.000 C 
ATOM     11  C   UNL     1       4.482   1.792  17.200  0.00  0.00    +0.000 C 
BRANCH   9  16
ATOM     12  C   UNL     1       7.718   5.046  12.948  0.00  0.00    +0.000 C 
ATOM     13  C   UNL     1       6.767   4.744  14.071  0.00  0.00    +0.000 A 
ATOM     14  C   UNL     1       5.533   4.171  13.823  0.00  0.00    +0.000 A 
ATOM     15  C   UNL     1       4.669   3.867  14.880  0.00  0.00    +0.000 A 
ATOM     16  C   UNL     1       5.007   4.046  16.251  0.00  0.00    +0.000 A 
ATOM     17  C   UNL     1       6.253   4.714  16.486  0.00  0.00    +0.000 A 
ATOM     18  C   UNL     1       7.100   5.048  15.393  0.00  0.00    +0.000 A 
BRANCH  17  19
ATOM     19  C   UNL     1       6.739   5.109  17.858  0.00  0.00    +0.000 C 
ATOM     20  N   UNL     1       7.754   4.405  18.449  0.00  0.00    +0.000 N 
ATOM     21  O   UNL     1       6.249   6.029  18.490  0.00  0.00    +0.000 OA
ATOM     22  H   UNL     1       8.427   3.839  17.960  0.00  0.00    +0.000 HD
ATOM     23  H   UNL     1       8.021   4.719  19.377  0.00  0.00    +0.000 HD
ENDBRANCH  17  19
ENDBRANCH   9  16
ENDBRANCH   8   9
ENDBRANCH   1   8
BRANCH   1  24
ATOM     24  C   UNL     1       2.504   5.689  18.543  0.00  0.00    +0.000 C 
BRANCH  24  25
ATOM     25  C   UNL     1       2.129   7.076  19.021  0.00  0.00    +0.000 A 
ATOM     26  C   UNL     1       1.932   8.286  18.371  0.00  0.00    +0.000 A 
ATOM     27  C   UNL     1       1.514   9.252  19.353  0.00  0.00    +0.000 A 
ATOM     28  C   UNL     1       1.125  10.601  19.334  0.00  0.00    +0.000 A 
ATOM     29  C   UNL     1       0.696  11.101  20.564  0.00  0.00    +0.000 A 
ATOM     30  N   UNL     1       0.612  10.408  21.730  0.00  0.00    +0.000 NA
ATOM     31  C   UNL     1       1.048   9.141  21.748  0.00  0.00    +0.000 A 
ATOM     32  C   UNL     1       1.526   8.580  20.574  0.00  0.00    +0.000 A 
ATOM     33  N   UNL     1       2.106   7.355  20.361  0.00  0.00    +0.000 N 
ATOM     34  H   UNL     1       2.424   6.739  21.099  0.00  0.00    +0.000 HD
BRANCH  29  35
ATOM     35  S   UNL     1       0.264  12.817  20.753  0.00  0.00    +0.000 S 
ATOM     36  C   UNL     1       0.335  13.481  19.103  0.00  0.00    +0.000 C 
ATOM     37  O   UNL     1      -1.103  12.873  21.205  0.00  0.00    +0.000 OA
ATOM     38  O   UNL     1       1.330  13.443  21.524  0.00  0.00    +0.000 OA
ENDBRANCH  29  35
ENDBRANCH  24  25
ENDBRANCH   1  24
TORSDOF 9
ENDMDL
MODEL 9
REMARK VINA RESULT:      -7.2      2.214      3.302
REMARK  Name = 
REMARK  13 active torsions:
REMARK  status: ('A' for Active; 'I' for Inactive)
REMARK    1  A    between atoms: C_1  and  C_2
REMARK    2  A    between atoms: C_5  and  C_6
REMARK    3  A    between atoms: C_6  and  C_7
REMARK    4  A    between atoms: C_6  and  C_8
REMARK    5  A    between atoms: C_6  and  C_9
REMARK    6  A    between atoms: C_9  and  C_10
REMARK    7  A    between atoms: C_10  and  O_11
REMARK    8  A    between atoms: C_10  and  C_12
REMARK    9  A    between atoms: C_10  and  C_26
REMARK   10  A    between atoms: C_12  and  C_13
REMARK   11  A    between atoms: C_17  and  S_18
REMARK   12  A    between atoms: S_18  and  C_19
REMARK   13  A    between atoms: C_30  and  C_31
REMARK                            x       y       z     vdW  Elec       q    Type
REMARK                         _______ _______ _______ _____ _____    ______ ____
ROOT
ATOM      1  C   UNL     1       3.129   4.654  19.556  0.00  0.00    +0.000 C 
ENDROOT
BRANCH   1   2
ATOM      2  C   UNL     1       1.864   3.915  20.118  0.00  0.00    +0.000 C 
ATOM      3  F   UNL     1       1.994   2.577  20.154  0.00  0.00    +0.000 F 
ATOM      4  F   UNL     1       1.564   4.324  21.371  0.00  0.00    +0.000 F 
ATOM      5  F   UNL     1       0.760   4.149  19.363  0.00  0.00    +0.000 F 
ENDBRANCH   1   2
BRANCH   1   6
ATOM      6  O   UNL     1       3.819   5.380  20.592  0.00  0.00    +0.000 OA
ATOM      7  H   UNL     1       3.854   6.320  20.335  0.00  0.00    +0.000 HD
ENDBRANCH   1   6
BRANCH   1   8
ATOM      8  C   UNL     1       4.121   3.639  18.895  0.00  0.00    +0.000 C 
BRANCH   8   9
ATOM      9  C   UNL     1       4.125   3.296  17.324  0.00  0.00    +0.000 C 
ATOM     10  C   UNL     1       2.622   3.328  16.890  0.00  0.00    +0.000 C 
ATOM     11  C   UNL     1       4.530   1.784  17.200  0.00  0.00    +0.000 C 
BRANCH   9  16
ATOM     12  C   UNL     1       7.751   5.113  12.992  0.00  0.00    +0.000 C 
ATOM     13  C   UNL     1       6.796   4.790  14.105  0.00  0.00    +0.000 A 
ATOM     14  C   UNL     1       5.560   4.226  13.841  0.00  0.00    +0.000 A 
ATOM     15  C   UNL     1       4.693   3.901  14.889  0.00  0.00    +0.000 A 
ATOM     16  C   UNL     1       5.026   4.050  16.265  0.00  0.00    +0.000 A 
ATOM     17  C   UNL     1       6.273   4.709  16.517  0.00  0.00    +0.000 A 
ATOM     18  C   UNL     1       7.125   5.065  15.435  0.00  0.00    +0.000 A 
BRANCH  17  19
ATOM     19  C   UNL     1       6.756   5.073  17.899  0.00  0.00    +0.000 C 
ATOM     20  N   UNL     1       7.813   4.399  18.450  0.00  0.00    +0.000 N 
ATOM     21  O   UNL     1       6.228   5.940  18.574  0.00  0.00    +0.000 OA
ATOM     22  H   UNL     1       8.508   3.889  17.931  0.00  0.00    +0.000 HD
ATOM     23  H   UNL     1       8.076   4.688  19.387  0.00  0.00    +0.000 HD
ENDBRANCH  17  19
ENDBRANCH   9  16
ENDBRANCH   8   9
ENDBRANCH   1   8
BRANCH   1  24
ATOM     24  C   UNL     1       2.562   5.736  18.543  0.00  0.00    +0.000 C 
BRANCH  24  25
ATOM     25  C   UNL     1       2.141   7.080  19.098  0.00  0.00    +0.000 A 
ATOM     26  C   UNL     1       1.832   8.298  18.510  0.00  0.00    +0.000 A 
ATOM     27  C   UNL     1       1.426   9.202  19.553  0.00  0.00    +0.000 A 
ATOM     28  C   UNL     1       0.959  10.525  19.613  0.00  0.00    +0.000 A 
ATOM     29  C   UNL     1       0.587  10.955  20.886  0.00  0.00    +0.000 A 
ATOM     30  N   UNL     1       0.622  10.219  22.027  0.00  0.00    +0.000 NA
ATOM     31  C   UNL     1       1.130   8.980  21.968  0.00  0.00    +0.000 A 
ATOM     32  C   UNL     1       1.559   8.490  20.745  0.00  0.00    +0.000 A 
ATOM     33  N   UNL     1       2.193   7.310  20.446  0.00  0.00    +0.000 N 
ATOM     34  H   UNL     1       2.595   6.689  21.137  0.00  0.00    +0.000 HD
BRANCH  29  35
ATOM     35  S   UNL     1       0.070  12.635  21.170  0.00  0.00    +0.000 S 
ATOM     36  C   UNL     1      -1.053  12.532  22.546  0.00  0.00    +0.000 C 
ATOM     37  O   UNL     1       1.230  13.381  21.586  0.00  0.00    +0.000 OA
ATOM     38  O   UNL     1      -0.701  13.047  20.004  0.00  0.00    +0.000 OA
ENDBRANCH  29  35
ENDBRANCH  24  25
ENDBRANCH   1  24
TORSDOF 9
ENDMDL
