MODEL 1
REMARK VINA RESULT:      -7.0      0.000      0.000
REMARK  Name = 
REMARK  10 active torsions:
REMARK  status: ('A' for Active; 'I' for Inactive)
REMARK    1  A    between atoms: C_1  and  C_2
REMARK    2  A    between atoms: C_4  and  C_5
REMARK    3  A    between atoms: C_10  and  N_11
REMARK    4  A    between atoms: N_11  and  C_12
REMARK    5  A    between atoms: C_12  and  C_13
REMARK    6  A    between atoms: C_13  and  C_14
REMARK    7  A    between atoms: C_14  and  N_15
REMARK    8  A    between atoms: N_15  and  C_16
REMARK    9  A    between atoms: N_15  and  C_17
REMARK   10  A    between atoms: C_19  and  N_20
REMARK                            x       y       z     vdW  Elec       q    Type
REMARK                         _______ _______ _______ _____ _____    ______ ____
ROOT
ATOM      1  C   UNL     1       2.404   2.699  21.479  0.00  0.00    +0.000 C 
ATOM      2  C   UNL     1       2.467   3.979  20.688  0.00  0.00    +0.000 A 
ATOM      3  C   UNL     1       1.734   5.066  21.131  0.00  0.00    +0.000 A 
ATOM      4  C   UNL     1       1.789   6.289  20.455  0.00  0.00    +0.000 A 
ATOM      5  C   UNL     1       0.960   7.437  20.982  0.00  0.00    +0.000 C 
ATOM      6  C   UNL     1       2.576   6.465  19.310  0.00  0.00    +0.000 A 
ATOM      7  N   UNL     1       2.547   7.692  18.770  0.00  0.00    +0.000 NA
ATOM      8  C   UNL     1       3.244   7.934  17.653  0.00  0.00    +0.000 A 
ATOM      9  C   UNL     1       3.999   6.983  17.016  0.00  0.00    +0.000 A 
ATOM     10  C   UNL     1       4.090   5.698  17.565  0.00  0.00    +0.000 A 
ATOM     11  C   UNL     1       3.338   5.392  18.776  0.00  0.00    +0.000 A 
ATOM     12  C   UNL     1       3.248   4.152  19.515  0.00  0.00    +0.000 A 
ENDROOT
BRANCH  12  13
ATOM     13  N   UNL     1       4.034   3.003  19.095  0.00  0.00    +0.000 N 
ATOM     14  O   UNL     1       3.516   2.210  18.299  0.00  0.00    +0.000 OA
ATOM     15  O   UNL     1       5.172   2.887  19.577  0.00  0.00    +0.000 OA
ENDBRANCH  12  13
BRANCH  10  16
ATOM     16  N   UNL     1       4.771   4.687  16.857  0.00  0.00    +0.000 N 
ATOM     17  H   UNL     1       5.480   4.243  17.440  0.00  0.00    +0.000 HD
BRANCH  16  18
ATOM     18  C   UNL     1       5.401   4.951  15.556  0.00  0.00    +0.000 C 
BRANCH  18  19
ATOM     19  C   UNL     1       6.914   4.994  15.779  0.00  0.00    +0.000 C 
BRANCH  19  20
ATOM     20  C   UNL     1       7.335   4.597  17.194  0.00  0.00    +0.000 C 
BRANCH  20  21
ATOM     21  N   UNL     1       7.858   5.701  18.018  0.00  0.00    +0.000 NA
ATOM     22  C   UNL     1       7.564   7.015  17.436  0.00  0.00    +0.000 C 
ATOM     23  C   UNL     1       7.282   5.622  19.365  0.00  0.00    +0.000 C 
ENDBRANCH  20  21
ENDBRANCH  19  20
ENDBRANCH  18  19
ENDBRANCH  16  18
ENDBRANCH  10  16
TORSDOF 6
ENDMDL
MODEL 2
REMARK VINA RESULT:      -6.8      0.246      1.002
REMARK  Name = 
REMARK  10 active torsions:
REMARK  status: ('A' for Active; 'I' for Inactive)
REMARK    1  A    between atoms: C_1  and  C_2
REMARK    2  A    between atoms: C_4  and  C_5
REMARK    3  A    between atoms: C_10  and  N_11
REMARK    4  A    between atoms: N_11  and  C_12
REMARK    5  A    between atoms: C_12  and  C_13
REMARK    6  A    between atoms: C_13  and  C_14
REMARK    7  A    between atoms: C_14  and  N_15
REMARK    8  A    between atoms: N_15  and  C_16
REMARK    9  A    between atoms: N_15  and  C_17
REMARK   10  A    between atoms: C_19  and  N_20
REMARK                            x       y       z     vdW  Elec       q    Type
REMARK                         _______ _______ _______ _____ _____    ______ ____
ROOT
ATOM      1  C   UNL     1       2.413   2.807  21.510  0.00  0.00    +0.000 C 
ATOM      2  C   UNL     1       2.458   4.082  20.709  0.00  0.00    +0.000 A 
ATOM      3  C   UNL     1       1.705   5.160  21.140  0.00  0.00    +0.000 A 
ATOM      4  C   UNL     1       1.743   6.378  20.454  0.00  0.00    +0.000 A 
ATOM      5  C   UNL     1       0.893   7.517  20.969  0.00  0.00    +0.000 C 
ATOM      6  C   UNL     1       2.530   6.558  19.310  0.00  0.00    +0.000 A 
ATOM      7  N   UNL     1       2.483   7.780  18.760  0.00  0.00    +0.000 NA
ATOM      8  C   UNL     1       3.178   8.025  17.643  0.00  0.00    +0.000 A 
ATOM      9  C   UNL     1       3.952   7.080  17.017  0.00  0.00    +0.000 A 
ATOM     10  C   UNL     1       4.062   5.802  17.576  0.00  0.00    +0.000 A 
ATOM     11  C   UNL     1       3.311   5.494  18.788  0.00  0.00    +0.000 A 
ATOM     12  C   UNL     1       3.240   4.258  19.537  0.00  0.00    +0.000 A 
ENDROOT
BRANCH  12  13
ATOM     13  N   UNL     1       4.046   3.119  19.128  0.00  0.00    +0.000 N 
ATOM     14  O   UNL     1       5.206   3.051  19.556  0.00  0.00    +0.000 OA
ATOM     15  O   UNL     1       3.519   2.296  18.364  0.00  0.00    +0.000 OA
ENDBRANCH  12  13
BRANCH  10  16
ATOM     16  N   UNL     1       4.762   4.797  16.878  0.00  0.00    +0.000 N 
ATOM     17  H   UNL     1       5.472   4.365  17.470  0.00  0.00    +0.000 HD
BRANCH  16  18
ATOM     18  C   UNL     1       5.399   5.063  15.582  0.00  0.00    +0.000 C 
BRANCH  18  19
ATOM     19  C   UNL     1       6.906   5.159  15.821  0.00  0.00    +0.000 C 
BRANCH  19  20
ATOM     20  C   UNL     1       7.322   4.801  17.249  0.00  0.00    +0.000 C 
BRANCH  20  21
ATOM     21  N   UNL     1       7.187   5.895  18.227  0.00  0.00    +0.000 NA
ATOM     22  C   UNL     1       7.943   5.637  19.457  0.00  0.00    +0.000 C 
ATOM     23  C   UNL     1       7.645   7.151  17.624  0.00  0.00    +0.000 C 
ENDBRANCH  20  21
ENDBRANCH  19  20
ENDBRANCH  18  19
ENDBRANCH  16  18
ENDBRANCH  10  16
TORSDOF 6
ENDMDL
MODEL 3
REMARK VINA RESULT:      -6.6      1.453      2.592
REMARK  Name = 
REMARK  10 active torsions:
REMARK  status: ('A' for Active; 'I' for Inactive)
REMARK    1  A    between atoms: C_1  and  C_2
REMARK    2  A    between atoms: C_4  and  C_5
REMARK    3  A    between atoms: C_10  and  N_11
REMARK    4  A    between atoms: N_11  and  C_12
REMARK    5  A    between atoms: C_12  and  C_13
REMARK    6  A    between atoms: C_13  and  C_14
REMARK    7  A    between atoms: C_14  and  N_15
REMARK    8  A    between atoms: N_15  and  C_16
REMARK    9  A    between atoms: N_15  and  C_17
REMARK   10  A    between atoms: C_19  and  N_20
REMARK                            x       y       z     vdW  Elec       q    Type
REMARK                         _______ _______ _______ _____ _____    ______ ____
ROOT
ATOM      1  C   UNL     1       2.386   2.687  21.495  0.00  0.00    +0.000 C 
ATOM      2  C   UNL     1       2.527   3.938  20.667  0.00  0.00    +0.000 A 
ATOM      3  C   UNL     1       1.798   5.056  21.031  0.00  0.00    +0.000 A 
ATOM      4  C   UNL     1       1.923   6.254  20.319  0.00  0.00    +0.000 A 
ATOM      5  C   UNL     1       1.096   7.439  20.760  0.00  0.00    +0.000 C 
ATOM      6  C   UNL     1       2.777   6.371  19.216  0.00  0.00    +0.000 A 
ATOM      7  N   UNL     1       2.811   7.579  18.635  0.00  0.00    +0.000 NA
ATOM      8  C   UNL     1       3.575   7.767  17.553  0.00  0.00    +0.000 A 
ATOM      9  C   UNL     1       4.341   6.776  16.992  0.00  0.00    +0.000 A 
ATOM     10  C   UNL     1       4.367   5.509  17.587  0.00  0.00    +0.000 A 
ATOM     11  C   UNL     1       3.540   5.263  18.763  0.00  0.00    +0.000 A 
ATOM     12  C   UNL     1       3.377   4.051  19.536  0.00  0.00    +0.000 A 
ENDROOT
BRANCH  12  13
ATOM     13  N   UNL     1       4.156   2.870  19.199  0.00  0.00    +0.000 N 
ATOM     14  O   UNL     1       5.250   2.722  19.759  0.00  0.00    +0.000 OA
ATOM     15  O   UNL     1       3.674   2.094  18.360  0.00  0.00    +0.000 OA
ENDBRANCH  12  13
BRANCH  10  16
ATOM     16  N   UNL     1       5.061   4.459  16.952  0.00  0.00    +0.000 N 
ATOM     17  H   UNL     1       4.773   3.552  17.320  0.00  0.00    +0.000 HD
BRANCH  16  18
ATOM     18  C   UNL     1       6.528   4.438  16.882  0.00  0.00    +0.000 C 
BRANCH  18  19
ATOM     19  C   UNL     1       6.919   4.560  15.408  0.00  0.00    +0.000 C 
BRANCH  19  20
ATOM     20  C   UNL     1       5.860   4.015  14.448  0.00  0.00    +0.000 C 
BRANCH  20  21
ATOM     21  N   UNL     1       6.370   3.622  13.122  0.00  0.00    +0.000 NA
ATOM     22  C   UNL     1       5.288   3.371  12.164  0.00  0.00    +0.000 C 
ATOM     23  C   UNL     1       7.250   4.675  12.603  0.00  0.00    +0.000 C 
ENDBRANCH  20  21
ENDBRANCH  19  20
ENDBRANCH  18  19
ENDBRANCH  16  18
ENDBRANCH  10  16
TORSDOF 6
ENDMDL
MODEL 4
REMARK VINA RESULT:      -6.5      1.904      3.341
REMARK  Name = 
REMARK  10 active torsions:
REMARK  status: ('A' for Active; 'I' for Inactive)
REMARK    1  A    between atoms: C_1  and  C_2
REMARK    2  A    between atoms: C_4  and  C_5
REMARK    3  A    between atoms: C_10  and  N_11
REMARK    4  A    between atoms: N_11  and  C_12
REMARK    5  A    between atoms: C_12  and  C_13
REMARK    6  A    between atoms: C_13  and  C_14
REMARK    7  A    between atoms: C_14  and  N_15
REMARK    8  A    between atoms: N_15  and  C_16
REMARK    9  A    between atoms: N_15  and  C_17
REMARK   10  A    between atoms: C_19  and  N_20
REMARK                            x       y       z     vdW  Elec       q    Type
REMARK                         _______ _______ _______ _____ _____    ______ ____
ROOT
ATOM      1  C   UNL     1       1.622   7.642  20.591  0.00  0.00    +0.000 C 
ATOM      2  C   UNL     1       2.002   6.239  20.196  0.00  0.00    +0.000 A 
ATOM      3  C   UNL     1       1.611   5.194  21.015  0.00  0.00    +0.000 A 
ATOM      4  C   UNL     1       1.905   3.869  20.674  0.00  0.00    +0.000 A 
ATOM      5  C   UNL     1       1.459   2.772  21.612  0.00  0.00    +0.000 C 
ATOM      6  C   UNL     1       2.603   3.546  19.504  0.00  0.00    +0.000 A 
ATOM      7  N   UNL     1       2.804   2.237  19.293  0.00  0.00    +0.000 NA
ATOM      8  C   UNL     1       3.495   1.844  18.216  0.00  0.00    +0.000 A 
ATOM      9  C   UNL     1       4.019   2.720  17.298  0.00  0.00    +0.000 A 
ATOM     10  C   UNL     1       3.801   4.094  17.457  0.00  0.00    +0.000 A 
ATOM     11  C   UNL     1       3.062   4.561  18.624  0.00  0.00    +0.000 A 
ATOM     12  C   UNL     1       2.728   5.912  19.021  0.00  0.00    +0.000 A 
ENDROOT
BRANCH  12  13
ATOM     13  N   UNL     1       3.094   7.028  18.164  0.00  0.00    +0.000 N 
ATOM     14  O   UNL     1       2.226   7.481  17.407  0.00  0.00    +0.000 OA
ATOM     15  O   UNL     1       4.261   7.442  18.239  0.00  0.00    +0.000 OA
ENDBRANCH  12  13
BRANCH  10  16
ATOM     16  N   UNL     1       4.431   5.002  16.583  0.00  0.00    +0.000 N 
ATOM     17  H   UNL     1       3.756   5.647  16.173  0.00  0.00    +0.000 HD
BRANCH  16  18
ATOM     18  C   UNL     1       5.293   4.541  15.486  0.00  0.00    +0.000 C 
BRANCH  18  19
ATOM     19  C   UNL     1       6.684   5.134  15.716  0.00  0.00    +0.000 C 
BRANCH  19  20
ATOM     20  C   UNL     1       7.251   4.844  17.106  0.00  0.00    +0.000 C 
BRANCH  20  21
ATOM     21  N   UNL     1       7.099   5.941  18.079  0.00  0.00    +0.000 NA
ATOM     22  C   UNL     1       7.835   5.687  19.322  0.00  0.00    +0.000 C 
ATOM     23  C   UNL     1       7.568   7.196  17.480  0.00  0.00    +0.000 C 
ENDBRANCH  20  21
ENDBRANCH  19  20
ENDBRANCH  18  19
ENDBRANCH  16  18
ENDBRANCH  10  16
TORSDOF 6
ENDMDL
MODEL 5
REMARK VINA RESULT:      -6.4      2.000      3.022
REMARK  Name = 
REMARK  10 active torsions:
REMARK  status: ('A' for Active; 'I' for Inactive)
REMARK    1  A    between atoms: C_1  and  C_2
REMARK    2  A    between atoms: C_4  and  C_5
REMARK    3  A    between atoms: C_10  and  N_11
REMARK    4  A    between atoms: N_11  and  C_12
REMARK    5  A    between atoms: C_12  and  C_13
REMARK    6  A    between atoms: C_13  and  C_14
REMARK    7  A    between atoms: C_14  and  N_15
REMARK    8  A    between atoms: N_15  and  C_16
REMARK    9  A    between atoms: N_15  and  C_17
REMARK   10  A    between atoms: C_19  and  N_20
REMARK                            x       y       z     vdW  Elec       q    Type
REMARK                         _______ _______ _______ _____ _____    ______ ____
ROOT
ATOM      1  C   UNL     1       1.610   2.546  21.099  0.00  0.00    +0.000 C 
ATOM      2  C   UNL     1       2.039   3.780  20.348  0.00  0.00    +0.000 A 
ATOM      3  C   UNL     1       1.601   5.013  20.801  0.00  0.00    +0.000 A 
ATOM      4  C   UNL     1       2.003   6.192  20.164  0.00  0.00    +0.000 A 
ATOM      5  C   UNL     1       1.487   7.507  20.699  0.00  0.00    +0.000 C 
ATOM      6  C   UNL     1       2.850   6.177  19.049  0.00  0.00    +0.000 A 
ATOM      7  N   UNL     1       3.166   7.379  18.546  0.00  0.00    +0.000 NA
ATOM      8  C   UNL     1       3.944   7.452  17.459  0.00  0.00    +0.000 A 
ATOM      9  C   UNL     1       4.445   6.347  16.817  0.00  0.00    +0.000 A 
ATOM     10  C   UNL     1       4.173   5.073  17.330  0.00  0.00    +0.000 A 
ATOM     11  C   UNL     1       3.322   4.952  18.507  0.00  0.00    +0.000 A 
ATOM     12  C   UNL     1       2.881   3.764  19.206  0.00  0.00    +0.000 A 
ENDROOT
BRANCH  12  13
ATOM     13  N   UNL     1       3.351   2.457  18.776  0.00  0.00    +0.000 N 
ATOM     14  O   UNL     1       2.698   1.868  17.906  0.00  0.00    +0.000 OA
ATOM     15  O   UNL     1       4.372   2.014  19.323  0.00  0.00    +0.000 OA
ENDBRANCH  12  13
BRANCH  10  16
ATOM     16  N   UNL     1       4.590   3.933  16.613  0.00  0.00    +0.000 N 
ATOM     17  H   UNL     1       4.645   3.116  17.220  0.00  0.00    +0.000 HD
BRANCH  16  18
ATOM     18  C   UNL     1       5.816   3.940  15.804  0.00  0.00    +0.000 C 
BRANCH  18  19
ATOM     19  C   UNL     1       5.397   4.058  14.337  0.00  0.00    +0.000 C 
BRANCH  19  20
ATOM     20  C   UNL     1       6.552   3.863  13.354  0.00  0.00    +0.000 C 
BRANCH  20  21
ATOM     21  N   UNL     1       6.148   3.471  11.992  0.00  0.00    +0.000 NA
ATOM     22  C   UNL     1       6.774   2.215  11.566  0.00  0.00    +0.000 C 
ATOM     23  C   UNL     1       4.688   3.336  11.934  0.00  0.00    +0.000 C 
ENDBRANCH  20  21
ENDBRANCH  19  20
ENDBRANCH  18  19
ENDBRANCH  16  18
ENDBRANCH  10  16
TORSDOF 6
ENDMDL
MODEL 6
REMARK VINA RESULT:      -5.9      1.936      3.432
REMARK  Name = 
REMARK  10 active torsions:
REMARK  status: ('A' for Active; 'I' for Inactive)
REMARK    1  A    between atoms: C_1  and  C_2
REMARK    2  A    between atoms: C_4  and  C_5
REMARK    3  A    between atoms: C_10  and  N_11
REMARK    4  A    between atoms: N_11  and  C_12
REMARK    5  A    between atoms: C_12  and  C_13
REMARK    6  A    between atoms: C_13  and  C_14
REMARK    7  A    between atoms: C_14  and  N_15
REMARK    8  A    between atoms: N_15  and  C_16
REMARK    9  A    between atoms: N_15  and  C_17
REMARK   10  A    between atoms: C_19  and  N_20
REMARK                            x       y       z     vdW  Elec       q    Type
REMARK                         _______ _______ _______ _____ _____    ______ ____
ROOT
ATOM      1  C   UNL     1       1.436   7.473  20.716  0.00  0.00    +0.000 C 
ATOM      2  C   UNL     1       1.881   6.106  20.267  0.00  0.00    +0.000 A 
ATOM      3  C   UNL     1       1.550   5.014  21.050  0.00  0.00    +0.000 A 
ATOM      4  C   UNL     1       1.905   3.719  20.658  0.00  0.00    +0.000 A 
ATOM      5  C   UNL     1       1.523   2.568  21.558  0.00  0.00    +0.000 C 
ATOM      6  C   UNL     1       2.608   3.474  19.472  0.00  0.00    +0.000 A 
ATOM      7  N   UNL     1       2.871   2.185  19.210  0.00  0.00    +0.000 NA
ATOM      8  C   UNL     1       3.569   1.867  18.114  0.00  0.00    +0.000 A 
ATOM      9  C   UNL     1       4.041   2.800  17.225  0.00  0.00    +0.000 A 
ATOM     10  C   UNL     1       3.757   4.154  17.437  0.00  0.00    +0.000 A 
ATOM     11  C   UNL     1       3.007   4.542  18.625  0.00  0.00    +0.000 A 
ATOM     12  C   UNL     1       2.611   5.859  19.075  0.00  0.00    +0.000 A 
ENDROOT
BRANCH  12  13
ATOM     13  N   UNL     1       2.913   7.022  18.257  0.00  0.00    +0.000 N 
ATOM     14  O   UNL     1       4.035   7.531  18.372  0.00  0.00    +0.000 OA
ATOM     15  O   UNL     1       2.017   7.435  17.506  0.00  0.00    +0.000 OA
ENDBRANCH  12  13
BRANCH  10  16
ATOM     16  N   UNL     1       4.334   5.124  16.592  0.00  0.00    +0.000 N 
ATOM     17  H   UNL     1       3.622   5.746  16.207  0.00  0.00    +0.000 HD
BRANCH  16  18
ATOM     18  C   UNL     1       5.212   4.747  15.476  0.00  0.00    +0.000 C 
BRANCH  18  19
ATOM     19  C   UNL     1       6.566   5.419  15.711  0.00  0.00    +0.000 C 
BRANCH  19  20
ATOM     20  C   UNL     1       6.617   6.264  16.985  0.00  0.00    +0.000 C 
BRANCH  20  21
ATOM     21  N   UNL     1       7.399   5.676  18.087  0.00  0.00    +0.000 NA
ATOM     22  C   UNL     1       6.603   5.512  19.308  0.00  0.00    +0.000 C 
ATOM     23  C   UNL     1       7.932   4.375  17.671  0.00  0.00    +0.000 C 
ENDBRANCH  20  21
ENDBRANCH  19  20
ENDBRANCH  18  19
ENDBRANCH  16  18
ENDBRANCH  10  16
TORSDOF 6
ENDMDL
MODEL 7
REMARK VINA RESULT:      -5.9      2.567      5.965
REMARK  Name = 
REMARK  10 active torsions:
REMARK  status: ('A' for Active; 'I' for Inactive)
REMARK    1  A    between atoms: C_1  and  C_2
REMARK    2  A    between atoms: C_4  and  C_5
REMARK    3  A    between atoms: C_10  and  N_11
REMARK    4  A    between atoms: N_11  and  C_12
REMARK    5  A    between atoms: C_12  and  C_13
REMARK    6  A    between atoms: C_13  and  C_14
REMARK    7  A    between atoms: C_14  and  N_15
REMARK    8  A    between atoms: N_15  and  C_16
REMARK    9  A    between atoms: N_15  and  C_17
REMARK   10  A    between atoms: C_19  and  N_20
REMARK                            x       y       z     vdW  Elec       q    Type
REMARK                         _______ _______ _______ _____ _____    ______ ____
ROOT
ATOM      1  C   UNL     1       3.250   1.717  19.228  0.00  0.00    +0.000 C 
ATOM      2  C   UNL     1       3.388   3.138  18.747  0.00  0.00    +0.000 A 
ATOM      3  C   UNL     1       4.177   3.386  17.637  0.00  0.00    +0.000 A 
ATOM      4  C   UNL     1       4.307   4.681  17.126  0.00  0.00    +0.000 A 
ATOM      5  C   UNL     1       5.188   4.889  15.917  0.00  0.00    +0.000 C 
ATOM      6  C   UNL     1       3.655   5.774  17.712  0.00  0.00    +0.000 A 
ATOM      7  N   UNL     1       3.856   6.957  17.112  0.00  0.00    +0.000 NA
ATOM      8  C   UNL     1       3.298   8.058  17.629  0.00  0.00    +0.000 A 
ATOM      9  C   UNL     1       2.518   8.047  18.759  0.00  0.00    +0.000 A 
ATOM     10  C   UNL     1       2.250   6.829  19.396  0.00  0.00    +0.000 A 
ATOM     11  C   UNL     1       2.848   5.609  18.868  0.00  0.00    +0.000 A 
ATOM     12  C   UNL     1       2.744   4.250  19.352  0.00  0.00    +0.000 A 
ENDROOT
BRANCH  12  13
ATOM     13  N   UNL     1       1.895   3.953  20.494  0.00  0.00    +0.000 N 
ATOM     14  O   UNL     1       2.420   3.941  21.615  0.00  0.00    +0.000 OA
ATOM     15  O   UNL     1       0.699   3.717  20.265  0.00  0.00    +0.000 OA
ENDBRANCH  12  13
BRANCH  10  16
ATOM     16  N   UNL     1       1.546   6.826  20.617  0.00  0.00    +0.000 N 
ATOM     17  H   UNL     1       0.583   6.516  20.485  0.00  0.00    +0.000 HD
BRANCH  16  18
ATOM     18  C   UNL     1       1.492   8.016  21.476  0.00  0.00    +0.000 C 
BRANCH  18  19
ATOM     19  C   UNL     1       0.056   8.543  21.441  0.00  0.00    +0.000 C 
BRANCH  19  20
ATOM     20  C   UNL     1      -0.303   9.418  22.643  0.00  0.00    +0.000 C 
BRANCH  20  21
ATOM     21  N   UNL     1      -0.140  10.867  22.425  0.00  0.00    +0.000 NA
ATOM     22  C   UNL     1      -0.023  11.204  21.002  0.00  0.00    +0.000 C 
ATOM     23  C   UNL     1      -1.281  11.582  23.006  0.00  0.00    +0.000 C 
ENDBRANCH  20  21
ENDBRANCH  19  20
ENDBRANCH  18  19
ENDBRANCH  16  18
ENDBRANCH  10  16
TORSDOF 6
ENDMDL
MODEL 8
REMARK VINA RESULT:      -5.8      2.630      4.346
REMARK  Name = 
REMARK  10 active torsions:
REMARK  status: ('A' for Active; 'I' for Inactive)
REMARK    1  A    between atoms: C_1  and  C_2
REMARK    2  A    between atoms: C_4  and  C_5
REMARK    3  A    between atoms: C_10  and  N_11
REMARK    4  A    between atoms: N_11  and  C_12
REMARK    5  A    between atoms: C_12  and  C_13
REMARK    6  A    between atoms: C_13  and  C_14
REMARK    7  A    between atoms: C_14  and  N_15
REMARK    8  A    between atoms: N_15  and  C_16
REMARK    9  A    between atoms: N_15  and  C_17
REMARK   10  A    between atoms: C_19  and  N_20
REMARK                            x       y       z     vdW  Elec       q    Type
REMARK                         _______ _______ _______ _____ _____    ______ ____
ROOT
ATOM      1  C   UNL     1       1.795   7.649  20.580  0.00  0.00    +0.000 C 
ATOM      2  C   UNL     1       2.120   6.232  20.185  0.00  0.00    +0.000 A 
ATOM      3  C   UNL     1       1.701   5.204  21.010  0.00  0.00    +0.000 A 
ATOM      4  C   UNL     1       1.943   3.869  20.669  0.00  0.00    +0.000 A 
ATOM      5  C   UNL     1       1.467   2.791  21.615  0.00  0.00    +0.000 C 
ATOM      6  C   UNL     1       2.617   3.519  19.494  0.00  0.00    +0.000 A 
ATOM      7  N   UNL     1       2.769   2.203  19.283  0.00  0.00    +0.000 NA
ATOM      8  C   UNL     1       3.433   1.783  18.200  0.00  0.00    +0.000 A 
ATOM      9  C   UNL     1       3.980   2.637  17.275  0.00  0.00    +0.000 A 
ATOM     10  C   UNL     1       3.813   4.018  17.433  0.00  0.00    +0.000 A 
ATOM     11  C   UNL     1       3.103   4.514  18.606  0.00  0.00    +0.000 A 
ATOM     12  C   UNL     1       2.822   5.877  19.003  0.00  0.00    +0.000 A 
ENDROOT
BRANCH  12  13
ATOM     13  N   UNL     1       3.219   6.977  18.139  0.00  0.00    +0.000 N 
ATOM     14  O   UNL     1       2.334   7.548  17.490  0.00  0.00    +0.000 OA
ATOM     15  O   UNL     1       4.426   7.261  18.101  0.00  0.00    +0.000 OA
ENDBRANCH  12  13
BRANCH  10  16
ATOM     16  N   UNL     1       4.466   4.901  16.550  0.00  0.00    +0.000 N 
ATOM     17  H   UNL     1       3.854   5.171  15.780  0.00  0.00    +0.000 HD
BRANCH  16  18
ATOM     18  C   UNL     1       5.769   4.571  15.957  0.00  0.00    +0.000 C 
BRANCH  18  19
ATOM     19  C   UNL     1       5.630   4.705  14.439  0.00  0.00    +0.000 C 
BRANCH  19  20
ATOM     20  C   UNL     1       6.248   3.540  13.664  0.00  0.00    +0.000 C 
BRANCH  20  21
ATOM     21  N   UNL     1       6.084   3.614  12.201  0.00  0.00    +0.000 NA
ATOM     22  C   UNL     1       7.083   2.810  11.489  0.00  0.00    +0.000 C 
ATOM     23  C   UNL     1       4.738   3.160  11.835  0.00  0.00    +0.000 C 
ENDBRANCH  20  21
ENDBRANCH  19  20
ENDBRANCH  18  19
ENDBRANCH  16  18
ENDBRANCH  10  16
TORSDOF 6
ENDMDL
MODEL 9
REMARK VINA RESULT:      -5.8      2.438      5.795
REMARK  Name = 
REMARK  10 active torsions:
REMARK  status: ('A' for Active; 'I' for Inactive)
REMARK    1  A    between atoms: C_1  and  C_2
REMARK    2  A    between atoms: C_4  and  C_5
REMARK    3  A    between atoms: C_10  and  N_11
REMARK    4  A    between atoms: N_11  and  C_12
REMARK    5  A    between atoms: C_12  and  C_13
REMARK    6  A    between atoms: C_13  and  C_14
REMARK    7  A    between atoms: C_14  and  N_15
REMARK    8  A    between atoms: N_15  and  C_16
REMARK    9  A    between atoms: N_15  and  C_17
REMARK   10  A    between atoms: C_19  and  N_20
REMARK                            x       y       z     vdW  Elec       q    Type
REMARK                         _______ _______ _______ _____ _____    ______ ____
ROOT
ATOM      1  C   UNL     1       3.454   2.059  19.321  0.00  0.00    +0.000 C 
ATOM      2  C   UNL     1       3.488   3.484  18.832  0.00  0.00    +0.000 A 
ATOM      3  C   UNL     1       4.228   3.776  17.699  0.00  0.00    +0.000 A 
ATOM      4  C   UNL     1       4.259   5.074  17.181  0.00  0.00    +0.000 A 
ATOM      5  C   UNL     1       5.091   5.333  15.947  0.00  0.00    +0.000 C 
ATOM      6  C   UNL     1       3.557   6.126  17.782  0.00  0.00    +0.000 A 
ATOM      7  N   UNL     1       3.664   7.316  17.173  0.00  0.00    +0.000 NA
ATOM      8  C   UNL     1       3.051   8.382  17.703  0.00  0.00    +0.000 A 
ATOM      9  C   UNL     1       2.307   8.327  18.854  0.00  0.00    +0.000 A 
ATOM     10  C   UNL     1       2.136   7.098  19.503  0.00  0.00    +0.000 A 
ATOM     11  C   UNL     1       2.795   5.916  18.961  0.00  0.00    +0.000 A 
ATOM     12  C   UNL     1       2.792   4.555  19.453  0.00  0.00    +0.000 A 
ENDROOT
BRANCH  12  13
ATOM     13  N   UNL     1       1.996   4.210  20.620  0.00  0.00    +0.000 N 
ATOM     14  O   UNL     1       2.553   4.237  21.725  0.00  0.00    +0.000 OA
ATOM     15  O   UNL     1       0.812   3.896  20.426  0.00  0.00    +0.000 OA
ENDBRANCH  12  13
BRANCH  10  16
ATOM     16  N   UNL     1       1.468   7.055  20.744  0.00  0.00    +0.000 N 
ATOM     17  H   UNL     1       0.537   6.651  20.647  0.00  0.00    +0.000 HD
BRANCH  16  18
ATOM     18  C   UNL     1       1.322   8.255  21.579  0.00  0.00    +0.000 C 
BRANCH  18  19
ATOM     19  C   UNL     1      -0.140   8.696  21.497  0.00  0.00    +0.000 C 
BRANCH  19  20
ATOM     20  C   UNL     1      -0.352  10.176  21.819  0.00  0.00    +0.000 C 
BRANCH  20  21
ATOM     21  N   UNL     1      -0.441  11.059  20.643  0.00  0.00    +0.000 NA
ATOM     22  C   UNL     1       0.801  11.803  20.411  0.00  0.00    +0.000 C 
ATOM     23  C   UNL     1      -0.764  10.262  19.455  0.00  0.00    +0.000 C 
ENDBRANCH  20  21
ENDBRANCH  19  20
ENDBRANCH  18  19
ENDBRANCH  16  18
ENDBRANCH  10  16
TORSDOF 6
ENDMDL
