MODEL 1
REMARK VINA RESULT:      -8.2      0.000      0.000
REMARK  Name = 
REMARK  2 active torsions:
REMARK  status: ('A' for Active; 'I' for Inactive)
REMARK    1  A    between atoms: C_1  and  N_2
REMARK    2  A    between atoms: N_8  and  C_9
REMARK                            x       y       z     vdW  Elec       q    Type
REMARK                         _______ _______ _______ _____ _____    ______ ____
ROOT
ATOM      1  C   UNL     1       3.398   1.730  18.180  0.00  0.00    +0.000 C 
ATOM      2  N   UNL     1       3.289   3.035  18.786  0.00  0.00    +0.000 N 
ATOM      3  C   UNL     1       4.299   3.593  19.636  0.00  0.00    +0.000 C 
ATOM      4  C   UNL     1       4.147   5.086  19.425  0.00  0.00    +0.000 C 
ATOM      5  C   UNL     1       2.657   5.282  19.055  0.00  0.00    +0.000 C 
ATOM      6  C   UNL     1       2.476   6.290  17.903  0.00  0.00    +0.000 C 
ATOM      7  C   UNL     1       2.700   7.731  18.343  0.00  0.00    +0.000 C 
ATOM      8  N   UNL     1       1.834   7.992  19.494  0.00  0.00    +0.000 N 
ATOM      9  C   UNL     1       2.109   7.156  20.664  0.00  0.00    +0.000 C 
ATOM     10  C   UNL     1       1.822   5.696  20.277  0.00  0.00    +0.000 C 
ATOM     11  C   UNL     1       2.255   3.911  18.521  0.00  0.00    +0.000 C 
ATOM     12  O   UNL     1       1.223   3.644  17.913  0.00  0.00    +0.000 OA
ENDROOT
BRANCH   8  13
ATOM     13  C   UNL     1       1.098   9.172  19.585  0.00  0.00    +0.000 A 
ATOM     14  C   UNL     1       0.932  10.010  18.467  0.00  0.00    +0.000 A 
ATOM     15  N   UNL     1       0.219  11.157  18.419  0.00  0.00    +0.000 NA
ATOM     16  C   UNL     1      -0.380  11.523  19.563  0.00  0.00    +0.000 A 
ATOM     17  C   UNL     1      -0.307  10.809  20.760  0.00  0.00    +0.000 A 
ATOM     18  C   UNL     1      -0.968  11.277  21.915  0.00  0.00    +0.000 A 
ATOM     19  C   UNL     1      -0.906  10.570  23.111  0.00  0.00    +0.000 A 
ATOM     20  C   UNL     1      -0.223   9.368  23.156  0.00  0.00    +0.000 A 
ATOM     21  C   UNL     1       0.398   8.882  22.003  0.00  0.00    +0.000 A 
ATOM     22  C   UNL     1       0.430   9.600  20.779  0.00  0.00    +0.000 A 
ENDBRANCH   8  13
TORSDOF 1
ENDMDL
MODEL 2
REMARK VINA RESULT:      -7.9      1.516      2.531
REMARK  Name = 
REMARK  2 active torsions:
REMARK  status: ('A' for Active; 'I' for Inactive)
REMARK    1  A    between atoms: C_1  and  N_2
REMARK    2  A    between atoms: N_8  and  C_9
REMARK                            x       y       z     vdW  Elec       q    Type
REMARK                         _______ _______ _______ _____ _____    ______ ____
ROOT
ATOM      1  C   UNL     1       3.480   2.738  17.459  0.00  0.00    +0.000 C 
ATOM      2  N   UNL     1       3.284   3.922  18.259  0.00  0.00    +0.000 N 
ATOM      3  C   UNL     1       4.265   4.423  19.176  0.00  0.00    +0.000 C 
ATOM      4  C   UNL     1       3.992   5.913  19.199  0.00  0.00    +0.000 C 
ATOM      5  C   UNL     1       2.485   6.043  18.877  0.00  0.00    +0.000 C 
ATOM      6  C   UNL     1       2.201   7.198  17.897  0.00  0.00    +0.000 C 
ATOM      7  C   UNL     1       2.321   8.569  18.551  0.00  0.00    +0.000 C 
ATOM      8  N   UNL     1       1.463   8.580  19.737  0.00  0.00    +0.000 N 
ATOM      9  C   UNL     1       1.827   7.600  20.761  0.00  0.00    +0.000 C 
ATOM     10  C   UNL     1       1.646   6.197  20.156  0.00  0.00    +0.000 C 
ATOM     11  C   UNL     1       2.178   4.743  18.142  0.00  0.00    +0.000 C 
ATOM     12  O   UNL     1       1.158   4.490  17.510  0.00  0.00    +0.000 OA
ENDROOT
BRANCH   8  13
ATOM     13  C   UNL     1       0.639   9.669  20.015  0.00  0.00    +0.000 A 
ATOM     14  C   UNL     1       0.813  10.427  21.188  0.00  0.00    +0.000 A 
ATOM     15  N   UNL     1       0.105  11.520  21.554  0.00  0.00    +0.000 NA
ATOM     16  C   UNL     1      -0.861  11.902  20.704  0.00  0.00    +0.000 A 
ATOM     17  C   UNL     1      -1.166  11.256  19.505  0.00  0.00    +0.000 A 
ATOM     18  C   UNL     1      -2.205  11.731  18.679  0.00  0.00    +0.000 A 
ATOM     19  C   UNL     1      -2.513  11.096  17.480  0.00  0.00    +0.000 A 
ATOM     20  C   UNL     1      -1.759  10.010  17.072  0.00  0.00    +0.000 A 
ATOM     21  C   UNL     1      -0.704   9.564  17.869  0.00  0.00    +0.000 A 
ATOM     22  C   UNL     1      -0.397  10.126  19.135  0.00  0.00    +0.000 A 
ENDBRANCH   8  13
TORSDOF 1
ENDMDL
MODEL 3
REMARK VINA RESULT:      -7.5      2.298      6.870
REMARK  Name = 
REMARK  2 active torsions:
REMARK  status: ('A' for Active; 'I' for Inactive)
REMARK    1  A    between atoms: C_1  and  N_2
REMARK    2  A    between atoms: N_8  and  C_9
REMARK                            x       y       z     vdW  Elec       q    Type
REMARK                         _______ _______ _______ _____ _____    ______ ____
ROOT
ATOM      1  C   UNL     1      -1.972  12.567  19.554  0.00  0.00    +0.000 C 
ATOM      2  N   UNL     1      -0.786  11.791  19.289  0.00  0.00    +0.000 N 
ATOM      3  C   UNL     1       0.542  12.322  19.398  0.00  0.00    +0.000 C 
ATOM      4  C   UNL     1       1.375  11.108  19.754  0.00  0.00    +0.000 C 
ATOM      5  C   UNL     1       0.615   9.912  19.132  0.00  0.00    +0.000 C 
ATOM      6  C   UNL     1       0.572   8.698  20.080  0.00  0.00    +0.000 C 
ATOM      7  C   UNL     1       1.910   7.977  20.176  0.00  0.00    +0.000 C 
ATOM      8  N   UNL     1       2.343   7.646  18.817  0.00  0.00    +0.000 N 
ATOM      9  C   UNL     1       2.558   8.804  17.948  0.00  0.00    +0.000 C 
ATOM     10  C   UNL     1       1.207   9.516  17.769  0.00  0.00    +0.000 C 
ATOM     11  C   UNL     1      -0.810  10.439  19.008  0.00  0.00    +0.000 C 
ATOM     12  O   UNL     1      -1.810   9.773  18.761  0.00  0.00    +0.000 OA
ENDROOT
BRANCH   8  13
ATOM     13  C   UNL     1       2.865   6.389  18.518  0.00  0.00    +0.000 A 
ATOM     14  C   UNL     1       3.926   6.244  17.606  0.00  0.00    +0.000 A 
ATOM     15  N   UNL     1       4.539   5.089  17.259  0.00  0.00    +0.000 NA
ATOM     16  C   UNL     1       4.069   3.978  17.848  0.00  0.00    +0.000 A 
ATOM     17  C   UNL     1       3.019   3.949  18.767  0.00  0.00    +0.000 A 
ATOM     18  C   UNL     1       2.593   2.729  19.330  0.00  0.00    +0.000 A 
ATOM     19  C   UNL     1       1.551   2.691  20.250  0.00  0.00    +0.000 A 
ATOM     20  C   UNL     1       0.954   3.873  20.652  0.00  0.00    +0.000 A 
ATOM     21  C   UNL     1       1.403   5.086  20.126  0.00  0.00    +0.000 A 
ATOM     22  C   UNL     1       2.408   5.174  19.129  0.00  0.00    +0.000 A 
ENDBRANCH   8  13
TORSDOF 1
ENDMDL
MODEL 4
REMARK VINA RESULT:      -7.3      2.262      7.397
REMARK  Name = 
REMARK  2 active torsions:
REMARK  status: ('A' for Active; 'I' for Inactive)
REMARK    1  A    between atoms: C_1  and  N_2
REMARK    2  A    between atoms: N_8  and  C_9
REMARK                            x       y       z     vdW  Elec       q    Type
REMARK                         _______ _______ _______ _____ _____    ______ ____
ROOT
ATOM      1  C   UNL     1      -1.760  12.832  19.141  0.00  0.00    +0.000 C 
ATOM      2  N   UNL     1      -0.624  11.957  18.984  0.00  0.00    +0.000 N 
ATOM      3  C   UNL     1       0.734  12.415  19.042  0.00  0.00    +0.000 C 
ATOM      4  C   UNL     1       1.488  11.204  19.552  0.00  0.00    +0.000 C 
ATOM      5  C   UNL     1       0.658   9.990  19.071  0.00  0.00    +0.000 C 
ATOM      6  C   UNL     1       0.535   8.906  20.160  0.00  0.00    +0.000 C 
ATOM      7  C   UNL     1       1.826   8.121  20.357  0.00  0.00    +0.000 C 
ATOM      8  N   UNL     1       2.241   7.600  19.053  0.00  0.00    +0.000 N 
ATOM      9  C   UNL     1       2.531   8.628  18.052  0.00  0.00    +0.000 C 
ATOM     10  C   UNL     1       1.227   9.395  17.773  0.00  0.00    +0.000 C 
ATOM     11  C   UNL     1      -0.732  10.585  18.869  0.00  0.00    +0.000 C 
ATOM     12  O   UNL     1      -1.771   9.957  18.695  0.00  0.00    +0.000 OA
ENDROOT
BRANCH   8  13
ATOM     13  C   UNL     1       2.685   6.287  18.914  0.00  0.00    +0.000 A 
ATOM     14  C   UNL     1       2.179   5.261  19.733  0.00  0.00    +0.000 A 
ATOM     15  N   UNL     1       2.502   3.949  19.675  0.00  0.00    +0.000 NA
ATOM     16  C   UNL     1       3.403   3.610  18.740  0.00  0.00    +0.000 A 
ATOM     17  C   UNL     1       4.006   4.506  17.856  0.00  0.00    +0.000 A 
ATOM     18  C   UNL     1       4.948   4.054  16.909  0.00  0.00    +0.000 A 
ATOM     19  C   UNL     1       5.550   4.938  16.020  0.00  0.00    +0.000 A 
ATOM     20  C   UNL     1       5.185   6.273  16.037  0.00  0.00    +0.000 A 
ATOM     21  C   UNL     1       4.223   6.715  16.946  0.00  0.00    +0.000 A 
ATOM     22  C   UNL     1       3.635   5.871  17.924  0.00  0.00    +0.000 A 
ENDBRANCH   8  13
TORSDOF 1
ENDMDL
MODEL 5
REMARK VINA RESULT:      -7.3      2.561      6.965
REMARK  Name = 
REMARK  2 active torsions:
REMARK  status: ('A' for Active; 'I' for Inactive)
REMARK    1  A    between atoms: C_1  and  N_2
REMARK    2  A    between atoms: N_8  and  C_9
REMARK                            x       y       z     vdW  Elec       q    Type
REMARK                         _______ _______ _______ _____ _____    ______ ____
ROOT
ATOM      1  C   UNL     1      -0.046  13.665  18.734  0.00  0.00    +0.000 C 
ATOM      2  N   UNL     1       0.127  12.271  19.060  0.00  0.00    +0.000 N 
ATOM      3  C   UNL     1      -0.951  11.423  19.479  0.00  0.00    +0.000 C 
ATOM      4  C   UNL     1      -0.516  10.049  19.009  0.00  0.00    +0.000 C 
ATOM      5  C   UNL     1       1.031  10.103  19.012  0.00  0.00    +0.000 C 
ATOM      6  C   UNL     1       1.634   9.428  17.765  0.00  0.00    +0.000 C 
ATOM      7  C   UNL     1       1.549   7.908  17.819  0.00  0.00    +0.000 C 
ATOM      8  N   UNL     1       2.153   7.466  19.077  0.00  0.00    +0.000 N 
ATOM      9  C   UNL     1       1.482   7.961  20.280  0.00  0.00    +0.000 C 
ATOM     10  C   UNL     1       1.614   9.493  20.297  0.00  0.00    +0.000 C 
ATOM     11  C   UNL     1       1.321  11.596  18.901  0.00  0.00    +0.000 C 
ATOM     12  O   UNL     1       2.409  12.106  18.656  0.00  0.00    +0.000 OA
ENDROOT
BRANCH   8  13
ATOM     13  C   UNL     1       3.026   6.380  19.110  0.00  0.00    +0.000 A 
ATOM     14  C   UNL     1       4.321   6.477  18.569  0.00  0.00    +0.000 A 
ATOM     15  N   UNL     1       5.269   5.512  18.569  0.00  0.00    +0.000 NA
ATOM     16  C   UNL     1       4.919   4.348  19.141  0.00  0.00    +0.000 A 
ATOM     17  C   UNL     1       3.674   4.089  19.715  0.00  0.00    +0.000 A 
ATOM     18  C   UNL     1       3.398   2.831  20.289  0.00  0.00    +0.000 A 
ATOM     19  C   UNL     1       2.162   2.564  20.868  0.00  0.00    +0.000 A 
ATOM     20  C   UNL     1       1.205   3.563  20.920  0.00  0.00    +0.000 A 
ATOM     21  C   UNL     1       1.492   4.822  20.389  0.00  0.00    +0.000 A 
ATOM     22  C   UNL     1       2.706   5.123  19.720  0.00  0.00    +0.000 A 
ENDBRANCH   8  13
TORSDOF 1
ENDMDL
MODEL 6
REMARK VINA RESULT:      -7.0      2.645      7.158
REMARK  Name = 
REMARK  2 active torsions:
REMARK  status: ('A' for Active; 'I' for Inactive)
REMARK    1  A    between atoms: C_1  and  N_2
REMARK    2  A    between atoms: N_8  and  C_9
REMARK                            x       y       z     vdW  Elec       q    Type
REMARK                         _______ _______ _______ _____ _____    ______ ____
ROOT
ATOM      1  C   UNL     1      -0.416  13.182  21.854  0.00  0.00    +0.000 C 
ATOM      2  N   UNL     1      -0.123  11.845  21.399  0.00  0.00    +0.000 N 
ATOM      3  C   UNL     1      -1.076  10.775  21.437  0.00  0.00    +0.000 C 
ATOM      4  C   UNL     1      -0.650   9.887  20.286  0.00  0.00    +0.000 C 
ATOM      5  C   UNL     1       0.873  10.124  20.148  0.00  0.00    +0.000 C 
ATOM      6  C   UNL     1       1.309  10.243  18.675  0.00  0.00    +0.000 C 
ATOM      7  C   UNL     1       1.311   8.903  17.951  0.00  0.00    +0.000 C 
ATOM      8  N   UNL     1       2.127   7.970  18.731  0.00  0.00    +0.000 N 
ATOM      9  C   UNL     1       1.628   7.709  20.082  0.00  0.00    +0.000 C 
ATOM     10  C   UNL     1       1.681   9.031  20.867  0.00  0.00    +0.000 C 
ATOM     11  C   UNL     1       1.065  11.495  20.788  0.00  0.00    +0.000 C 
ATOM     12  O   UNL     1       2.074  12.190  20.723  0.00  0.00    +0.000 OA
ENDROOT
BRANCH   8  13
ATOM     13  C   UNL     1       3.050   7.132  18.109  0.00  0.00    +0.000 A 
ATOM     14  C   UNL     1       4.275   7.632  17.632  0.00  0.00    +0.000 A 
ATOM     15  N   UNL     1       5.263   6.920  17.043  0.00  0.00    +0.000 NA
ATOM     16  C   UNL     1       5.030   5.605  16.901  0.00  0.00    +0.000 A 
ATOM     17  C   UNL     1       3.865   4.956  17.312  0.00  0.00    +0.000 A 
ATOM     18  C   UNL     1       3.711   3.568  17.116  0.00  0.00    +0.000 A 
ATOM     19  C   UNL     1       2.556   2.911  17.527  0.00  0.00    +0.000 A 
ATOM     20  C   UNL     1       1.564   3.622  18.178  0.00  0.00    +0.000 A 
ATOM     21  C   UNL     1       1.733   4.988  18.410  0.00  0.00    +0.000 A 
ATOM     22  C   UNL     1       2.856   5.721  17.944  0.00  0.00    +0.000 A 
ENDBRANCH   8  13
TORSDOF 1
ENDMDL
MODEL 7
REMARK VINA RESULT:      -7.0      2.403      7.398
REMARK  Name = 
REMARK  2 active torsions:
REMARK  status: ('A' for Active; 'I' for Inactive)
REMARK    1  A    between atoms: C_1  and  N_2
REMARK    2  A    between atoms: N_8  and  C_9
REMARK                            x       y       z     vdW  Elec       q    Type
REMARK                         _______ _______ _______ _____ _____    ______ ____
ROOT
ATOM      1  C   UNL     1      -1.259  12.573  20.427  0.00  0.00    +0.000 C 
ATOM      2  N   UNL     1      -0.243  11.717  19.868  0.00  0.00    +0.000 N 
ATOM      3  C   UNL     1       1.121  12.124  19.693  0.00  0.00    +0.000 C 
ATOM      4  C   UNL     1       1.890  10.824  19.800  0.00  0.00    +0.000 C 
ATOM      5  C   UNL     1       0.899   9.738  19.319  0.00  0.00    +0.000 C 
ATOM      6  C   UNL     1       0.950   8.476  20.202  0.00  0.00    +0.000 C 
ATOM      7  C   UNL     1       2.199   7.639  19.961  0.00  0.00    +0.000 C 
ATOM      8  N   UNL     1       2.284   7.356  18.527  0.00  0.00    +0.000 N 
ATOM      9  C   UNL     1       2.412   8.543  17.680  0.00  0.00    +0.000 C 
ATOM     10  C   UNL     1       1.130   9.378  17.842  0.00  0.00    +0.000 C 
ATOM     11  C   UNL     1      -0.460  10.391  19.545  0.00  0.00    +0.000 C 
ATOM     12  O   UNL     1      -1.550   9.830  19.505  0.00  0.00    +0.000 OA
ENDROOT
BRANCH   8  13
ATOM     13  C   UNL     1       2.602   6.080  18.066  0.00  0.00    +0.000 A 
ATOM     14  C   UNL     1       1.643   5.050  18.067  0.00  0.00    +0.000 A 
ATOM     15  N   UNL     1       1.817   3.787  17.618  0.00  0.00    +0.000 NA
ATOM     16  C   UNL     1       3.035   3.501  17.131  0.00  0.00    +0.000 A 
ATOM     17  C   UNL     1       4.096   4.406  17.067  0.00  0.00    +0.000 A 
ATOM     18  C   UNL     1       5.343   4.011  16.541  0.00  0.00    +0.000 A 
ATOM     19  C   UNL     1       6.406   4.905  16.468  0.00  0.00    +0.000 A 
ATOM     20  C   UNL     1       6.221   6.215  16.875  0.00  0.00    +0.000 A 
ATOM     21  C   UNL     1       4.974   6.619  17.357  0.00  0.00    +0.000 A 
ATOM     22  C   UNL     1       3.882   5.728  17.524  0.00  0.00    +0.000 A 
ENDBRANCH   8  13
TORSDOF 1
ENDMDL
MODEL 8
REMARK VINA RESULT:      -6.9      2.490      7.365
REMARK  Name = 
REMARK  2 active torsions:
REMARK  status: ('A' for Active; 'I' for Inactive)
REMARK    1  A    between atoms: C_1  and  N_2
REMARK    2  A    between atoms: N_8  and  C_9
REMARK                            x       y       z     vdW  Elec       q    Type
REMARK                         _______ _______ _______ _____ _____    ______ ____
ROOT
ATOM      1  C   UNL     1       0.047  13.391  18.471  0.00  0.00    +0.000 C 
ATOM      2  N   UNL     1       0.219  12.015  18.870  0.00  0.00    +0.000 N 
ATOM      3  C   UNL     1      -0.852  11.202  19.367  0.00  0.00    +0.000 C 
ATOM      4  C   UNL     1      -0.442   9.801  18.962  0.00  0.00    +0.000 C 
ATOM      5  C   UNL     1       1.104   9.840  18.915  0.00  0.00    +0.000 C 
ATOM      6  C   UNL     1       1.664   9.090  17.690  0.00  0.00    +0.000 C 
ATOM      7  C   UNL     1       1.568   7.577  17.832  0.00  0.00    +0.000 C 
ATOM      8  N   UNL     1       2.207   7.200  19.094  0.00  0.00    +0.000 N 
ATOM      9  C   UNL     1       1.577   7.767  20.288  0.00  0.00    +0.000 C 
ATOM     10  C   UNL     1       1.722   9.297  20.214  0.00  0.00    +0.000 C 
ATOM     11  C   UNL     1       1.402  11.321  18.712  0.00  0.00    +0.000 C 
ATOM     12  O   UNL     1       2.486  11.807  18.406  0.00  0.00    +0.000 OA
ENDROOT
BRANCH   8  13
ATOM     13  C   UNL     1       3.073   6.110  19.162  0.00  0.00    +0.000 A 
ATOM     14  C   UNL     1       2.752   4.977  19.931  0.00  0.00    +0.000 A 
ATOM     15  N   UNL     1       3.489   3.849  20.051  0.00  0.00    +0.000 NA
ATOM     16  C   UNL     1       4.643   3.828  19.365  0.00  0.00    +0.000 A 
ATOM     17  C   UNL     1       5.109   4.871  18.564  0.00  0.00    +0.000 A 
ATOM     18  C   UNL     1       6.339   4.758  17.883  0.00  0.00    +0.000 A 
ATOM     19  C   UNL     1       6.809   5.790  17.079  0.00  0.00    +0.000 A 
ATOM     20  C   UNL     1       6.037   6.925  16.908  0.00  0.00    +0.000 A 
ATOM     21  C   UNL     1       4.800   7.022  17.547  0.00  0.00    +0.000 A 
ATOM     22  C   UNL     1       4.309   6.033  18.439  0.00  0.00    +0.000 A 
ENDBRANCH   8  13
TORSDOF 1
ENDMDL
MODEL 9
REMARK VINA RESULT:      -6.9      2.660      7.073
REMARK  Name = 
REMARK  2 active torsions:
REMARK  status: ('A' for Active; 'I' for Inactive)
REMARK    1  A    between atoms: C_1  and  N_2
REMARK    2  A    between atoms: N_8  and  C_9
REMARK                            x       y       z     vdW  Elec       q    Type
REMARK                         _______ _______ _______ _____ _____    ______ ____
ROOT
ATOM      1  C   UNL     1      -0.340  14.238  21.437  0.00  0.00    +0.000 C 
ATOM      2  N   UNL     1      -0.210  12.836  21.123  0.00  0.00    +0.000 N 
ATOM      3  C   UNL     1      -1.322  11.932  21.088  0.00  0.00    +0.000 C 
ATOM      4  C   UNL     1      -0.890  10.888  20.078  0.00  0.00    +0.000 C 
ATOM      5  C   UNL     1       0.655  10.876  20.159  0.00  0.00    +0.000 C 
ATOM      6  C   UNL     1       1.306  10.793  18.764  0.00  0.00    +0.000 C 
ATOM      7  C   UNL     1       1.190   9.408  18.142  0.00  0.00    +0.000 C 
ATOM      8  N   UNL     1       1.724   8.437  19.099  0.00  0.00    +0.000 N 
ATOM      9  C   UNL     1       1.005   8.379  20.373  0.00  0.00    +0.000 C 
ATOM     10  C   UNL     1       1.164   9.743  21.065  0.00  0.00    +0.000 C 
ATOM     11  C   UNL     1       0.979  12.255  20.726  0.00  0.00    +0.000 C 
ATOM     12  O   UNL     1       2.086  12.779  20.769  0.00  0.00    +0.000 OA
ENDROOT
BRANCH   8  13
ATOM     13  C   UNL     1       2.575   7.414  18.683  0.00  0.00    +0.000 A 
ATOM     14  C   UNL     1       3.471   7.608  17.616  0.00  0.00    +0.000 A 
ATOM     15  N   UNL     1       4.366   6.711  17.142  0.00  0.00    +0.000 NA
ATOM     16  C   UNL     1       4.381   5.518  17.759  0.00  0.00    +0.000 A 
ATOM     17  C   UNL     1       3.553   5.165  18.825  0.00  0.00    +0.000 A 
ATOM     18  C   UNL     1       3.641   3.884  19.406  0.00  0.00    +0.000 A 
ATOM     19  C   UNL     1       2.823   3.523  20.472  0.00  0.00    +0.000 A 
ATOM     20  C   UNL     1       1.943   4.453  20.998  0.00  0.00    +0.000 A 
ATOM     21  C   UNL     1       1.884   5.736  20.451  0.00  0.00    +0.000 A 
ATOM     22  C   UNL     1       2.639   6.129  19.316  0.00  0.00    +0.000 A 
ENDBRANCH   8  13
TORSDOF 1
ENDMDL
