MODEL 1
REMARK VINA RESULT:      -7.5      0.000      0.000
REMARK  Name = 
REMARK  11 active torsions:
REMARK  status: ('A' for Active; 'I' for Inactive)
REMARK    1  A    between atoms: C_1  and  C_2
REMARK    2  A    between atoms: C_2  and  N_3
REMARK    3  A    between atoms: C_4  and  C_5
REMARK    4  A    between atoms: C_12  and  C_13
REMARK    5  A    between atoms: C_13  and  N_14
REMARK    6  A    between atoms: N_14  and  C_15
REMARK    7  A    between atoms: C_15  and  C_16
REMARK    8  A    between atoms: C_21  and  O_22
REMARK    9  A    between atoms: C_24  and  C_25
REMARK   10  A    between atoms: C_24  and  C_26
REMARK   11  A    between atoms: C_26  and  O_27
REMARK                            x       y       z     vdW  Elec       q    Type
REMARK                         _______ _______ _______ _____ _____    ______ ____
ROOT
ATOM      1  N   UNL     1       5.698   5.321  18.174  0.00  0.00    +0.000 NA
ATOM      2  C   UNL     1       4.228   5.139  18.106  0.00  0.00    +0.000 C 
ATOM      3  C   UNL     1       4.030   4.794  16.615  0.00  0.00    +0.000 C 
ATOM      4  C   UNL     1       5.097   5.637  15.893  0.00  0.00    +0.000 C 
ATOM      5  C   UNL     1       6.186   5.974  16.941  0.00  0.00    +0.000 C 
ATOM      6  C   UNL     1       6.399   7.495  17.047  0.00  0.00    +0.000 C 
ENDROOT
BRANCH   2   7
ATOM      7  C   UNL     1       3.374   6.309  18.619  0.00  0.00    +0.000 A 
ATOM      8  C   UNL     1       2.799   6.356  19.899  0.00  0.00    +0.000 A 
ATOM      9  C   UNL     1       1.957   7.406  20.282  0.00  0.00    +0.000 A 
ATOM     10  C   UNL     1       1.688   8.440  19.394  0.00  0.00    +0.000 A 
ATOM     11 CL   UNL     1       0.601   9.695  19.842  0.00  0.00    +0.000 Cl
ATOM     12  C   UNL     1       2.294   8.457  18.143  0.00  0.00    +0.000 A 
ATOM     13  C   UNL     1       3.141   7.408  17.770  0.00  0.00    +0.000 A 
ENDBRANCH   2   7
BRANCH   1  15
ATOM     14  C   UNL     1       7.751   5.380  19.546  0.00  0.00    +0.000 C 
ATOM     15  C   UNL     1       6.275   5.749  19.442  0.00  0.00    +0.000 C 
ENDBRANCH   1  15
BRANCH   3  16
ATOM     16  C   UNL     1       4.219   3.294  16.311  0.00  0.00    +0.000 C 
BRANCH  16  17
ATOM     17  N   UNL     1       4.522   2.565  17.539  0.00  0.00    +0.000 NA
ATOM     18  H   UNL     1       4.686   3.221  18.303  0.00  0.00    +0.000 HD
BRANCH  17  19
ATOM     19  C   UNL     1       3.416   1.696  17.940  0.00  0.00    +0.000 C 
BRANCH  19  20
ATOM     20  C   UNL     1       2.725   2.290  19.142  0.00  0.00    +0.000 A 
ATOM     21  C   UNL     1       1.362   2.615  19.070  0.00  0.00    +0.000 A 
ATOM     22  C   UNL     1       0.685   3.091  20.191  0.00  0.00    +0.000 A 
ATOM     23  C   UNL     1       1.361   3.240  21.402  0.00  0.00    +0.000 A 
ATOM     24  C   UNL     1       2.716   2.918  21.490  0.00  0.00    +0.000 A 
ATOM     25  C   UNL     1       3.387   2.442  20.364  0.00  0.00    +0.000 A 
BRANCH  25  26
ATOM     26  O   UNL     1       4.709   2.099  20.446  0.00  0.00    +0.000 OA
ATOM     27  H   UNL     1       5.072   2.477  21.264  0.00  0.00    +0.000 HD
ENDBRANCH  25  26
ENDBRANCH  19  20
ENDBRANCH  17  19
ENDBRANCH  16  17
ENDBRANCH   3  16
BRANCH   5  28
ATOM     28  C   UNL     1       7.547   5.350  16.514  0.00  0.00    +0.000 C 
BRANCH  28  29
ATOM     29  O   UNL     1       7.697   5.326  15.098  0.00  0.00    +0.000 OA
ATOM     30  H   UNL     1       8.635   5.560  14.953  0.00  0.00    +0.000 HD
ENDBRANCH  28  29
ENDBRANCH   5  28
TORSDOF 9
ENDMDL
MODEL 2
REMARK VINA RESULT:      -7.5      0.425      1.017
REMARK  Name = 
REMARK  11 active torsions:
REMARK  status: ('A' for Active; 'I' for Inactive)
REMARK    1  A    between atoms: C_1  and  C_2
REMARK    2  A    between atoms: C_2  and  N_3
REMARK    3  A    between atoms: C_4  and  C_5
REMARK    4  A    between atoms: C_12  and  C_13
REMARK    5  A    between atoms: C_13  and  N_14
REMARK    6  A    between atoms: N_14  and  C_15
REMARK    7  A    between atoms: C_15  and  C_16
REMARK    8  A    between atoms: C_21  and  O_22
REMARK    9  A    between atoms: C_24  and  C_25
REMARK   10  A    between atoms: C_24  and  C_26
REMARK   11  A    between atoms: C_26  and  O_27
REMARK                            x       y       z     vdW  Elec       q    Type
REMARK                         _______ _______ _______ _____ _____    ______ ____
ROOT
ATOM      1  N   UNL     1       5.683   5.383  18.183  0.00  0.00    +0.000 NA
ATOM      2  C   UNL     1       4.223   5.169  18.039  0.00  0.00    +0.000 C 
ATOM      3  C   UNL     1       4.111   4.797  16.546  0.00  0.00    +0.000 C 
ATOM      4  C   UNL     1       5.199   5.652  15.869  0.00  0.00    +0.000 C 
ATOM      5  C   UNL     1       6.223   6.027  16.967  0.00  0.00    +0.000 C 
ATOM      6  C   UNL     1       6.400   7.554  17.060  0.00  0.00    +0.000 C 
ENDROOT
BRANCH   2   7
ATOM      7  C   UNL     1       3.319   6.329  18.487  0.00  0.00    +0.000 A 
ATOM      8  C   UNL     1       3.055   7.463  17.701  0.00  0.00    +0.000 A 
ATOM      9  C   UNL     1       2.295   8.530  18.194  0.00  0.00    +0.000 A 
ATOM     10  C   UNL     1       1.771   8.474  19.479  0.00  0.00    +0.000 A 
ATOM     11 CL   UNL     1       0.894   9.813  20.107  0.00  0.00    +0.000 Cl
ATOM     12  C   UNL     1       1.959   7.338  20.258  0.00  0.00    +0.000 A 
ATOM     13  C   UNL     1       2.712   6.272  19.756  0.00  0.00    +0.000 A 
ENDBRANCH   2   7
BRANCH   1  15
ATOM     14  C   UNL     1       7.656   5.501  19.664  0.00  0.00    +0.000 C 
ATOM     15  C   UNL     1       6.182   5.842  19.473  0.00  0.00    +0.000 C 
ENDBRANCH   1  15
BRANCH   3  16
ATOM     16  C   UNL     1       4.346   3.297  16.277  0.00  0.00    +0.000 C 
BRANCH  16  17
ATOM     17  N   UNL     1       4.645   2.602  17.526  0.00  0.00    +0.000 NA
ATOM     18  H   UNL     1       4.759   3.277  18.282  0.00  0.00    +0.000 HD
BRANCH  17  19
ATOM     19  C   UNL     1       3.566   1.693  17.910  0.00  0.00    +0.000 C 
BRANCH  19  20
ATOM     20  C   UNL     1       2.815   2.278  19.081  0.00  0.00    +0.000 A 
ATOM     21  C   UNL     1       1.460   2.613  18.940  0.00  0.00    +0.000 A 
ATOM     22  C   UNL     1       0.727   3.079  20.030  0.00  0.00    +0.000 A 
ATOM     23  C   UNL     1       1.338   3.209  21.277  0.00  0.00    +0.000 A 
ATOM     24  C   UNL     1       2.685   2.877  21.433  0.00  0.00    +0.000 A 
ATOM     25  C   UNL     1       3.412   2.411  20.339  0.00  0.00    +0.000 A 
BRANCH  25  26
ATOM     26  O   UNL     1       4.725   2.057  20.487  0.00  0.00    +0.000 OA
ATOM     27  H   UNL     1       5.236   2.859  20.690  0.00  0.00    +0.000 HD
ENDBRANCH  25  26
ENDBRANCH  19  20
ENDBRANCH  17  19
ENDBRANCH  16  17
ENDBRANCH   3  16
BRANCH   5  28
ATOM     28  C   UNL     1       7.618   5.425  16.624  0.00  0.00    +0.000 C 
BRANCH  28  29
ATOM     29  O   UNL     1       7.614   4.003  16.704  0.00  0.00    +0.000 OA
ATOM     30  H   UNL     1       8.431   3.736  16.239  0.00  0.00    +0.000 HD
ENDBRANCH  28  29
ENDBRANCH   5  28
TORSDOF 9
ENDMDL
MODEL 3
REMARK VINA RESULT:      -7.3      1.243      1.933
REMARK  Name = 
REMARK  11 active torsions:
REMARK  status: ('A' for Active; 'I' for Inactive)
REMARK    1  A    between atoms: C_1  and  C_2
REMARK    2  A    between atoms: C_2  and  N_3
REMARK    3  A    between atoms: C_4  and  C_5
REMARK    4  A    between atoms: C_12  and  C_13
REMARK    5  A    between atoms: C_13  and  N_14
REMARK    6  A    between atoms: N_14  and  C_15
REMARK    7  A    between atoms: C_15  and  C_16
REMARK    8  A    between atoms: C_21  and  O_22
REMARK    9  A    between atoms: C_24  and  C_25
REMARK   10  A    between atoms: C_24  and  C_26
REMARK   11  A    between atoms: C_26  and  O_27
REMARK                            x       y       z     vdW  Elec       q    Type
REMARK                         _______ _______ _______ _____ _____    ______ ____
ROOT
ATOM      1  N   UNL     1       5.975   5.956  17.237  0.00  0.00    +0.000 NA
ATOM      2  C   UNL     1       4.858   5.543  18.120  0.00  0.00    +0.000 C 
ATOM      3  C   UNL     1       4.406   4.229  17.451  0.00  0.00    +0.000 C 
ATOM      4  C   UNL     1       4.622   4.484  15.948  0.00  0.00    +0.000 C 
ATOM      5  C   UNL     1       5.659   5.628  15.831  0.00  0.00    +0.000 C 
ATOM      6  C   UNL     1       5.103   6.796  14.996  0.00  0.00    +0.000 C 
ENDROOT
BRANCH   2   7
ATOM      7  C   UNL     1       3.742   6.578  18.332  0.00  0.00    +0.000 A 
ATOM      8  C   UNL     1       3.426   7.589  17.409  0.00  0.00    +0.000 A 
ATOM      9  C   UNL     1       2.458   8.559  17.693  0.00  0.00    +0.000 A 
ATOM     10  C   UNL     1       1.776   8.526  18.903  0.00  0.00    +0.000 A 
ATOM     11 CL   UNL     1       0.635   9.757  19.279  0.00  0.00    +0.000 Cl
ATOM     12  C   UNL     1       2.018   7.501  19.810  0.00  0.00    +0.000 A 
ATOM     13  C   UNL     1       2.981   6.530  19.516  0.00  0.00    +0.000 A 
ENDBRANCH   2   7
BRANCH   1  15
ATOM     14  C   UNL     1       7.918   7.060  18.291  0.00  0.00    +0.000 C 
ATOM     15  C   UNL     1       6.622   7.234  17.506  0.00  0.00    +0.000 C 
ENDBRANCH   1  15
BRANCH   3  16
ATOM     16  C   UNL     1       5.215   3.002  17.920  0.00  0.00    +0.000 C 
BRANCH  16  17
ATOM     17  N   UNL     1       5.293   2.977  19.377  0.00  0.00    +0.000 NA
ATOM     18  H   UNL     1       4.970   3.866  19.759  0.00  0.00    +0.000 HD
BRANCH  17  19
ATOM     19  C   UNL     1       4.452   1.925  19.946  0.00  0.00    +0.000 C 
BRANCH  19  20
ATOM     20  C   UNL     1       3.036   2.431  20.070  0.00  0.00    +0.000 A 
ATOM     21  C   UNL     1       2.688   3.269  21.140  0.00  0.00    +0.000 A 
ATOM     22  C   UNL     1       1.407   3.811  21.230  0.00  0.00    +0.000 A 
ATOM     23  C   UNL     1       0.460   3.528  20.246  0.00  0.00    +0.000 A 
ATOM     24  C   UNL     1       0.792   2.698  19.175  0.00  0.00    +0.000 A 
ATOM     25  C   UNL     1       2.075   2.160  19.090  0.00  0.00    +0.000 A 
BRANCH  25  26
ATOM     26  O   UNL     1       2.419   1.367  18.030  0.00  0.00    +0.000 OA
ATOM     27  H   UNL     1       1.681   1.365  17.398  0.00  0.00    +0.000 HD
ENDBRANCH  25  26
ENDBRANCH  19  20
ENDBRANCH  17  19
ENDBRANCH  16  17
ENDBRANCH   3  16
BRANCH   5  28
ATOM     28  C   UNL     1       6.938   5.116  15.106  0.00  0.00    +0.000 C 
BRANCH  28  29
ATOM     29  O   UNL     1       7.839   4.481  16.008  0.00  0.00    +0.000 OA
ATOM     30  H   UNL     1       8.155   5.207  16.581  0.00  0.00    +0.000 HD
ENDBRANCH  28  29
ENDBRANCH   5  28
TORSDOF 9
ENDMDL
MODEL 4
REMARK VINA RESULT:      -7.2      2.162      5.431
REMARK  Name = 
REMARK  11 active torsions:
REMARK  status: ('A' for Active; 'I' for Inactive)
REMARK    1  A    between atoms: C_1  and  C_2
REMARK    2  A    between atoms: C_2  and  N_3
REMARK    3  A    between atoms: C_4  and  C_5
REMARK    4  A    between atoms: C_12  and  C_13
REMARK    5  A    between atoms: C_13  and  N_14
REMARK    6  A    between atoms: N_14  and  C_15
REMARK    7  A    between atoms: C_15  and  C_16
REMARK    8  A    between atoms: C_21  and  O_22
REMARK    9  A    between atoms: C_24  and  C_25
REMARK   10  A    between atoms: C_24  and  C_26
REMARK   11  A    between atoms: C_26  and  O_27
REMARK                            x       y       z     vdW  Elec       q    Type
REMARK                         _______ _______ _______ _____ _____    ______ ____
ROOT
ATOM      1  N   UNL     1       2.944   4.922  18.140  0.00  0.00    +0.000 NA
ATOM      2  C   UNL     1       3.427   6.304  17.902  0.00  0.00    +0.000 C 
ATOM      3  C   UNL     1       4.872   6.221  18.439  0.00  0.00    +0.000 C 
ATOM      4  C   UNL     1       4.771   5.250  19.629  0.00  0.00    +0.000 C 
ATOM      5  C   UNL     1       3.492   4.405  19.412  0.00  0.00    +0.000 C 
ATOM      6  C   UNL     1       2.546   4.511  20.622  0.00  0.00    +0.000 C 
ENDROOT
BRANCH   2   7
ATOM      7  C   UNL     1       2.577   7.434  18.504  0.00  0.00    +0.000 A 
ATOM      8  C   UNL     1       2.193   7.490  19.854  0.00  0.00    +0.000 A 
ATOM      9  C   UNL     1       1.344   8.497  20.329  0.00  0.00    +0.000 A 
ATOM     10  C   UNL     1       0.877   9.477  19.462  0.00  0.00    +0.000 A 
ATOM     11 CL   UNL     1      -0.218  10.674  20.032  0.00  0.00    +0.000 Cl
ATOM     12  C   UNL     1       1.292   9.487  18.136  0.00  0.00    +0.000 A 
ATOM     13  C   UNL     1       2.146   8.484  17.670  0.00  0.00    +0.000 A 
ENDBRANCH   2   7
BRANCH   1  15
ATOM     14  C   UNL     1       1.241   3.139  17.993  0.00  0.00    +0.000 C 
ATOM     15  C   UNL     1       1.552   4.623  17.830  0.00  0.00    +0.000 C 
ENDBRANCH   1  15
BRANCH   3  16
ATOM     16  C   UNL     1       5.877   5.701  17.391  0.00  0.00    +0.000 C 
BRANCH  16  17
ATOM     17  N   UNL     1       5.177   5.311  16.170  0.00  0.00    +0.000 NA
ATOM     18  H   UNL     1       5.400   5.962  15.417  0.00  0.00    +0.000 HD
BRANCH  17  19
ATOM     19  C   UNL     1       5.570   3.976  15.724  0.00  0.00    +0.000 C 
BRANCH  19  20
ATOM     20  C   UNL     1       6.169   4.067  14.342  0.00  0.00    +0.000 A 
ATOM     21  C   UNL     1       5.610   3.323  13.292  0.00  0.00    +0.000 A 
ATOM     22  C   UNL     1       6.098   3.453  11.992  0.00  0.00    +0.000 A 
ATOM     23  C   UNL     1       7.145   4.335  11.726  0.00  0.00    +0.000 A 
ATOM     24  C   UNL     1       7.708   5.083  12.760  0.00  0.00    +0.000 A 
ATOM     25  C   UNL     1       7.216   4.949  14.057  0.00  0.00    +0.000 A 
BRANCH  25  26
ATOM     26  O   UNL     1       7.744   5.697  15.073  0.00  0.00    +0.000 OA
ATOM     27  H   UNL     1       8.657   5.932  14.838  0.00  0.00    +0.000 HD
ENDBRANCH  25  26
ENDBRANCH  19  20
ENDBRANCH  17  19
ENDBRANCH  16  17
ENDBRANCH   3  16
BRANCH   5  28
ATOM     28  C   UNL     1       3.866   2.902  19.255  0.00  0.00    +0.000 C 
BRANCH  28  29
ATOM     29  O   UNL     1       5.268   2.689  19.389  0.00  0.00    +0.000 OA
ATOM     30  H   UNL     1       5.373   2.359  20.304  0.00  0.00    +0.000 HD
ENDBRANCH  28  29
ENDBRANCH   5  28
TORSDOF 9
ENDMDL
MODEL 5
REMARK VINA RESULT:      -7.2      3.220      6.504
REMARK  Name = 
REMARK  11 active torsions:
REMARK  status: ('A' for Active; 'I' for Inactive)
REMARK    1  A    between atoms: C_1  and  C_2
REMARK    2  A    between atoms: C_2  and  N_3
REMARK    3  A    between atoms: C_4  and  C_5
REMARK    4  A    between atoms: C_12  and  C_13
REMARK    5  A    between atoms: C_13  and  N_14
REMARK    6  A    between atoms: N_14  and  C_15
REMARK    7  A    between atoms: C_15  and  C_16
REMARK    8  A    between atoms: C_21  and  O_22
REMARK    9  A    between atoms: C_24  and  C_25
REMARK   10  A    between atoms: C_24  and  C_26
REMARK   11  A    between atoms: C_26  and  O_27
REMARK                            x       y       z     vdW  Elec       q    Type
REMARK                         _______ _______ _______ _____ _____    ______ ____
ROOT
ATOM      1  N   UNL     1       3.433   3.459  19.495  0.00  0.00    +0.000 NA
ATOM      2  C   UNL     1       3.858   4.852  19.216  0.00  0.00    +0.000 C 
ATOM      3  C   UNL     1       2.498   5.573  19.106  0.00  0.00    +0.000 C 
ATOM      4  C   UNL     1       1.573   4.524  18.461  0.00  0.00    +0.000 C 
ATOM      5  C   UNL     1       2.210   3.139  18.729  0.00  0.00    +0.000 C 
ATOM      6  C   UNL     1       2.445   2.374  17.413  0.00  0.00    +0.000 C 
ENDROOT
BRANCH   2   7
ATOM      7  C   UNL     1       4.793   5.048  18.012  0.00  0.00    +0.000 A 
ATOM      8  C   UNL     1       4.406   5.669  16.813  0.00  0.00    +0.000 A 
ATOM      9  C   UNL     1       5.273   5.742  15.716  0.00  0.00    +0.000 A 
ATOM     10  C   UNL     1       6.553   5.209  15.807  0.00  0.00    +0.000 A 
ATOM     11 CL   UNL     1       7.593   5.240  14.438  0.00  0.00    +0.000 Cl
ATOM     12  C   UNL     1       6.989   4.647  17.001  0.00  0.00    +0.000 A 
ATOM     13  C   UNL     1       6.121   4.584  18.095  0.00  0.00    +0.000 A 
ENDBRANCH   2   7
BRANCH   1  15
ATOM     14  C   UNL     1       4.513   1.795  20.967  0.00  0.00    +0.000 C 
ATOM     15  C   UNL     1       4.466   2.434  19.583  0.00  0.00    +0.000 C 
ENDBRANCH   1  15
BRANCH   3  16
ATOM     16  C   UNL     1       1.943   6.027  20.471  0.00  0.00    +0.000 C 
BRANCH  16  17
ATOM     17  N   UNL     1       2.090   7.472  20.619  0.00  0.00    +0.000 NA
ATOM     18  H   UNL     1       3.007   7.692  21.009  0.00  0.00    +0.000 HD
BRANCH  17  19
ATOM     19  C   UNL     1       1.987   8.161  19.333  0.00  0.00    +0.000 C 
BRANCH  19  20
ATOM     20  C   UNL     1       1.080   9.358  19.479  0.00  0.00    +0.000 A 
ATOM     21  C   UNL     1       0.279   9.488  20.623  0.00  0.00    +0.000 A 
ATOM     22  C   UNL     1      -0.507  10.623  20.815  0.00  0.00    +0.000 A 
ATOM     23  C   UNL     1      -0.495  11.647  19.868  0.00  0.00    +0.000 A 
ATOM     24  C   UNL     1       0.299  11.533  18.726  0.00  0.00    +0.000 A 
ATOM     25  C   UNL     1       1.083  10.395  18.541  0.00  0.00    +0.000 A 
BRANCH  25  26
ATOM     26  O   UNL     1       1.884  10.285  17.438  0.00  0.00    +0.000 OA
ATOM     27  H   UNL     1       2.015   9.341  17.248  0.00  0.00    +0.000 HD
ENDBRANCH  25  26
ENDBRANCH  19  20
ENDBRANCH  17  19
ENDBRANCH  16  17
ENDBRANCH   3  16
BRANCH   5  28
ATOM     28  C   UNL     1       1.253   2.271  19.598  0.00  0.00    +0.000 C 
BRANCH  28  29
ATOM     29  O   UNL     1       0.710   3.011  20.687  0.00  0.00    +0.000 OA
ATOM     30  H   UNL     1      -0.008   2.443  21.028  0.00  0.00    +0.000 HD
ENDBRANCH  28  29
ENDBRANCH   5  28
TORSDOF 9
ENDMDL
MODEL 6
REMARK VINA RESULT:      -7.1      3.576      6.628
REMARK  Name = 
REMARK  11 active torsions:
REMARK  status: ('A' for Active; 'I' for Inactive)
REMARK    1  A    between atoms: C_1  and  C_2
REMARK    2  A    between atoms: C_2  and  N_3
REMARK    3  A    between atoms: C_4  and  C_5
REMARK    4  A    between atoms: C_12  and  C_13
REMARK    5  A    between atoms: C_13  and  N_14
REMARK    6  A    between atoms: N_14  and  C_15
REMARK    7  A    between atoms: C_15  and  C_16
REMARK    8  A    between atoms: C_21  and  O_22
REMARK    9  A    between atoms: C_24  and  C_25
REMARK   10  A    between atoms: C_24  and  C_26
REMARK   11  A    between atoms: C_26  and  O_27
REMARK                            x       y       z     vdW  Elec       q    Type
REMARK                         _______ _______ _______ _____ _____    ______ ____
ROOT
ATOM      1  N   UNL     1       3.358   3.654  19.340  0.00  0.00    +0.000 NA
ATOM      2  C   UNL     1       3.926   5.003  19.103  0.00  0.00    +0.000 C 
ATOM      3  C   UNL     1       2.649   5.865  19.024  0.00  0.00    +0.000 C 
ATOM      4  C   UNL     1       1.617   4.941  18.352  0.00  0.00    +0.000 C 
ATOM      5  C   UNL     1       2.106   3.488  18.572  0.00  0.00    +0.000 C 
ATOM      6  C   UNL     1       2.255   2.746  17.231  0.00  0.00    +0.000 C 
ENDROOT
BRANCH   2   7
ATOM      7  C   UNL     1       4.874   5.139  17.901  0.00  0.00    +0.000 A 
ATOM      8  C   UNL     1       4.520   5.760  16.691  0.00  0.00    +0.000 A 
ATOM      9  C   UNL     1       5.393   5.777  15.598  0.00  0.00    +0.000 A 
ATOM     10  C   UNL     1       6.646   5.186  15.701  0.00  0.00    +0.000 A 
ATOM     11 CL   UNL     1       7.692   5.150  14.336  0.00  0.00    +0.000 Cl
ATOM     12  C   UNL     1       7.052   4.622  16.904  0.00  0.00    +0.000 A 
ATOM     13  C   UNL     1       6.178   4.615  17.995  0.00  0.00    +0.000 A 
ENDBRANCH   2   7
BRANCH   1  15
ATOM     14  C   UNL     1       4.460   2.004  20.811  0.00  0.00    +0.000 C 
ATOM     15  C   UNL     1       4.277   2.524  19.390  0.00  0.00    +0.000 C 
ENDBRANCH   1  15
BRANCH   3  16
ATOM     16  C   UNL     1       2.148   6.332  20.406  0.00  0.00    +0.000 C 
BRANCH  16  17
ATOM     17  N   UNL     1       1.948   7.778  20.409  0.00  0.00    +0.000 NA
ATOM     18  H   UNL     1       1.436   8.060  19.572  0.00  0.00    +0.000 HD
BRANCH  17  19
ATOM     19  C   UNL     1       1.168   8.214  21.566  0.00  0.00    +0.000 C 
BRANCH  19  20
ATOM     20  C   UNL     1       0.406   9.467  21.212  0.00  0.00    +0.000 A 
ATOM     21  C   UNL     1       0.135   9.759  19.867  0.00  0.00    +0.000 A 
ATOM     22  C   UNL     1      -0.635  10.869  19.522  0.00  0.00    +0.000 A 
ATOM     23  C   UNL     1      -1.149  11.697  20.519  0.00  0.00    +0.000 A 
ATOM     24  C   UNL     1      -0.890  11.418  21.862  0.00  0.00    +0.000 A 
ATOM     25  C   UNL     1      -0.120  10.306  22.200  0.00  0.00    +0.000 A 
BRANCH  25  26
ATOM     26  O   UNL     1       0.118  10.008  23.513  0.00  0.00    +0.000 OA
ATOM     27  H   UNL     1      -0.690   9.623  23.891  0.00  0.00    +0.000 HD
ENDBRANCH  25  26
ENDBRANCH  19  20
ENDBRANCH  17  19
ENDBRANCH  16  17
ENDBRANCH   3  16
BRANCH   5  28
ATOM     28  C   UNL     1       1.065   2.698  19.418  0.00  0.00    +0.000 C 
BRANCH  28  29
ATOM     29  O   UNL     1       0.822   3.323  20.675  0.00  0.00    +0.000 OA
ATOM     30  H   UNL     1       1.025   4.266  20.516  0.00  0.00    +0.000 HD
ENDBRANCH  28  29
ENDBRANCH   5  28
TORSDOF 9
ENDMDL
MODEL 7
REMARK VINA RESULT:      -7.1      1.005      1.650
REMARK  Name = 
REMARK  11 active torsions:
REMARK  status: ('A' for Active; 'I' for Inactive)
REMARK    1  A    between atoms: C_1  and  C_2
REMARK    2  A    between atoms: C_2  and  N_3
REMARK    3  A    between atoms: C_4  and  C_5
REMARK    4  A    between atoms: C_12  and  C_13
REMARK    5  A    between atoms: C_13  and  N_14
REMARK    6  A    between atoms: N_14  and  C_15
REMARK    7  A    between atoms: C_15  and  C_16
REMARK    8  A    between atoms: C_21  and  O_22
REMARK    9  A    between atoms: C_24  and  C_25
REMARK   10  A    between atoms: C_24  and  C_26
REMARK   11  A    between atoms: C_26  and  O_27
REMARK                            x       y       z     vdW  Elec       q    Type
REMARK                         _______ _______ _______ _____ _____    ______ ____
ROOT
ATOM      1  N   UNL     1       5.524   5.331  18.235  0.00  0.00    +0.000 NA
ATOM      2  C   UNL     1       4.057   5.128  18.180  0.00  0.00    +0.000 C 
ATOM      3  C   UNL     1       3.866   4.658  16.722  0.00  0.00    +0.000 C 
ATOM      4  C   UNL     1       4.926   5.450  15.935  0.00  0.00    +0.000 C 
ATOM      5  C   UNL     1       6.009   5.884  16.953  0.00  0.00    +0.000 C 
ATOM      6  C   UNL     1       6.206   7.411  16.932  0.00  0.00    +0.000 C 
ENDROOT
BRANCH   2   7
ATOM      7  C   UNL     1       3.189   6.327  18.592  0.00  0.00    +0.000 A 
ATOM      8  C   UNL     1       2.944   7.436  17.766  0.00  0.00    +0.000 A 
ATOM      9  C   UNL     1       2.218   8.542  18.225  0.00  0.00    +0.000 A 
ATOM     10  C   UNL     1       1.709   8.549  19.518  0.00  0.00    +0.000 A 
ATOM     11 CL   UNL     1       0.876   9.935  20.103  0.00  0.00    +0.000 Cl
ATOM     12  C   UNL     1       1.878   7.440  20.338  0.00  0.00    +0.000 A 
ATOM     13  C   UNL     1       2.597   6.336  19.870  0.00  0.00    +0.000 A 
ENDBRANCH   2   7
BRANCH   1  15
ATOM     14  C   UNL     1       7.554   5.467  19.635  0.00  0.00    +0.000 C 
ATOM     15  C   UNL     1       6.094   5.869  19.464  0.00  0.00    +0.000 C 
ENDBRANCH   1  15
BRANCH   3  16
ATOM     16  C   UNL     1       4.071   3.140  16.545  0.00  0.00    +0.000 C 
BRANCH  16  17
ATOM     17  N   UNL     1       4.571   2.550  17.784  0.00  0.00    +0.000 NA
ATOM     18  H   UNL     1       4.650   3.268  18.505  0.00  0.00    +0.000 HD
BRANCH  17  19
ATOM     19  C   UNL     1       3.669   1.518  18.293  0.00  0.00    +0.000 C 
BRANCH  19  20
ATOM     20  C   UNL     1       2.800   2.105  19.378  0.00  0.00    +0.000 A 
ATOM     21  C   UNL     1       3.369   2.454  20.612  0.00  0.00    +0.000 A 
ATOM     22  C   UNL     1       2.602   3.070  21.599  0.00  0.00    +0.000 A 
ATOM     23  C   UNL     1       1.257   3.352  21.362  0.00  0.00    +0.000 A 
ATOM     24  C   UNL     1       0.678   3.014  20.138  0.00  0.00    +0.000 A 
ATOM     25  C   UNL     1       1.451   2.398  19.155  0.00  0.00    +0.000 A 
BRANCH  25  26
ATOM     26  O   UNL     1       0.900   2.086  17.942  0.00  0.00    +0.000 OA
ATOM     27  H   UNL     1       1.581   2.202  17.258  0.00  0.00    +0.000 HD
ENDBRANCH  25  26
ENDBRANCH  19  20
ENDBRANCH  17  19
ENDBRANCH  16  17
ENDBRANCH   3  16
BRANCH   5  28
ATOM     28  C   UNL     1       7.378   5.242  16.582  0.00  0.00    +0.000 C 
BRANCH  28  29
ATOM     29  O   UNL     1       7.350   3.824  16.716  0.00  0.00    +0.000 OA
ATOM     30  H   UNL     1       6.663   3.537  16.082  0.00  0.00    +0.000 HD
ENDBRANCH  28  29
ENDBRANCH   5  28
TORSDOF 9
ENDMDL
MODEL 8
REMARK VINA RESULT:      -7.0      3.567      6.543
REMARK  Name = 
REMARK  11 active torsions:
REMARK  status: ('A' for Active; 'I' for Inactive)
REMARK    1  A    between atoms: C_1  and  C_2
REMARK    2  A    between atoms: C_2  and  N_3
REMARK    3  A    between atoms: C_4  and  C_5
REMARK    4  A    between atoms: C_12  and  C_13
REMARK    5  A    between atoms: C_13  and  N_14
REMARK    6  A    between atoms: N_14  and  C_15
REMARK    7  A    between atoms: C_15  and  C_16
REMARK    8  A    between atoms: C_21  and  O_22
REMARK    9  A    between atoms: C_24  and  C_25
REMARK   10  A    between atoms: C_24  and  C_26
REMARK   11  A    between atoms: C_26  and  O_27
REMARK                            x       y       z     vdW  Elec       q    Type
REMARK                         _______ _______ _______ _____ _____    ______ ____
ROOT
ATOM      1  N   UNL     1       3.319   3.542  19.581  0.00  0.00    +0.000 NA
ATOM      2  C   UNL     1       3.763   4.931  19.314  0.00  0.00    +0.000 C 
ATOM      3  C   UNL     1       2.412   5.662  19.160  0.00  0.00    +0.000 C 
ATOM      4  C   UNL     1       1.500   4.619  18.487  0.00  0.00    +0.000 C 
ATOM      5  C   UNL     1       2.118   3.229  18.777  0.00  0.00    +0.000 C 
ATOM      6  C   UNL     1       2.389   2.461  17.470  0.00  0.00    +0.000 C 
ENDROOT
BRANCH   2   7
ATOM      7  C   UNL     1       4.737   5.119  18.141  0.00  0.00    +0.000 A 
ATOM      8  C   UNL     1       4.385   5.716  16.919  0.00  0.00    +0.000 A 
ATOM      9  C   UNL     1       5.289   5.782  15.852  0.00  0.00    +0.000 A 
ATOM     10  C   UNL     1       6.570   5.264  15.996  0.00  0.00    +0.000 A 
ATOM     11 CL   UNL     1       7.658   5.285  14.663  0.00  0.00    +0.000 Cl
ATOM     12  C   UNL     1       6.971   4.726  17.213  0.00  0.00    +0.000 A 
ATOM     13  C   UNL     1       6.066   4.671  18.277  0.00  0.00    +0.000 A 
ENDBRANCH   2   7
BRANCH   1  15
ATOM     14  C   UNL     1       4.341   1.875  21.090  0.00  0.00    +0.000 C 
ATOM     15  C   UNL     1       4.340   2.510  19.704  0.00  0.00    +0.000 C 
ENDBRANCH   1  15
BRANCH   3  16
ATOM     16  C   UNL     1       1.817   6.122  20.506  0.00  0.00    +0.000 C 
BRANCH  16  17
ATOM     17  N   UNL     1       2.177   7.513  20.767  0.00  0.00    +0.000 NA
ATOM     18  H   UNL     1       3.160   7.668  20.541  0.00  0.00    +0.000 HD
BRANCH  17  19
ATOM     19  C   UNL     1       1.391   8.437  19.950  0.00  0.00    +0.000 C 
BRANCH  19  20
ATOM     20  C   UNL     1       0.620   9.370  20.851  0.00  0.00    +0.000 A 
ATOM     21  C   UNL     1       0.180   8.919  22.105  0.00  0.00    +0.000 A 
ATOM     22  C   UNL     1      -0.463   9.787  22.985  0.00  0.00    +0.000 A 
ATOM     23  C   UNL     1      -0.668  11.120  22.626  0.00  0.00    +0.000 A 
ATOM     24  C   UNL     1      -0.233  11.583  21.384  0.00  0.00    +0.000 A 
ATOM     25  C   UNL     1       0.411  10.710  20.508  0.00  0.00    +0.000 A 
BRANCH  25  26
ATOM     26  O   UNL     1       0.864  11.160  19.299  0.00  0.00    +0.000 OA
ATOM     27  H   UNL     1       0.236  11.822  18.964  0.00  0.00    +0.000 HD
ENDBRANCH  25  26
ENDBRANCH  19  20
ENDBRANCH  17  19
ENDBRANCH  16  17
ENDBRANCH   3  16
BRANCH   5  28
ATOM     28  C   UNL     1       1.128   2.370  19.616  0.00  0.00    +0.000 C 
BRANCH  28  29
ATOM     29  O   UNL     1       0.779   3.009  20.841  0.00  0.00    +0.000 OA
ATOM     30  H   UNL     1       1.407   3.756  20.907  0.00  0.00    +0.000 HD
ENDBRANCH  28  29
ENDBRANCH   5  28
TORSDOF 9
ENDMDL
MODEL 9
REMARK VINA RESULT:      -6.9      0.933      1.416
REMARK  Name = 
REMARK  11 active torsions:
REMARK  status: ('A' for Active; 'I' for Inactive)
REMARK    1  A    between atoms: C_1  and  C_2
REMARK    2  A    between atoms: C_2  and  N_3
REMARK    3  A    between atoms: C_4  and  C_5
REMARK    4  A    between atoms: C_12  and  C_13
REMARK    5  A    between atoms: C_13  and  N_14
REMARK    6  A    between atoms: N_14  and  C_15
REMARK    7  A    between atoms: C_15  and  C_16
REMARK    8  A    between atoms: C_21  and  O_22
REMARK    9  A    between atoms: C_24  and  C_25
REMARK   10  A    between atoms: C_24  and  C_26
REMARK   11  A    between atoms: C_26  and  O_27
REMARK                            x       y       z     vdW  Elec       q    Type
REMARK                         _______ _______ _______ _____ _____    ______ ____
ROOT
ATOM      1  N   UNL     1       5.942   5.739  17.377  0.00  0.00    +0.000 NA
ATOM      2  C   UNL     1       4.743   5.352  18.160  0.00  0.00    +0.000 C 
ATOM      3  C   UNL     1       4.250   4.117  17.378  0.00  0.00    +0.000 C 
ATOM      4  C   UNL     1       4.581   4.450  15.911  0.00  0.00    +0.000 C 
ATOM      5  C   UNL     1       5.698   5.521  15.935  0.00  0.00    +0.000 C 
ATOM      6  C   UNL     1       5.278   6.776  15.148  0.00  0.00    +0.000 C 
ENDROOT
BRANCH   2   7
ATOM      7  C   UNL     1       3.688   6.448  18.371  0.00  0.00    +0.000 A 
ATOM      8  C   UNL     1       3.431   7.476  17.449  0.00  0.00    +0.000 A 
ATOM      9  C   UNL     1       2.520   8.500  17.732  0.00  0.00    +0.000 A 
ATOM     10  C   UNL     1       1.834   8.503  18.940  0.00  0.00    +0.000 A 
ATOM     11 CL   UNL     1       0.764   9.797  19.315  0.00  0.00    +0.000 Cl
ATOM     12  C   UNL     1       2.015   7.465  19.846  0.00  0.00    +0.000 A 
ATOM     13  C   UNL     1       2.922   6.442  19.554  0.00  0.00    +0.000 A 
ENDBRANCH   2   7
BRANCH   1  15
ATOM     14  C   UNL     1       7.897   6.632  18.593  0.00  0.00    +0.000 C 
ATOM     15  C   UNL     1       6.653   6.948  17.770  0.00  0.00    +0.000 C 
ENDBRANCH   1  15
BRANCH   3  16
ATOM     16  C   UNL     1       4.942   2.809  17.813  0.00  0.00    +0.000 C 
BRANCH  16  17
ATOM     17  N   UNL     1       4.077   1.666  17.541  0.00  0.00    +0.000 NA
ATOM     18  H   UNL     1       4.596   0.948  17.033  0.00  0.00    +0.000 HD
BRANCH  17  19
ATOM     19  C   UNL     1       3.583   1.056  18.775  0.00  0.00    +0.000 C 
BRANCH  19  20
ATOM     20  C   UNL     1       2.721   2.050  19.513  0.00  0.00    +0.000 A 
ATOM     21  C   UNL     1       1.495   2.452  18.963  0.00  0.00    +0.000 A 
ATOM     22  C   UNL     1       0.648   3.307  19.665  0.00  0.00    +0.000 A 
ATOM     23  C   UNL     1       1.013   3.767  20.930  0.00  0.00    +0.000 A 
ATOM     24  C   UNL     1       2.229   3.374  21.492  0.00  0.00    +0.000 A 
ATOM     25  C   UNL     1       3.071   2.517  20.785  0.00  0.00    +0.000 A 
BRANCH  25  26
ATOM     26  O   UNL     1       4.253   2.105  21.337  0.00  0.00    +0.000 OA
ATOM     27  H   UNL     1       4.611   1.386  20.790  0.00  0.00    +0.000 HD
ENDBRANCH  25  26
ENDBRANCH  19  20
ENDBRANCH  17  19
ENDBRANCH  16  17
ENDBRANCH   3  16
BRANCH   5  28
ATOM     28  C   UNL     1       6.985   4.966  15.258  0.00  0.00    +0.000 C 
BRANCH  28  29
ATOM     29  O   UNL     1       7.074   5.355  13.891  0.00  0.00    +0.000 OA
ATOM     30  H   UNL     1       6.360   6.014  13.784  0.00  0.00    +0.000 HD
ENDBRANCH  28  29
ENDBRANCH   5  28
TORSDOF 9
ENDMDL
