MODEL 1
REMARK VINA RESULT:      -7.9      0.000      0.000
REMARK  Name = 
REMARK  12 active torsions:
REMARK  status: ('A' for Active; 'I' for Inactive)
REMARK    1  A    between atoms: C_1  and  N_2
REMARK    2  A    between atoms: N_2  and  C_3
REMARK    3  A    between atoms: N_2  and  C_4
REMARK    4  A    between atoms: C_4  and  C_5
REMARK    5  A    between atoms: C_5  and  N_6
REMARK    6  A    between atoms: N_6  and  C_7
REMARK    7  A    between atoms: N_6  and  C_8
REMARK    8  A    between atoms: C_10  and  C_11
REMARK    9  A    between atoms: C_11  and  N_12
REMARK   10  A    between atoms: C_11  and  C_13
REMARK   11  A    between atoms: C_13  and  C_14
REMARK   12  A    between atoms: C_25  and  C_26
REMARK                            x       y       z     vdW  Elec       q    Type
REMARK                         _______ _______ _______ _____ _____    ______ ____
ROOT
ATOM      1  C   UNL     1       0.622  10.244  19.202  0.00  0.00    +0.000 A 
ATOM      2  N   UNL     1       1.472   9.316  18.706  0.00  0.00    +0.000 NA
ATOM      3  C   UNL     1       1.901   8.338  19.534  0.00  0.00    +0.000 A 
ATOM      4  N   UNL     1       1.581   8.246  20.840  0.00  0.00    +0.000 NA
ATOM      5  C   UNL     1       0.756   9.171  21.333  0.00  0.00    +0.000 A 
ATOM      6  C   UNL     1       0.411   9.096  22.677  0.00  0.00    +0.000 A 
ATOM      7  C   UNL     1      -0.446  10.024  23.285  0.00  0.00    +0.000 A 
ATOM      8  C   UNL     1      -0.968  11.080  22.545  0.00  0.00    +0.000 A 
ATOM      9  C   UNL     1      -0.616  11.160  21.194  0.00  0.00    +0.000 A 
ATOM     10  C   UNL     1       0.226  10.209  20.559  0.00  0.00    +0.000 A 
ENDROOT
BRANCH   8  11
ATOM     11  C   UNL     1      -1.816  12.110  23.127  0.00  0.00    +0.000 A 
ATOM     12  C   UNL     1      -1.540  13.475  23.398  0.00  0.00    +0.000 A 
ATOM     13  N   UNL     1      -2.577  14.111  23.945  0.00  0.00    +0.000 NA
ATOM     14  N   UNL     1      -3.517  13.163  24.039  0.00  0.00    +0.000 N 
ATOM     15  C   UNL     1      -3.118  11.951  23.551  0.00  0.00    +0.000 A 
ATOM     16  H   UNL     1      -4.412  13.412  24.445  0.00  0.00    +0.000 HD
ENDBRANCH   8  11
BRANCH   1  17
ATOM     17  N   UNL     1       0.165  11.266  18.348  0.00  0.00    +0.000 N 
ATOM     18  C   UNL     1       0.807  12.575  18.492  0.00  0.00    +0.000 C 
BRANCH  17  19
ATOM     19  C   UNL     1      -1.279  11.302  18.070  0.00  0.00    +0.000 C 
BRANCH  19  20
ATOM     20  C   UNL     1      -1.720  10.044  17.260  0.00  0.00    +0.000 C 
BRANCH  20  22
ATOM     21  C   UNL     1      -3.789  11.313  17.056  0.00  0.00    +0.000 C 
ATOM     22  N   UNL     1      -3.052  10.128  16.618  0.00  0.00    +0.000 NA
ATOM     23  C   UNL     1      -2.929  10.122  15.160  0.00  0.00    +0.000 C 
ENDBRANCH  20  22
ENDBRANCH  19  20
ENDBRANCH  17  19
ENDBRANCH   1  17
BRANCH   3  24
ATOM     24  C   UNL     1       2.617   7.123  18.923  0.00  0.00    +0.000 C 
BRANCH  24  25
ATOM     25  N   UNL     1       3.310   7.515  17.664  0.00  0.00    +0.000 NA
ATOM     26  H   UNL     1       4.134   8.056  17.938  0.00  0.00    +0.000 HD
ATOM     27  H   UNL     1       2.712   8.150  17.139  0.00  0.00    +0.000 HD
ENDBRANCH  24  25
BRANCH  24  28
ATOM     28  C   UNL     1       1.653   5.927  18.677  0.00  0.00    +0.000 C 
BRANCH  28  29
ATOM     29  C   UNL     1       1.967   4.700  19.524  0.00  0.00    +0.000 A 
ATOM     30  C   UNL     1       1.041   4.224  20.465  0.00  0.00    +0.000 A 
ATOM     31  C   UNL     1       1.346   3.132  21.287  0.00  0.00    +0.000 A 
ATOM     32  C   UNL     1       2.579   2.496  21.173  0.00  0.00    +0.000 A 
ATOM     33  C   UNL     1       3.490   2.947  20.227  0.00  0.00    +0.000 A 
ATOM     34  F   UNL     1       4.674   2.330  20.113  0.00  0.00    +0.000 F 
ATOM     35  C   UNL     1       3.197   4.034  19.403  0.00  0.00    +0.000 A 
ENDBRANCH  28  29
ENDBRANCH  24  28
ENDBRANCH   3  24
TORSDOF 9
ENDMDL
MODEL 2
REMARK VINA RESULT:      -7.9      0.850      1.024
REMARK  Name = 
REMARK  12 active torsions:
REMARK  status: ('A' for Active; 'I' for Inactive)
REMARK    1  A    between atoms: C_1  and  N_2
REMARK    2  A    between atoms: N_2  and  C_3
REMARK    3  A    between atoms: N_2  and  C_4
REMARK    4  A    between atoms: C_4  and  C_5
REMARK    5  A    between atoms: C_5  and  N_6
REMARK    6  A    between atoms: N_6  and  C_7
REMARK    7  A    between atoms: N_6  and  C_8
REMARK    8  A    between atoms: C_10  and  C_11
REMARK    9  A    between atoms: C_11  and  N_12
REMARK   10  A    between atoms: C_11  and  C_13
REMARK   11  A    between atoms: C_13  and  C_14
REMARK   12  A    between atoms: C_25  and  C_26
REMARK                            x       y       z     vdW  Elec       q    Type
REMARK                         _______ _______ _______ _____ _____    ______ ____
ROOT
ATOM      1  C   UNL     1       0.561  10.094  19.484  0.00  0.00    +0.000 A 
ATOM      2  N   UNL     1       1.397   9.081  19.165  0.00  0.00    +0.000 NA
ATOM      3  C   UNL     1       1.679   8.163  20.116  0.00  0.00    +0.000 A 
ATOM      4  N   UNL     1       1.223   8.210  21.383  0.00  0.00    +0.000 NA
ATOM      5  C   UNL     1       0.410   9.219  21.703  0.00  0.00    +0.000 A 
ATOM      6  C   UNL     1      -0.074   9.287  23.004  0.00  0.00    +0.000 A 
ATOM      7  C   UNL     1      -0.929  10.312  23.434  0.00  0.00    +0.000 A 
ATOM      8  C   UNL     1      -1.307  11.320  22.553  0.00  0.00    +0.000 A 
ATOM      9  C   UNL     1      -0.814  11.256  21.246  0.00  0.00    +0.000 A 
ATOM     10  C   UNL     1       0.027  10.207  20.789  0.00  0.00    +0.000 A 
ENDROOT
BRANCH   8  11
ATOM     11  C   UNL     1      -2.144  12.442  22.949  0.00  0.00    +0.000 A 
ATOM     12  C   UNL     1      -1.998  13.829  22.686  0.00  0.00    +0.000 A 
ATOM     13  N   UNL     1      -2.975  14.560  23.224  0.00  0.00    +0.000 NA
ATOM     14  N   UNL     1      -3.745  13.657  23.842  0.00  0.00    +0.000 N 
ATOM     15  C   UNL     1      -3.300  12.374  23.697  0.00  0.00    +0.000 A 
ATOM     16  H   UNL     1      -4.563  13.985  24.343  0.00  0.00    +0.000 HD
ENDBRANCH   8  11
BRANCH   1  17
ATOM     17  N   UNL     1       0.256  11.055  18.501  0.00  0.00    +0.000 N 
ATOM     18  C   UNL     1       1.022  12.303  18.547  0.00  0.00    +0.000 C 
BRANCH  17  19
ATOM     19  C   UNL     1      -1.160  11.200  18.131  0.00  0.00    +0.000 C 
BRANCH  19  20
ATOM     20  C   UNL     1      -1.631   9.995  17.260  0.00  0.00    +0.000 C 
BRANCH  20  22
ATOM     21  C   UNL     1      -3.714  11.257  17.207  0.00  0.00    +0.000 C 
ATOM     22  N   UNL     1      -2.966  10.138  16.633  0.00  0.00    +0.000 NA
ATOM     23  C   UNL     1      -2.846  10.303  15.185  0.00  0.00    +0.000 C 
ENDBRANCH  20  22
ENDBRANCH  19  20
ENDBRANCH  17  19
ENDBRANCH   1  17
BRANCH   3  24
ATOM     24  C   UNL     1       2.377   6.861  19.694  0.00  0.00    +0.000 C 
BRANCH  24  25
ATOM     25  N   UNL     1       2.460   6.782  18.208  0.00  0.00    +0.000 NA
ATOM     26  H   UNL     1       3.388   6.414  17.985  0.00  0.00    +0.000 HD
ATOM     27  H   UNL     1       2.425   7.723  17.822  0.00  0.00    +0.000 HD
ENDBRANCH  24  25
BRANCH  24  28
ATOM     28  C   UNL     1       1.682   5.597  20.278  0.00  0.00    +0.000 C 
BRANCH  28  29
ATOM     29  C   UNL     1       2.176   4.289  19.672  0.00  0.00    +0.000 A 
ATOM     30  C   UNL     1       1.428   3.632  18.682  0.00  0.00    +0.000 A 
ATOM     31  C   UNL     1       1.847   2.401  18.163  0.00  0.00    +0.000 A 
ATOM     32  C   UNL     1       3.024   1.815  18.620  0.00  0.00    +0.000 A 
ATOM     33  C   UNL     1       3.781   2.472  19.580  0.00  0.00    +0.000 A 
ATOM     34  F   UNL     1       4.918   1.912  20.014  0.00  0.00    +0.000 F 
ATOM     35  C   UNL     1       3.374   3.699  20.105  0.00  0.00    +0.000 A 
ENDBRANCH  28  29
ENDBRANCH  24  28
ENDBRANCH   3  24
TORSDOF 9
ENDMDL
MODEL 3
REMARK VINA RESULT:      -7.8      1.923      2.632
REMARK  Name = 
REMARK  12 active torsions:
REMARK  status: ('A' for Active; 'I' for Inactive)
REMARK    1  A    between atoms: C_1  and  N_2
REMARK    2  A    between atoms: N_2  and  C_3
REMARK    3  A    between atoms: N_2  and  C_4
REMARK    4  A    between atoms: C_4  and  C_5
REMARK    5  A    between atoms: C_5  and  N_6
REMARK    6  A    between atoms: N_6  and  C_7
REMARK    7  A    between atoms: N_6  and  C_8
REMARK    8  A    between atoms: C_10  and  C_11
REMARK    9  A    between atoms: C_11  and  N_12
REMARK   10  A    between atoms: C_11  and  C_13
REMARK   11  A    between atoms: C_13  and  C_14
REMARK   12  A    between atoms: C_25  and  C_26
REMARK                            x       y       z     vdW  Elec       q    Type
REMARK                         _______ _______ _______ _____ _____    ______ ____
ROOT
ATOM      1  C   UNL     1       0.558  10.263  19.168  0.00  0.00    +0.000 A 
ATOM      2  N   UNL     1       1.384   9.326  18.649  0.00  0.00    +0.000 NA
ATOM      3  C   UNL     1       1.806   8.330  19.460  0.00  0.00    +0.000 A 
ATOM      4  N   UNL     1       1.501   8.227  20.768  0.00  0.00    +0.000 NA
ATOM      5  C   UNL     1       0.700   9.161  21.284  0.00  0.00    +0.000 A 
ATOM      6  C   UNL     1       0.371   9.074  22.631  0.00  0.00    +0.000 A 
ATOM      7  C   UNL     1      -0.462  10.010  23.262  0.00  0.00    +0.000 A 
ATOM      8  C   UNL     1      -0.974  11.084  22.542  0.00  0.00    +0.000 A 
ATOM      9  C   UNL     1      -0.637  11.175  21.188  0.00  0.00    +0.000 A 
ATOM     10  C   UNL     1       0.178  10.217  20.530  0.00  0.00    +0.000 A 
ENDROOT
BRANCH   8  11
ATOM     11  C   UNL     1      -1.795  12.121  23.148  0.00  0.00    +0.000 A 
ATOM     12  C   UNL     1      -3.129  12.067  23.630  0.00  0.00    +0.000 A 
ATOM     13  N   UNL     1      -3.548  13.234  24.120  0.00  0.00    +0.000 NA
ATOM     14  N   UNL     1      -2.497  14.045  23.949  0.00  0.00    +0.000 N 
ATOM     15  C   UNL     1      -1.418  13.426  23.385  0.00  0.00    +0.000 A 
ATOM     16  H   UNL     1      -2.583  15.012  24.242  0.00  0.00    +0.000 HD
ENDBRANCH   8  11
BRANCH   1  17
ATOM     17  N   UNL     1       0.108  11.304  18.334  0.00  0.00    +0.000 N 
ATOM     18  C   UNL     1       0.763  12.604  18.499  0.00  0.00    +0.000 C 
BRANCH  17  19
ATOM     19  C   UNL     1      -1.337  11.358  18.060  0.00  0.00    +0.000 C 
BRANCH  19  20
ATOM     20  C   UNL     1      -1.803  10.087  17.286  0.00  0.00    +0.000 C 
BRANCH  20  22
ATOM     21  C   UNL     1      -3.845  11.384  17.006  0.00  0.00    +0.000 C 
ATOM     22  N   UNL     1      -3.092  10.210  16.567  0.00  0.00    +0.000 NA
ATOM     23  C   UNL     1      -2.879  10.259  15.121  0.00  0.00    +0.000 C 
ENDBRANCH  20  22
ENDBRANCH  19  20
ENDBRANCH  17  19
ENDBRANCH   1  17
BRANCH   3  24
ATOM     24  C   UNL     1       2.492   7.110  18.824  0.00  0.00    +0.000 C 
BRANCH  24  25
ATOM     25  N   UNL     1       3.311   6.393  19.842  0.00  0.00    +0.000 NA
ATOM     26  H   UNL     1       3.368   7.007  20.658  0.00  0.00    +0.000 HD
ATOM     27  H   UNL     1       4.262   6.293  19.493  0.00  0.00    +0.000 HD
ENDBRANCH  24  25
BRANCH  24  28
ATOM     28  C   UNL     1       3.355   7.491  17.587  0.00  0.00    +0.000 C 
BRANCH  28  29
ATOM     29  C   UNL     1       4.530   6.552  17.344  0.00  0.00    +0.000 A 
ATOM     30  C   UNL     1       5.851   7.013  17.464  0.00  0.00    +0.000 A 
ATOM     31  C   UNL     1       6.934   6.170  17.187  0.00  0.00    +0.000 A 
ATOM     32  C   UNL     1       6.712   4.854  16.794  0.00  0.00    +0.000 A 
ATOM     33  C   UNL     1       5.409   4.385  16.698  0.00  0.00    +0.000 A 
ATOM     34  F   UNL     1       5.196   3.116  16.327  0.00  0.00    +0.000 F 
ATOM     35  C   UNL     1       4.321   5.215  16.971  0.00  0.00    +0.000 A 
ENDBRANCH  28  29
ENDBRANCH  24  28
ENDBRANCH   3  24
TORSDOF 9
ENDMDL
MODEL 4
REMARK VINA RESULT:      -7.7      1.077      1.483
REMARK  Name = 
REMARK  12 active torsions:
REMARK  status: ('A' for Active; 'I' for Inactive)
REMARK    1  A    between atoms: C_1  and  N_2
REMARK    2  A    between atoms: N_2  and  C_3
REMARK    3  A    between atoms: N_2  and  C_4
REMARK    4  A    between atoms: C_4  and  C_5
REMARK    5  A    between atoms: C_5  and  N_6
REMARK    6  A    between atoms: N_6  and  C_7
REMARK    7  A    between atoms: N_6  and  C_8
REMARK    8  A    between atoms: C_10  and  C_11
REMARK    9  A    between atoms: C_11  and  N_12
REMARK   10  A    between atoms: C_11  and  C_13
REMARK   11  A    between atoms: C_13  and  C_14
REMARK   12  A    between atoms: C_25  and  C_26
REMARK                            x       y       z     vdW  Elec       q    Type
REMARK                         _______ _______ _______ _____ _____    ______ ____
ROOT
ATOM      1  C   UNL     1       0.387   9.932  18.896  0.00  0.00    +0.000 A 
ATOM      2  N   UNL     1       1.265   9.053  18.363  0.00  0.00    +0.000 NA
ATOM      3  C   UNL     1       1.924   8.222  19.202  0.00  0.00    +0.000 A 
ATOM      4  N   UNL     1       1.805   8.238  20.544  0.00  0.00    +0.000 NA
ATOM      5  C   UNL     1       0.951   9.118  21.071  0.00  0.00    +0.000 A 
ATOM      6  C   UNL     1       0.811   9.152  22.453  0.00  0.00    +0.000 A 
ATOM      7  C   UNL     1      -0.059  10.044  23.098  0.00  0.00    +0.000 A 
ATOM      8  C   UNL     1      -0.805  10.950  22.353  0.00  0.00    +0.000 A 
ATOM      9  C   UNL     1      -0.660  10.921  20.962  0.00  0.00    +0.000 A 
ATOM     10  C   UNL     1       0.193  10.002  20.295  0.00  0.00    +0.000 A 
ENDROOT
BRANCH   8  11
ATOM     11  C   UNL     1      -1.682  11.940  22.961  0.00  0.00    +0.000 A 
ATOM     12  C   UNL     1      -2.996  11.802  23.478  0.00  0.00    +0.000 A 
ATOM     13  N   UNL     1      -3.483  12.947  23.958  0.00  0.00    +0.000 NA
ATOM     14  N   UNL     1      -2.497  13.826  23.744  0.00  0.00    +0.000 N 
ATOM     15  C   UNL     1      -1.392  13.272  23.163  0.00  0.00    +0.000 A 
ATOM     16  H   UNL     1      -2.643  14.790  24.021  0.00  0.00    +0.000 HD
ENDBRANCH   8  11
BRANCH   1  17
ATOM     17  N   UNL     1      -0.309  10.800  18.033  0.00  0.00    +0.000 N 
ATOM     18  C   UNL     1      -0.338  12.215  18.412  0.00  0.00    +0.000 C 
BRANCH  17  19
ATOM     19  C   UNL     1      -1.549  10.285  17.431  0.00  0.00    +0.000 C 
BRANCH  19  20
ATOM     20  C   UNL     1      -2.782  11.108  17.912  0.00  0.00    +0.000 C 
BRANCH  20  22
ATOM     21  C   UNL     1      -3.660  10.653  15.687  0.00  0.00    +0.000 C 
ATOM     22  N   UNL     1      -3.723  11.536  16.851  0.00  0.00    +0.000 NA
ATOM     23  C   UNL     1      -5.092  11.597  17.363  0.00  0.00    +0.000 C 
ENDBRANCH  20  22
ENDBRANCH  19  20
ENDBRANCH  17  19
ENDBRANCH   1  17
BRANCH   3  24
ATOM     24  C   UNL     1       2.690   7.033  18.602  0.00  0.00    +0.000 C 
BRANCH  24  25
ATOM     25  N   UNL     1       3.641   7.507  17.559  0.00  0.00    +0.000 NA
ATOM     26  H   UNL     1       4.265   8.178  18.014  0.00  0.00    +0.000 HD
ATOM     27  H   UNL     1       3.127   8.029  16.852  0.00  0.00    +0.000 HD
ENDBRANCH  24  25
BRANCH  24  28
ATOM     28  C   UNL     1       1.739   5.941  18.031  0.00  0.00    +0.000 C 
BRANCH  28  29
ATOM     29  C   UNL     1       1.733   4.648  18.837  0.00  0.00    +0.000 A 
ATOM     30  C   UNL     1       1.421   3.424  18.224  0.00  0.00    +0.000 A 
ATOM     31  C   UNL     1       1.358   2.242  18.971  0.00  0.00    +0.000 A 
ATOM     32  C   UNL     1       1.614   2.265  20.338  0.00  0.00    +0.000 A 
ATOM     33  C   UNL     1       1.949   3.468  20.946  0.00  0.00    +0.000 A 
ATOM     34  F   UNL     1       2.202   3.489  22.261  0.00  0.00    +0.000 F 
ATOM     35  C   UNL     1       2.014   4.653  20.212  0.00  0.00    +0.000 A 
ENDBRANCH  28  29
ENDBRANCH  24  28
ENDBRANCH   3  24
TORSDOF 9
ENDMDL
MODEL 5
REMARK VINA RESULT:      -7.7      4.749      7.856
REMARK  Name = 
REMARK  12 active torsions:
REMARK  status: ('A' for Active; 'I' for Inactive)
REMARK    1  A    between atoms: C_1  and  N_2
REMARK    2  A    between atoms: N_2  and  C_3
REMARK    3  A    between atoms: N_2  and  C_4
REMARK    4  A    between atoms: C_4  and  C_5
REMARK    5  A    between atoms: C_5  and  N_6
REMARK    6  A    between atoms: N_6  and  C_7
REMARK    7  A    between atoms: N_6  and  C_8
REMARK    8  A    between atoms: C_10  and  C_11
REMARK    9  A    between atoms: C_11  and  N_12
REMARK   10  A    between atoms: C_11  and  C_13
REMARK   11  A    between atoms: C_13  and  C_14
REMARK   12  A    between atoms: C_25  and  C_26
REMARK                            x       y       z     vdW  Elec       q    Type
REMARK                         _______ _______ _______ _____ _____    ______ ____
ROOT
ATOM      1  C   UNL     1       4.014   4.353  18.011  0.00  0.00    +0.000 A 
ATOM      2  N   UNL     1       4.866   3.848  17.091  0.00  0.00    +0.000 NA
ATOM      3  C   UNL     1       5.416   4.700  16.197  0.00  0.00    +0.000 A 
ATOM      4  N   UNL     1       5.139   6.017  16.124  0.00  0.00    +0.000 NA
ATOM      5  C   UNL     1       4.285   6.511  17.022  0.00  0.00    +0.000 A 
ATOM      6  C   UNL     1       3.985   7.867  16.967  0.00  0.00    +0.000 A 
ATOM      7  C   UNL     1       3.097   8.477  17.865  0.00  0.00    +0.000 A 
ATOM      8  C   UNL     1       2.465   7.717  18.844  0.00  0.00    +0.000 A 
ATOM      9  C   UNL     1       2.761   6.351  18.895  0.00  0.00    +0.000 A 
ATOM     10  C   UNL     1       3.682   5.728  18.012  0.00  0.00    +0.000 A 
ENDROOT
BRANCH   8  11
ATOM     11  C   UNL     1       1.490   8.274  19.769  0.00  0.00    +0.000 A 
ATOM     12  C   UNL     1       0.667   9.423  19.648  0.00  0.00    +0.000 A 
ATOM     13  N   UNL     1      -0.106   9.619  20.717  0.00  0.00    +0.000 NA
ATOM     14  N   UNL     1       0.220   8.610  21.533  0.00  0.00    +0.000 N 
ATOM     15  C   UNL     1       1.159   7.768  21.008  0.00  0.00    +0.000 A 
ATOM     16  H   UNL     1      -0.240   8.552  22.434  0.00  0.00    +0.000 HD
ENDBRANCH   8  11
BRANCH   1  17
ATOM     17  N   UNL     1       3.437   3.477  18.950  0.00  0.00    +0.000 N 
ATOM     18  C   UNL     1       4.363   2.665  19.743  0.00  0.00    +0.000 C 
BRANCH  17  19
ATOM     19  C   UNL     1       2.193   2.801  18.550  0.00  0.00    +0.000 C 
BRANCH  19  20
ATOM     20  C   UNL     1       1.615   1.959  19.728  0.00  0.00    +0.000 C 
BRANCH  20  22
ATOM     21  C   UNL     1       1.683   2.671  22.057  0.00  0.00    +0.000 C 
ATOM     22  N   UNL     1       0.940   2.730  20.798  0.00  0.00    +0.000 NA
ATOM     23  C   UNL     1       0.746   4.123  20.393  0.00  0.00    +0.000 C 
ENDBRANCH  20  22
ENDBRANCH  19  20
ENDBRANCH  17  19
ENDBRANCH   1  17
BRANCH   3  24
ATOM     24  C   UNL     1       6.598   4.207  15.347  0.00  0.00    +0.000 C 
BRANCH  24  25
ATOM     25  N   UNL     1       7.884   4.484  16.045  0.00  0.00    +0.000 NA
ATOM     26  H   UNL     1       7.726   5.302  16.639  0.00  0.00    +0.000 HD
ATOM     27  H   UNL     1       8.583   4.760  15.358  0.00  0.00    +0.000 HD
ENDBRANCH  24  25
BRANCH  24  28
ATOM     28  C   UNL     1       6.599   4.822  13.917  0.00  0.00    +0.000 C 
BRANCH  28  29
ATOM     29  C   UNL     1       6.070   3.880  12.843  0.00  0.00    +0.000 A 
ATOM     30  C   UNL     1       4.725   3.935  12.442  0.00  0.00    +0.000 A 
ATOM     31  C   UNL     1       4.219   3.034  11.497  0.00  0.00    +0.000 A 
ATOM     32  C   UNL     1       5.051   2.073  10.933  0.00  0.00    +0.000 A 
ATOM     33  C   UNL     1       6.388   2.029  11.306  0.00  0.00    +0.000 A 
ATOM     34  F   UNL     1       7.191   1.108  10.758  0.00  0.00    +0.000 F 
ATOM     35  C   UNL     1       6.904   2.921  12.247  0.00  0.00    +0.000 A 
ENDBRANCH  28  29
ENDBRANCH  24  28
ENDBRANCH   3  24
TORSDOF 9
ENDMDL
MODEL 6
REMARK VINA RESULT:      -7.7      1.616      1.688
REMARK  Name = 
REMARK  12 active torsions:
REMARK  status: ('A' for Active; 'I' for Inactive)
REMARK    1  A    between atoms: C_1  and  N_2
REMARK    2  A    between atoms: N_2  and  C_3
REMARK    3  A    between atoms: N_2  and  C_4
REMARK    4  A    between atoms: C_4  and  C_5
REMARK    5  A    between atoms: C_5  and  N_6
REMARK    6  A    between atoms: N_6  and  C_7
REMARK    7  A    between atoms: N_6  and  C_8
REMARK    8  A    between atoms: C_10  and  C_11
REMARK    9  A    between atoms: C_11  and  N_12
REMARK   10  A    between atoms: C_11  and  C_13
REMARK   11  A    between atoms: C_13  and  C_14
REMARK   12  A    between atoms: C_25  and  C_26
REMARK                            x       y       z     vdW  Elec       q    Type
REMARK                         _______ _______ _______ _____ _____    ______ ____
ROOT
ATOM      1  C   UNL     1      -0.133  11.022  19.151  0.00  0.00    +0.000 A 
ATOM      2  N   UNL     1       0.829  10.216  18.647  0.00  0.00    +0.000 NA
ATOM      3  C   UNL     1       1.399   9.311  19.474  0.00  0.00    +0.000 A 
ATOM      4  N   UNL     1       1.111   9.183  20.784  0.00  0.00    +0.000 NA
ATOM      5  C   UNL     1       0.174   9.990  21.285  0.00  0.00    +0.000 A 
ATOM      6  C   UNL     1      -0.140   9.875  22.634  0.00  0.00    +0.000 A 
ATOM      7  C   UNL     1      -1.109  10.681  23.250  0.00  0.00    +0.000 A 
ATOM      8  C   UNL     1      -1.780  11.651  22.513  0.00  0.00    +0.000 A 
ATOM      9  C   UNL     1      -1.459  11.771  21.157  0.00  0.00    +0.000 A 
ATOM     10  C   UNL     1      -0.504  10.941  20.514  0.00  0.00    +0.000 A 
ENDROOT
BRANCH   8  11
ATOM     11  C   UNL     1      -2.753  12.558  23.102  0.00  0.00    +0.000 A 
ATOM     12  C   UNL     1      -2.992  13.933  22.848  0.00  0.00    +0.000 A 
ATOM     13  N   UNL     1      -3.977  14.432  23.596  0.00  0.00    +0.000 NA
ATOM     14  N   UNL     1      -4.369  13.391  24.339  0.00  0.00    +0.000 N 
ATOM     15  C   UNL     1      -3.679  12.242  24.074  0.00  0.00    +0.000 A 
ATOM     16  H   UNL     1      -5.117  13.532  25.009  0.00  0.00    +0.000 HD
ENDBRANCH   8  11
BRANCH   1  17
ATOM     17  N   UNL     1      -0.737  11.967  18.300  0.00  0.00    +0.000 N 
ATOM     18  C   UNL     1      -0.342  13.365  18.489  0.00  0.00    +0.000 C 
BRANCH  17  19
ATOM     19  C   UNL     1      -2.155  11.754  17.973  0.00  0.00    +0.000 C 
BRANCH  19  20
ATOM     20  C   UNL     1      -2.370  10.356  17.318  0.00  0.00    +0.000 C 
BRANCH  20  22
ATOM     21  C   UNL     1      -4.487  11.298  16.567  0.00  0.00    +0.000 C 
ATOM     22  N   UNL     1      -3.473  10.270  16.332  0.00  0.00    +0.000 NA
ATOM     23  C   UNL     1      -2.960  10.371  14.966  0.00  0.00    +0.000 C 
ENDBRANCH  20  22
ENDBRANCH  19  20
ENDBRANCH  17  19
ENDBRANCH   1  17
BRANCH   3  24
ATOM     24  C   UNL     1       2.267   8.202  18.858  0.00  0.00    +0.000 C 
BRANCH  24  25
ATOM     25  N   UNL     1       2.192   8.258  17.371  0.00  0.00    +0.000 NA
ATOM     26  H   UNL     1       3.104   8.586  17.043  0.00  0.00    +0.000 HD
ATOM     27  H   UNL     1       1.517   8.969  17.098  0.00  0.00    +0.000 HD
ENDBRANCH  24  25
BRANCH  24  28
ATOM     28  C   UNL     1       1.882   6.788  19.379  0.00  0.00    +0.000 C 
BRANCH  28  29
ATOM     29  C   UNL     1       2.645   5.655  18.702  0.00  0.00    +0.000 A 
ATOM     30  C   UNL     1       1.969   4.700  17.927  0.00  0.00    +0.000 A 
ATOM     31  C   UNL     1       2.656   3.625  17.351  0.00  0.00    +0.000 A 
ATOM     32  C   UNL     1       4.029   3.495  17.534  0.00  0.00    +0.000 A 
ATOM     33  C   UNL     1       4.708   4.450  18.278  0.00  0.00    +0.000 A 
ATOM     34  F   UNL     1       6.031   4.329  18.448  0.00  0.00    +0.000 F 
ATOM     35  C   UNL     1       4.034   5.526  18.858  0.00  0.00    +0.000 A 
ENDBRANCH  28  29
ENDBRANCH  24  28
ENDBRANCH   3  24
TORSDOF 9
ENDMDL
MODEL 7
REMARK VINA RESULT:      -7.7      1.200      1.758
REMARK  Name = 
REMARK  12 active torsions:
REMARK  status: ('A' for Active; 'I' for Inactive)
REMARK    1  A    between atoms: C_1  and  N_2
REMARK    2  A    between atoms: N_2  and  C_3
REMARK    3  A    between atoms: N_2  and  C_4
REMARK    4  A    between atoms: C_4  and  C_5
REMARK    5  A    between atoms: C_5  and  N_6
REMARK    6  A    between atoms: N_6  and  C_7
REMARK    7  A    between atoms: N_6  and  C_8
REMARK    8  A    between atoms: C_10  and  C_11
REMARK    9  A    between atoms: C_11  and  N_12
REMARK   10  A    between atoms: C_11  and  C_13
REMARK   11  A    between atoms: C_13  and  C_14
REMARK   12  A    between atoms: C_25  and  C_26
REMARK                            x       y       z     vdW  Elec       q    Type
REMARK                         _______ _______ _______ _____ _____    ______ ____
ROOT
ATOM      1  C   UNL     1       0.637  10.502  19.156  0.00  0.00    +0.000 A 
ATOM      2  N   UNL     1       1.475   9.591  18.610  0.00  0.00    +0.000 NA
ATOM      3  C   UNL     1       1.861   8.543  19.371  0.00  0.00    +0.000 A 
ATOM      4  N   UNL     1       1.508   8.362  20.659  0.00  0.00    +0.000 NA
ATOM      5  C   UNL     1       0.695   9.270  21.203  0.00  0.00    +0.000 A 
ATOM      6  C   UNL     1       0.317   9.103  22.530  0.00  0.00    +0.000 A 
ATOM      7  C   UNL     1      -0.531  10.006  23.188  0.00  0.00    +0.000 A 
ATOM      8  C   UNL     1      -1.009  11.127  22.518  0.00  0.00    +0.000 A 
ATOM      9  C   UNL     1      -0.623  11.299  21.185  0.00  0.00    +0.000 A 
ATOM     10  C   UNL     1       0.208  10.376  20.498  0.00  0.00    +0.000 A 
ENDROOT
BRANCH   8  11
ATOM     11  C   UNL     1      -1.844  12.132  23.158  0.00  0.00    +0.000 A 
ATOM     12  C   UNL     1      -3.175  12.042  23.642  0.00  0.00    +0.000 A 
ATOM     13  N   UNL     1      -3.610  13.188  24.168  0.00  0.00    +0.000 NA
ATOM     14  N   UNL     1      -2.574  14.020  24.017  0.00  0.00    +0.000 N 
ATOM     15  C   UNL     1      -1.488  13.435  23.431  0.00  0.00    +0.000 A 
ATOM     16  H   UNL     1      -2.674  14.976  24.340  0.00  0.00    +0.000 HD
ENDBRANCH   8  11
BRANCH   1  17
ATOM     17  N   UNL     1       0.225  11.597  18.372  0.00  0.00    +0.000 N 
ATOM     18  C   UNL     1       0.999  12.832  18.515  0.00  0.00    +0.000 C 
BRANCH  17  19
ATOM     19  C   UNL     1      -1.224  11.780  18.199  0.00  0.00    +0.000 C 
BRANCH  19  20
ATOM     20  C   UNL     1      -1.824  10.649  17.308  0.00  0.00    +0.000 C 
BRANCH  20  22
ATOM     21  C   UNL     1      -2.853  10.156  15.157  0.00  0.00    +0.000 C 
ATOM     22  N   UNL     1      -2.800  11.087  16.284  0.00  0.00    +0.000 NA
ATOM     23  C   UNL     1      -4.132  11.247  16.868  0.00  0.00    +0.000 C 
ENDBRANCH  20  22
ENDBRANCH  19  20
ENDBRANCH  17  19
ENDBRANCH   1  17
BRANCH   3  24
ATOM     24  C   UNL     1       2.560   7.359  18.686  0.00  0.00    +0.000 C 
BRANCH  24  25
ATOM     25  N   UNL     1       3.459   7.850  17.604  0.00  0.00    +0.000 NA
ATOM     26  H   UNL     1       2.855   8.187  16.850  0.00  0.00    +0.000 HD
ATOM     27  H   UNL     1       3.981   7.063  17.222  0.00  0.00    +0.000 HD
ENDBRANCH  24  25
BRANCH  24  28
ATOM     28  C   UNL     1       1.552   6.310  18.135  0.00  0.00    +0.000 C 
BRANCH  28  29
ATOM     29  C   UNL     1       2.096   4.887  18.113  0.00  0.00    +0.000 A 
ATOM     30  C   UNL     1       3.325   4.600  17.500  0.00  0.00    +0.000 A 
ATOM     31  C   UNL     1       3.803   3.286  17.426  0.00  0.00    +0.000 A 
ATOM     32  C   UNL     1       3.063   2.242  17.972  0.00  0.00    +0.000 A 
ATOM     33  C   UNL     1       1.858   2.523  18.603  0.00  0.00    +0.000 A 
ATOM     34  F   UNL     1       1.149   1.518  19.135  0.00  0.00    +0.000 F 
ATOM     35  C   UNL     1       1.371   3.827  18.683  0.00  0.00    +0.000 A 
ENDBRANCH  28  29
ENDBRANCH  24  28
ENDBRANCH   3  24
TORSDOF 9
ENDMDL
MODEL 8
REMARK VINA RESULT:      -7.7      4.190      7.209
REMARK  Name = 
REMARK  12 active torsions:
REMARK  status: ('A' for Active; 'I' for Inactive)
REMARK    1  A    between atoms: C_1  and  N_2
REMARK    2  A    between atoms: N_2  and  C_3
REMARK    3  A    between atoms: N_2  and  C_4
REMARK    4  A    between atoms: C_4  and  C_5
REMARK    5  A    between atoms: C_5  and  N_6
REMARK    6  A    between atoms: N_6  and  C_7
REMARK    7  A    between atoms: N_6  and  C_8
REMARK    8  A    between atoms: C_10  and  C_11
REMARK    9  A    between atoms: C_11  and  N_12
REMARK   10  A    between atoms: C_11  and  C_13
REMARK   11  A    between atoms: C_13  and  C_14
REMARK   12  A    between atoms: C_25  and  C_26
REMARK                            x       y       z     vdW  Elec       q    Type
REMARK                         _______ _______ _______ _____ _____    ______ ____
ROOT
ATOM      1  C   UNL     1       2.689   5.447  18.807  0.00  0.00    +0.000 A 
ATOM      2  N   UNL     1       3.638   4.710  18.186  0.00  0.00    +0.000 NA
ATOM      3  C   UNL     1       4.487   5.343  17.345  0.00  0.00    +0.000 A 
ATOM      4  N   UNL     1       4.427   6.654  17.040  0.00  0.00    +0.000 NA
ATOM      5  C   UNL     1       3.480   7.377  17.641  0.00  0.00    +0.000 A 
ATOM      6  C   UNL     1       3.400   8.733  17.343  0.00  0.00    +0.000 A 
ATOM      7  C   UNL     1       2.436   9.572  17.921  0.00  0.00    +0.000 A 
ATOM      8  C   UNL     1       1.504   9.053  18.812  0.00  0.00    +0.000 A 
ATOM      9  C   UNL     1       1.580   7.688  19.107  0.00  0.00    +0.000 A 
ATOM     10  C   UNL     1       2.569   6.834  18.553  0.00  0.00    +0.000 A 
ENDROOT
BRANCH   8  11
ATOM     11  C   UNL     1       0.443   9.855  19.402  0.00  0.00    +0.000 A 
ATOM     12  C   UNL     1      -0.693  10.455  18.799  0.00  0.00    +0.000 A 
ATOM     13  N   UNL     1      -1.446  11.125  19.673  0.00  0.00    +0.000 NA
ATOM     14  N   UNL     1      -0.799  10.971  20.833  0.00  0.00    +0.000 N 
ATOM     15  C   UNL     1       0.329  10.208  20.730  0.00  0.00    +0.000 A 
ATOM     16  H   UNL     1      -1.185  11.411  21.661  0.00  0.00    +0.000 HD
ENDBRANCH   8  11
BRANCH   1  17
ATOM     17  N   UNL     1       1.801   4.801  19.688  0.00  0.00    +0.000 N 
ATOM     18  C   UNL     1       2.119   4.886  21.116  0.00  0.00    +0.000 C 
BRANCH  17  19
ATOM     19  C   UNL     1       1.245   3.514  19.244  0.00  0.00    +0.000 C 
BRANCH  19  20
ATOM     20  C   UNL     1       1.808   2.340  20.102  0.00  0.00    +0.000 C 
BRANCH  20  22
ATOM     21  C   UNL     1       3.005   1.736  18.068  0.00  0.00    +0.000 C 
ATOM     22  N   UNL     1       2.970   1.623  19.526  0.00  0.00    +0.000 NA
ATOM     23  C   UNL     1       4.222   2.117  20.100  0.00  0.00    +0.000 C 
ENDBRANCH  20  22
ENDBRANCH  19  20
ENDBRANCH  17  19
ENDBRANCH   1  17
BRANCH   3  24
ATOM     24  C   UNL     1       5.740   4.592  16.868  0.00  0.00    +0.000 C 
BRANCH  24  25
ATOM     25  N   UNL     1       6.492   4.054  18.036  0.00  0.00    +0.000 NA
ATOM     26  H   UNL     1       7.175   3.389  17.665  0.00  0.00    +0.000 HD
ATOM     27  H   UNL     1       5.858   3.516  18.622  0.00  0.00    +0.000 HD
ENDBRANCH  24  25
BRANCH  24  28
ATOM     28  C   UNL     1       6.658   5.474  15.975  0.00  0.00    +0.000 C 
BRANCH  28  29
ATOM     29  C   UNL     1       6.805   4.961  14.548  0.00  0.00    +0.000 A 
ATOM     30  C   UNL     1       7.731   5.544  13.669  0.00  0.00    +0.000 A 
ATOM     31  C   UNL     1       7.830   5.116  12.340  0.00  0.00    +0.000 A 
ATOM     32  C   UNL     1       7.011   4.092  11.873  0.00  0.00    +0.000 A 
ATOM     33  C   UNL     1       6.111   3.494  12.745  0.00  0.00    +0.000 A 
ATOM     34  F   UNL     1       5.327   2.503  12.297  0.00  0.00    +0.000 F 
ATOM     35  C   UNL     1       6.002   3.912  14.071  0.00  0.00    +0.000 A 
ENDBRANCH  28  29
ENDBRANCH  24  28
ENDBRANCH   3  24
TORSDOF 9
ENDMDL
MODEL 9
REMARK VINA RESULT:      -7.6      2.045      2.673
REMARK  Name = 
REMARK  12 active torsions:
REMARK  status: ('A' for Active; 'I' for Inactive)
REMARK    1  A    between atoms: C_1  and  N_2
REMARK    2  A    between atoms: N_2  and  C_3
REMARK    3  A    between atoms: N_2  and  C_4
REMARK    4  A    between atoms: C_4  and  C_5
REMARK    5  A    between atoms: C_5  and  N_6
REMARK    6  A    between atoms: N_6  and  C_7
REMARK    7  A    between atoms: N_6  and  C_8
REMARK    8  A    between atoms: C_10  and  C_11
REMARK    9  A    between atoms: C_11  and  N_12
REMARK   10  A    between atoms: C_11  and  C_13
REMARK   11  A    between atoms: C_13  and  C_14
REMARK   12  A    between atoms: C_25  and  C_26
REMARK                            x       y       z     vdW  Elec       q    Type
REMARK                         _______ _______ _______ _____ _____    ______ ____
ROOT
ATOM      1  C   UNL     1       0.359  10.019  19.158  0.00  0.00    +0.000 A 
ATOM      2  N   UNL     1       1.214   9.091  18.671  0.00  0.00    +0.000 NA
ATOM      3  C   UNL     1       1.750   8.202  19.536  0.00  0.00    +0.000 A 
ATOM      4  N   UNL     1       1.532   8.201  20.865  0.00  0.00    +0.000 NA
ATOM      5  C   UNL     1       0.702   9.127  21.349  0.00  0.00    +0.000 A 
ATOM      6  C   UNL     1       0.461   9.144  22.717  0.00  0.00    +0.000 A 
ATOM      7  C   UNL     1      -0.393  10.081  23.317  0.00  0.00    +0.000 A 
ATOM      8  C   UNL     1      -1.019  11.051  22.541  0.00  0.00    +0.000 A 
ATOM      9  C   UNL     1      -0.771  11.038  21.164  0.00  0.00    +0.000 A 
ATOM     10  C   UNL     1       0.066  10.076  20.541  0.00  0.00    +0.000 A 
ENDROOT
BRANCH   8  11
ATOM     11  C   UNL     1      -1.870  12.087  23.106  0.00  0.00    +0.000 A 
ATOM     12  C   UNL     1      -3.193  12.008  23.612  0.00  0.00    +0.000 A 
ATOM     13  N   UNL     1      -3.649  13.183  24.048  0.00  0.00    +0.000 NA
ATOM     14  N   UNL     1      -2.633  14.023  23.818  0.00  0.00    +0.000 N 
ATOM     15  C   UNL     1      -1.540  13.416  23.269  0.00  0.00    +0.000 A 
ATOM     16  H   UNL     1      -2.751  15.000  24.062  0.00  0.00    +0.000 HD
ENDBRANCH   8  11
BRANCH   1  17
ATOM     17  N   UNL     1      -0.209  10.950  18.267  0.00  0.00    +0.000 N 
ATOM     18  C   UNL     1      -0.047  12.365  18.608  0.00  0.00    +0.000 C 
BRANCH  17  19
ATOM     19  C   UNL     1      -1.504  10.591  17.670  0.00  0.00    +0.000 C 
BRANCH  19  20
ATOM     20  C   UNL     1      -2.587  11.660  18.010  0.00  0.00    +0.000 C 
BRANCH  20  22
ATOM     21  C   UNL     1      -3.608  10.969  15.909  0.00  0.00    +0.000 C 
ATOM     22  N   UNL     1      -3.835  11.586  17.216  0.00  0.00    +0.000 NA
ATOM     23  C   UNL     1      -4.873  10.854  17.944  0.00  0.00    +0.000 C 
ENDBRANCH  20  22
ENDBRANCH  19  20
ENDBRANCH  17  19
ENDBRANCH   1  17
BRANCH   3  24
ATOM     24  C   UNL     1       2.477   6.974  18.966  0.00  0.00    +0.000 C 
BRANCH  24  25
ATOM     25  N   UNL     1       3.168   6.233  20.059  0.00  0.00    +0.000 NA
ATOM     26  H   UNL     1       4.015   5.829  19.650  0.00  0.00    +0.000 HD
ATOM     27  H   UNL     1       2.588   5.448  20.348  0.00  0.00    +0.000 HD
ENDBRANCH  24  25
BRANCH  24  28
ATOM     28  C   UNL     1       3.475   7.347  17.832  0.00  0.00    +0.000 C 
BRANCH  28  29
ATOM     29  C   UNL     1       4.178   6.145  17.212  0.00  0.00    +0.000 A 
ATOM     30  C   UNL     1       3.631   4.857  17.328  0.00  0.00    +0.000 A 
ATOM     31  C   UNL     1       4.300   3.742  16.811  0.00  0.00    +0.000 A 
ATOM     32  C   UNL     1       5.522   3.899  16.164  0.00  0.00    +0.000 A 
ATOM     33  C   UNL     1       6.057   5.173  16.024  0.00  0.00    +0.000 A 
ATOM     34  F   UNL     1       7.230   5.326  15.395  0.00  0.00    +0.000 F 
ATOM     35  C   UNL     1       5.399   6.292  16.535  0.00  0.00    +0.000 A 
ENDBRANCH  28  29
ENDBRANCH  24  28
ENDBRANCH   3  24
TORSDOF 9
ENDMDL
