MODEL 1
REMARK VINA RESULT:      -6.4      0.000      0.000
REMARK  Name = 
REMARK  6 active torsions:
REMARK  status: ('A' for Active; 'I' for Inactive)
REMARK    1  A    between atoms: C_1  and  C_2
REMARK    2  A    between atoms: C_2  and  C_3
REMARK    3  A    between atoms: C_3  and  C_4
REMARK    4  A    between atoms: C_3  and  N_5
REMARK    5  A    between atoms: C_6  and  C_8
REMARK    6  A    between atoms: C_12  and  C_13
REMARK                            x       y       z     vdW  Elec       q    Type
REMARK                         _______ _______ _______ _____ _____    ______ ____
ROOT
ATOM      1  N   UNL     1       5.509   5.145  17.491  0.00  0.00    +0.000 N 
ATOM      2  C   UNL     1       5.111   4.801  18.771  0.00  0.00    +0.000 C 
ATOM      3  O   UNL     1       5.850   4.736  19.742  0.00  0.00    +0.000 OA
ATOM      4  H   UNL     1       4.882   4.838  16.758  0.00  0.00    +0.000 HD
ENDROOT
BRANCH   2   5
ATOM      5  C   UNL     1       3.680   4.405  18.888  0.00  0.00    +0.000 A 
ATOM      6  C   UNL     1       2.813   4.465  17.791  0.00  0.00    +0.000 A 
ATOM      7  C   UNL     1       1.511   3.986  17.911  0.00  0.00    +0.000 A 
ATOM      8  C   UNL     1       1.075   3.435  19.120  0.00  0.00    +0.000 A 
ATOM      9  C   UNL     1       1.928   3.392  20.229  0.00  0.00    +0.000 A 
ATOM     10  C   UNL     1       1.502   2.722  21.501  0.00  0.00    +0.000 C 
ATOM     11  C   UNL     1       3.229   3.902  20.112  0.00  0.00    +0.000 A 
ENDBRANCH   2   5
BRANCH   1  12
ATOM     12  C   UNL     1       6.905   5.332  17.094  0.00  0.00    +0.000 C 
ATOM     13  C   UNL     1       7.384   6.771  17.299  0.00  0.00    +0.000 C 
BRANCH  12  15
ATOM     14  C   UNL     1       5.947   3.970  15.125  0.00  0.00    +0.000 C 
ATOM     15  C   UNL     1       7.042   4.899  15.619  0.00  0.00    +0.000 C 
ENDBRANCH  12  15
ENDBRANCH   1  12
TORSDOF 3
ENDMDL
MODEL 2
REMARK VINA RESULT:      -6.4      2.836      4.213
REMARK  Name = 
REMARK  6 active torsions:
REMARK  status: ('A' for Active; 'I' for Inactive)
REMARK    1  A    between atoms: C_1  and  C_2
REMARK    2  A    between atoms: C_2  and  C_3
REMARK    3  A    between atoms: C_3  and  C_4
REMARK    4  A    between atoms: C_3  and  N_5
REMARK    5  A    between atoms: C_6  and  C_8
REMARK    6  A    between atoms: C_12  and  C_13
REMARK                            x       y       z     vdW  Elec       q    Type
REMARK                         _______ _______ _______ _____ _____    ______ ____
ROOT
ATOM      1  N   UNL     1       5.760   4.147  13.754  0.00  0.00    +0.000 N 
ATOM      2  C   UNL     1       6.304   4.879  14.794  0.00  0.00    +0.000 C 
ATOM      3  O   UNL     1       7.475   5.220  14.876  0.00  0.00    +0.000 OA
ATOM      4  H   UNL     1       4.895   3.671  13.981  0.00  0.00    +0.000 HD
ENDROOT
BRANCH   2   5
ATOM      5  C   UNL     1       5.359   5.167  15.908  0.00  0.00    +0.000 A 
ATOM      6  C   UNL     1       5.190   6.464  16.407  0.00  0.00    +0.000 A 
ATOM      7  C   UNL     1       4.221   6.713  17.375  0.00  0.00    +0.000 A 
ATOM      8  C   UNL     1       3.410   5.673  17.839  0.00  0.00    +0.000 A 
ATOM      9  C   UNL     1       3.587   4.368  17.363  0.00  0.00    +0.000 A 
ATOM     10  C   UNL     1       2.664   3.263  17.785  0.00  0.00    +0.000 C 
ATOM     11  C   UNL     1       4.583   4.117  16.409  0.00  0.00    +0.000 A 
ENDBRANCH   2   5
BRANCH   1  12
ATOM     12  C   UNL     1       6.551   3.546  12.680  0.00  0.00    +0.000 C 
ATOM     13  C   UNL     1       7.240   4.595  11.803  0.00  0.00    +0.000 C 
BRANCH  12  15
ATOM     14  C   UNL     1       4.290   3.286  11.466  0.00  0.00    +0.000 C 
ATOM     15  C   UNL     1       5.614   2.646  11.845  0.00  0.00    +0.000 C 
ENDBRANCH  12  15
ENDBRANCH   1  12
TORSDOF 3
ENDMDL
MODEL 3
REMARK VINA RESULT:      -6.2      1.615      2.554
REMARK  Name = 
REMARK  6 active torsions:
REMARK  status: ('A' for Active; 'I' for Inactive)
REMARK    1  A    between atoms: C_1  and  C_2
REMARK    2  A    between atoms: C_2  and  C_3
REMARK    3  A    between atoms: C_3  and  C_4
REMARK    4  A    between atoms: C_3  and  N_5
REMARK    5  A    between atoms: C_6  and  C_8
REMARK    6  A    between atoms: C_12  and  C_13
REMARK                            x       y       z     vdW  Elec       q    Type
REMARK                         _______ _______ _______ _____ _____    ______ ____
ROOT
ATOM      1  N   UNL     1       5.159   5.287  17.433  0.00  0.00    +0.000 N 
ATOM      2  C   UNL     1       4.053   6.062  17.735  0.00  0.00    +0.000 C 
ATOM      3  O   UNL     1       3.869   7.205  17.343  0.00  0.00    +0.000 OA
ATOM      4  H   UNL     1       5.327   4.524  18.077  0.00  0.00    +0.000 HD
ENDROOT
BRANCH   2   5
ATOM      5  C   UNL     1       3.096   5.429  18.684  0.00  0.00    +0.000 A 
ATOM      6  C   UNL     1       2.694   6.078  19.858  0.00  0.00    +0.000 A 
ATOM      7  C   UNL     1       1.717   5.503  20.666  0.00  0.00    +0.000 A 
ATOM      8  C   UNL     1       1.130   4.288  20.302  0.00  0.00    +0.000 A 
ATOM      9  C   UNL     1       1.542   3.621  19.141  0.00  0.00    +0.000 A 
ATOM     10  C   UNL     1       0.857   2.364  18.692  0.00  0.00    +0.000 C 
ATOM     11  C   UNL     1       2.546   4.189  18.346  0.00  0.00    +0.000 A 
ENDBRANCH   2   5
BRANCH   1  12
ATOM     12  C   UNL     1       6.337   5.789  16.725  0.00  0.00    +0.000 C 
ATOM     13  C   UNL     1       7.002   4.714  15.861  0.00  0.00    +0.000 C 
BRANCH  12  15
ATOM     14  C   UNL     1       7.687   7.814  17.577  0.00  0.00    +0.000 C 
ATOM     15  C   UNL     1       7.319   6.354  17.773  0.00  0.00    +0.000 C 
ENDBRANCH  12  15
ENDBRANCH   1  12
TORSDOF 3
ENDMDL
MODEL 4
REMARK VINA RESULT:      -6.2      1.683      2.433
REMARK  Name = 
REMARK  6 active torsions:
REMARK  status: ('A' for Active; 'I' for Inactive)
REMARK    1  A    between atoms: C_1  and  C_2
REMARK    2  A    between atoms: C_2  and  C_3
REMARK    3  A    between atoms: C_3  and  C_4
REMARK    4  A    between atoms: C_3  and  N_5
REMARK    5  A    between atoms: C_6  and  C_8
REMARK    6  A    between atoms: C_12  and  C_13
REMARK                            x       y       z     vdW  Elec       q    Type
REMARK                         _______ _______ _______ _____ _____    ______ ____
ROOT
ATOM      1  N   UNL     1       4.586   5.208  16.762  0.00  0.00    +0.000 N 
ATOM      2  C   UNL     1       3.812   6.084  17.502  0.00  0.00    +0.000 C 
ATOM      3  O   UNL     1       3.843   7.302  17.404  0.00  0.00    +0.000 OA
ATOM      4  H   UNL     1       4.693   4.289  17.175  0.00  0.00    +0.000 HD
ENDROOT
BRANCH   2   5
ATOM      5  C   UNL     1       2.964   5.435  18.539  0.00  0.00    +0.000 A 
ATOM      6  C   UNL     1       2.667   6.077  19.748  0.00  0.00    +0.000 A 
ATOM      7  C   UNL     1       1.785   5.485  20.647  0.00  0.00    +0.000 A 
ATOM      8  C   UNL     1       1.186   4.259  20.340  0.00  0.00    +0.000 A 
ATOM      9  C   UNL     1       1.493   3.599  19.143  0.00  0.00    +0.000 A 
ATOM     10  C   UNL     1       0.790   2.331  18.762  0.00  0.00    +0.000 C 
ATOM     11  C   UNL     1       2.405   4.185  18.254  0.00  0.00    +0.000 A 
ENDBRANCH   2   5
BRANCH   1  12
ATOM     12  C   UNL     1       5.662   5.629  15.865  0.00  0.00    +0.000 C 
ATOM     13  C   UNL     1       5.912   4.623  14.738  0.00  0.00    +0.000 C 
BRANCH  12  15
ATOM     14  C   UNL     1       7.429   4.609  17.443  0.00  0.00    +0.000 C 
ATOM     15  C   UNL     1       6.933   5.846  16.715  0.00  0.00    +0.000 C 
ENDBRANCH  12  15
ENDBRANCH   1  12
TORSDOF 3
ENDMDL
MODEL 5
REMARK VINA RESULT:      -6.2      1.623      5.415
REMARK  Name = 
REMARK  6 active torsions:
REMARK  status: ('A' for Active; 'I' for Inactive)
REMARK    1  A    between atoms: C_1  and  C_2
REMARK    2  A    between atoms: C_2  and  C_3
REMARK    3  A    between atoms: C_3  and  C_4
REMARK    4  A    between atoms: C_3  and  N_5
REMARK    5  A    between atoms: C_6  and  C_8
REMARK    6  A    between atoms: C_12  and  C_13
REMARK                            x       y       z     vdW  Elec       q    Type
REMARK                         _______ _______ _______ _____ _____    ______ ____
ROOT
ATOM      1  N   UNL     1       3.301   3.958  19.769  0.00  0.00    +0.000 N 
ATOM      2  C   UNL     1       3.812   5.179  19.367  0.00  0.00    +0.000 C 
ATOM      3  O   UNL     1       3.281   6.262  19.564  0.00  0.00    +0.000 OA
ATOM      4  H   UNL     1       3.663   3.161  19.261  0.00  0.00    +0.000 HD
ENDROOT
BRANCH   2   5
ATOM      5  C   UNL     1       5.061   5.091  18.561  0.00  0.00    +0.000 A 
ATOM      6  C   UNL     1       6.315   5.355  19.125  0.00  0.00    +0.000 A 
ATOM      7  C   UNL     1       7.468   5.159  18.370  0.00  0.00    +0.000 A 
ATOM      8  C   UNL     1       7.376   4.687  17.057  0.00  0.00    +0.000 A 
ATOM      9  C   UNL     1       6.124   4.442  16.477  0.00  0.00    +0.000 A 
ATOM     10  C   UNL     1       6.016   3.850  15.103  0.00  0.00    +0.000 C 
ATOM     11  C   UNL     1       4.965   4.669  17.231  0.00  0.00    +0.000 A 
ENDBRANCH   2   5
BRANCH   1  12
ATOM     12  C   UNL     1       1.971   3.785  20.355  0.00  0.00    +0.000 C 
ATOM     13  C   UNL     1       2.015   3.056  21.701  0.00  0.00    +0.000 C 
BRANCH  12  15
ATOM     14  C   UNL     1       1.867   2.366  18.204  0.00  0.00    +0.000 C 
ATOM     15  C   UNL     1       1.096   3.026  19.334  0.00  0.00    +0.000 C 
ENDBRANCH  12  15
ENDBRANCH   1  12
TORSDOF 3
ENDMDL
MODEL 6
REMARK VINA RESULT:      -6.1      3.069      5.069
REMARK  Name = 
REMARK  6 active torsions:
REMARK  status: ('A' for Active; 'I' for Inactive)
REMARK    1  A    between atoms: C_1  and  C_2
REMARK    2  A    between atoms: C_2  and  C_3
REMARK    3  A    between atoms: C_3  and  C_4
REMARK    4  A    between atoms: C_3  and  N_5
REMARK    5  A    between atoms: C_6  and  C_8
REMARK    6  A    between atoms: C_12  and  C_13
REMARK                            x       y       z     vdW  Elec       q    Type
REMARK                         _______ _______ _______ _____ _____    ______ ____
ROOT
ATOM      1  N   UNL     1       5.536   3.792  13.443  0.00  0.00    +0.000 N 
ATOM      2  C   UNL     1       6.429   4.555  14.174  0.00  0.00    +0.000 C 
ATOM      3  O   UNL     1       7.348   5.207  13.701  0.00  0.00    +0.000 OA
ATOM      4  H   UNL     1       5.064   3.071  13.974  0.00  0.00    +0.000 HD
ENDROOT
BRANCH   2   5
ATOM      5  C   UNL     1       6.257   4.460  15.651  0.00  0.00    +0.000 A 
ATOM      6  C   UNL     1       7.320   4.707  16.528  0.00  0.00    +0.000 A 
ATOM      7  C   UNL     1       7.096   4.715  17.902  0.00  0.00    +0.000 A 
ATOM      8  C   UNL     1       5.812   4.489  18.405  0.00  0.00    +0.000 A 
ATOM      9  C   UNL     1       4.746   4.219  17.536  0.00  0.00    +0.000 A 
ATOM     10  C   UNL     1       3.349   4.066  18.058  0.00  0.00    +0.000 C 
ATOM     11  C   UNL     1       4.982   4.183  16.155  0.00  0.00    +0.000 A 
ENDBRANCH   2   5
BRANCH   1  12
ATOM     12  C   UNL     1       5.666   3.540  12.007  0.00  0.00    +0.000 C 
ATOM     13  C   UNL     1       4.331   3.167  11.356  0.00  0.00    +0.000 C 
BRANCH  12  15
ATOM     14  C   UNL     1       6.200   1.183  11.107  0.00  0.00    +0.000 C 
ATOM     15  C   UNL     1       6.716   2.426  11.812  0.00  0.00    +0.000 C 
ENDBRANCH  12  15
ENDBRANCH   1  12
TORSDOF 3
ENDMDL
MODEL 7
REMARK VINA RESULT:      -6.1      1.771      5.442
REMARK  Name = 
REMARK  6 active torsions:
REMARK  status: ('A' for Active; 'I' for Inactive)
REMARK    1  A    between atoms: C_1  and  C_2
REMARK    2  A    between atoms: C_2  and  C_3
REMARK    3  A    between atoms: C_3  and  C_4
REMARK    4  A    between atoms: C_3  and  N_5
REMARK    5  A    between atoms: C_6  and  C_8
REMARK    6  A    between atoms: C_12  and  C_13
REMARK                            x       y       z     vdW  Elec       q    Type
REMARK                         _______ _______ _______ _____ _____    ______ ____
ROOT
ATOM      1  N   UNL     1       2.912   3.427  18.855  0.00  0.00    +0.000 N 
ATOM      2  C   UNL     1       4.284   3.368  19.018  0.00  0.00    +0.000 C 
ATOM      3  O   UNL     1       4.865   2.669  19.836  0.00  0.00    +0.000 OA
ATOM      4  H   UNL     1       2.577   4.264  18.395  0.00  0.00    +0.000 HD
ENDROOT
BRANCH   2   5
ATOM      5  C   UNL     1       5.049   4.319  18.164  0.00  0.00    +0.000 A 
ATOM      6  C   UNL     1       4.625   4.644  16.870  0.00  0.00    +0.000 A 
ATOM      7  C   UNL     1       5.306   5.616  16.143  0.00  0.00    +0.000 A 
ATOM      8  C   UNL     1       6.402   6.275  16.707  0.00  0.00    +0.000 A 
ATOM      9  C   UNL     1       6.848   5.941  17.992  0.00  0.00    +0.000 A 
ATOM     10  C   UNL     1       7.965   6.703  18.641  0.00  0.00    +0.000 C 
ATOM     11  C   UNL     1       6.178   4.941  18.709  0.00  0.00    +0.000 A 
ENDBRANCH   2   5
BRANCH   1  12
ATOM     12  C   UNL     1       1.957   2.769  19.747  0.00  0.00    +0.000 C 
ATOM     13  C   UNL     1       0.675   2.347  19.023  0.00  0.00    +0.000 C 
BRANCH  12  15
ATOM     14  C   UNL     1       1.741   5.208  20.556  0.00  0.00    +0.000 C 
ATOM     15  C   UNL     1       1.650   3.734  20.912  0.00  0.00    +0.000 C 
ENDBRANCH  12  15
ENDBRANCH   1  12
TORSDOF 3
ENDMDL
MODEL 8
REMARK VINA RESULT:      -6.1      1.842      5.509
REMARK  Name = 
REMARK  6 active torsions:
REMARK  status: ('A' for Active; 'I' for Inactive)
REMARK    1  A    between atoms: C_1  and  C_2
REMARK    2  A    between atoms: C_2  and  C_3
REMARK    3  A    between atoms: C_3  and  C_4
REMARK    4  A    between atoms: C_3  and  N_5
REMARK    5  A    between atoms: C_6  and  C_8
REMARK    6  A    between atoms: C_12  and  C_13
REMARK                            x       y       z     vdW  Elec       q    Type
REMARK                         _______ _______ _______ _____ _____    ______ ____
ROOT
ATOM      1  N   UNL     1       2.888   4.411  18.867  0.00  0.00    +0.000 N 
ATOM      2  C   UNL     1       3.210   3.945  17.605  0.00  0.00    +0.000 C 
ATOM      3  O   UNL     1       2.446   3.347  16.861  0.00  0.00    +0.000 OA
ATOM      4  H   UNL     1       3.684   4.576  19.471  0.00  0.00    +0.000 HD
ENDROOT
BRANCH   2   5
ATOM      5  C   UNL     1       4.635   4.140  17.219  0.00  0.00    +0.000 A 
ATOM      6  C   UNL     1       5.075   3.914  15.909  0.00  0.00    +0.000 A 
ATOM      7  C   UNL     1       6.391   4.209  15.560  0.00  0.00    +0.000 A 
ATOM      8  C   UNL     1       7.266   4.741  16.512  0.00  0.00    +0.000 A 
ATOM      9  C   UNL     1       6.842   4.949  17.830  0.00  0.00    +0.000 A 
ATOM     10  C   UNL     1       7.743   5.603  18.835  0.00  0.00    +0.000 C 
ATOM     11  C   UNL     1       5.525   4.623  18.184  0.00  0.00    +0.000 A 
ENDBRANCH   2   5
BRANCH   1  12
ATOM     12  C   UNL     1       1.627   4.116  19.547  0.00  0.00    +0.000 C 
ATOM     13  C   UNL     1       1.295   5.141  20.635  0.00  0.00    +0.000 C 
BRANCH  12  15
ATOM     14  C   UNL     1       1.612   2.614  21.644  0.00  0.00    +0.000 C 
ATOM     15  C   UNL     1       1.723   2.690  20.131  0.00  0.00    +0.000 C 
ENDBRANCH  12  15
ENDBRANCH   1  12
TORSDOF 3
ENDMDL
MODEL 9
REMARK VINA RESULT:      -6.1      1.654      5.658
REMARK  Name = 
REMARK  6 active torsions:
REMARK  status: ('A' for Active; 'I' for Inactive)
REMARK    1  A    between atoms: C_1  and  C_2
REMARK    2  A    between atoms: C_2  and  C_3
REMARK    3  A    between atoms: C_3  and  C_4
REMARK    4  A    between atoms: C_3  and  N_5
REMARK    5  A    between atoms: C_6  and  C_8
REMARK    6  A    between atoms: C_12  and  C_13
REMARK                            x       y       z     vdW  Elec       q    Type
REMARK                         _______ _______ _______ _____ _____    ______ ____
ROOT
ATOM      1  N   UNL     1       3.024   3.667  18.875  0.00  0.00    +0.000 N 
ATOM      2  C   UNL     1       4.371   3.448  19.104  0.00  0.00    +0.000 C 
ATOM      3  O   UNL     1       4.826   2.637  19.897  0.00  0.00    +0.000 OA
ATOM      4  H   UNL     1       2.808   4.566  18.460  0.00  0.00    +0.000 HD
ENDROOT
BRANCH   2   5
ATOM      5  C   UNL     1       5.281   4.364  18.362  0.00  0.00    +0.000 A 
ATOM      6  C   UNL     1       6.167   5.216  19.033  0.00  0.00    +0.000 A 
ATOM      7  C   UNL     1       7.077   5.979  18.306  0.00  0.00    +0.000 A 
ATOM      8  C   UNL     1       7.115   5.886  16.911  0.00  0.00    +0.000 A 
ATOM      9  C   UNL     1       6.217   5.054  16.230  0.00  0.00    +0.000 A 
ATOM     10  C   UNL     1       6.309   4.877  14.744  0.00  0.00    +0.000 C 
ATOM     11  C   UNL     1       5.284   4.310  16.964  0.00  0.00    +0.000 A 
ENDBRANCH   2   5
BRANCH   1  12
ATOM     12  C   UNL     1       1.954   3.060  19.666  0.00  0.00    +0.000 C 
ATOM     13  C   UNL     1       1.053   2.148  18.829  0.00  0.00    +0.000 C 
BRANCH  12  15
ATOM     14  C   UNL     1       1.957   5.430  20.685  0.00  0.00    +0.000 C 
ATOM     15  C   UNL     1       1.144   4.198  20.325  0.00  0.00    +0.000 C 
ENDBRANCH  12  15
ENDBRANCH   1  12
TORSDOF 3
ENDMDL
