MODEL 1
REMARK VINA RESULT:      -7.7      0.000      0.000
REMARK  Name = 
REMARK  7 active torsions:
REMARK  status: ('A' for Active; 'I' for Inactive)
REMARK    1  A    between atoms: C_1  and  O_2
REMARK    2  A    between atoms: O_2  and  C_3
REMARK    3  A    between atoms: C_3  and  C_5
REMARK    4  A    between atoms: C_10  and  N_11
REMARK    5  A    between atoms: C_12  and  C_14
REMARK    6  A    between atoms: N_21  and  C_22
REMARK    7  A    between atoms: C_22  and  C_23
REMARK                            x       y       z     vdW  Elec       q    Type
REMARK                         _______ _______ _______ _____ _____    ______ ____
ROOT
ATOM      1  C   UNL     1       4.133   5.934  17.892  0.00  0.00    +0.000 A 
ATOM      2  C   UNL     1       4.932   6.066  16.772  0.00  0.00    +0.000 A 
ATOM      3  C   UNL     1       6.041   5.218  16.993  0.00  0.00    +0.000 A 
ATOM      4  N   UNL     1       7.218   5.020  16.162  0.00  0.00    +0.000 N 
ATOM      5  O   UNL     1       7.278   5.697  15.116  0.00  0.00    +0.000 OA
ATOM      6  O   UNL     1       8.083   4.205  16.532  0.00  0.00    +0.000 OA
ATOM      7  N   UNL     1       5.948   4.555  18.146  0.00  0.00    +0.000 NA
ATOM      8  N   UNL     1       4.799   5.015  18.702  0.00  0.00    +0.000 N 
ENDROOT
BRANCH   1  10
ATOM      9  N   UNL     1       3.016   7.640  19.223  0.00  0.00    +0.000 N 
ATOM     10  C   UNL     1       2.913   6.599  18.289  0.00  0.00    +0.000 C 
ATOM     11  O   UNL     1       1.829   6.279  17.819  0.00  0.00    +0.000 OA
ATOM     12  H   UNL     1       3.864   8.193  19.245  0.00  0.00    +0.000 HD
BRANCH   9  18
ATOM     13  C   UNL     1       1.213   9.366  19.459  0.00  0.00    +0.000 A 
ATOM     14  C   UNL     1       0.064   9.781  20.172  0.00  0.00    +0.000 A 
ATOM     15  C   UNL     1      -0.428   9.067  21.263  0.00  0.00    +0.000 A 
ATOM     16  C   UNL     1       0.217   7.912  21.665  0.00  0.00    +0.000 A 
ATOM     17  C   UNL     1       1.343   7.474  20.968  0.00  0.00    +0.000 A 
ATOM     18  C   UNL     1       1.855   8.177  19.852  0.00  0.00    +0.000 A 
BRANCH  13  19
ATOM     19  C   UNL     1       1.545  10.232  18.289  0.00  0.00    +0.000 C 
ATOM     20  O   UNL     1       2.118   9.789  17.302  0.00  0.00    +0.000 OA
BRANCH  19  22
ATOM     21  C   UNL     1       2.286  12.427  18.380  0.00  0.00    +0.000 C 
ATOM     22  O   UNL     1       1.165  11.529  18.431  0.00  0.00    +0.000 OA
ENDBRANCH  19  22
ENDBRANCH  13  19
ENDBRANCH   9  18
ENDBRANCH   1  10
BRANCH   8  23
ATOM     23  C   UNL     1       4.323   4.354  19.923  0.00  0.00    +0.000 C 
BRANCH  23  24
ATOM     24  C   UNL     1       3.058   3.532  19.800  0.00  0.00    +0.000 A 
ATOM     25  C   UNL     1       1.939   3.863  20.582  0.00  0.00    +0.000 A 
ATOM     26  C   UNL     1       0.679   3.327  20.300  0.00  0.00    +0.000 A 
ATOM     27  C   UNL     1       0.523   2.438  19.240  0.00  0.00    +0.000 A 
ATOM     28  C   UNL     1       1.639   2.041  18.497  0.00  0.00    +0.000 A 
ATOM     29  C   UNL     1       2.900   2.581  18.784  0.00  0.00    +0.000 A 
ENDBRANCH  23  24
ENDBRANCH   8  23
TORSDOF 6
ENDMDL
MODEL 2
REMARK VINA RESULT:      -7.7      0.865      1.356
REMARK  Name = 
REMARK  7 active torsions:
REMARK  status: ('A' for Active; 'I' for Inactive)
REMARK    1  A    between atoms: C_1  and  O_2
REMARK    2  A    between atoms: O_2  and  C_3
REMARK    3  A    between atoms: C_3  and  C_5
REMARK    4  A    between atoms: C_10  and  N_11
REMARK    5  A    between atoms: C_12  and  C_14
REMARK    6  A    between atoms: N_21  and  C_22
REMARK    7  A    between atoms: C_22  and  C_23
REMARK                            x       y       z     vdW  Elec       q    Type
REMARK                         _______ _______ _______ _____ _____    ______ ____
ROOT
ATOM      1  C   UNL     1       3.818   6.168  17.530  0.00  0.00    +0.000 A 
ATOM      2  C   UNL     1       5.048   6.664  17.142  0.00  0.00    +0.000 A 
ATOM      3  C   UNL     1       5.823   5.534  16.793  0.00  0.00    +0.000 A 
ATOM      4  N   UNL     1       7.214   5.474  16.376  0.00  0.00    +0.000 N 
ATOM      5  O   UNL     1       7.826   6.561  16.331  0.00  0.00    +0.000 OA
ATOM      6  O   UNL     1       7.709   4.368  16.094  0.00  0.00    +0.000 OA
ATOM      7  N   UNL     1       5.135   4.397  16.905  0.00  0.00    +0.000 NA
ATOM      8  N   UNL     1       3.925   4.785  17.379  0.00  0.00    +0.000 N 
ENDROOT
BRANCH   1  10
ATOM      9  N   UNL     1       2.831   7.754  19.092  0.00  0.00    +0.000 N 
ATOM     10  C   UNL     1       2.643   6.817  18.066  0.00  0.00    +0.000 C 
ATOM     11  O   UNL     1       1.525   6.571  17.634  0.00  0.00    +0.000 OA
ATOM     12  H   UNL     1       3.695   8.282  19.118  0.00  0.00    +0.000 HD
BRANCH   9  18
ATOM     13  C   UNL     1       1.074   9.473  19.589  0.00  0.00    +0.000 A 
ATOM     14  C   UNL     1      -0.016   9.841  20.412  0.00  0.00    +0.000 A 
ATOM     15  C   UNL     1      -0.440   9.047  21.476  0.00  0.00    +0.000 A 
ATOM     16  C   UNL     1       0.215   7.858  21.740  0.00  0.00    +0.000 A 
ATOM     17  C   UNL     1       1.282   7.467  20.933  0.00  0.00    +0.000 A 
ATOM     18  C   UNL     1       1.725   8.250  19.842  0.00  0.00    +0.000 A 
BRANCH  13  19
ATOM     19  C   UNL     1       1.336  10.425  18.469  0.00  0.00    +0.000 C 
ATOM     20  O   UNL     1       1.957  10.088  17.469  0.00  0.00    +0.000 OA
BRANCH  19  22
ATOM     21  C   UNL     1       1.875  12.665  18.727  0.00  0.00    +0.000 C 
ATOM     22  O   UNL     1       0.837  11.673  18.671  0.00  0.00    +0.000 OA
ENDBRANCH  19  22
ENDBRANCH  13  19
ENDBRANCH   9  18
ENDBRANCH   1  10
BRANCH   8  23
ATOM     23  C   UNL     1       2.868   3.770  17.461  0.00  0.00    +0.000 C 
BRANCH  23  24
ATOM     24  C   UNL     1       2.467   3.319  18.848  0.00  0.00    +0.000 A 
ATOM     25  C   UNL     1       3.434   2.767  19.705  0.00  0.00    +0.000 A 
ATOM     26  C   UNL     1       3.180   2.606  21.070  0.00  0.00    +0.000 A 
ATOM     27  C   UNL     1       1.947   2.982  21.597  0.00  0.00    +0.000 A 
ATOM     28  C   UNL     1       0.947   3.464  20.748  0.00  0.00    +0.000 A 
ATOM     29  C   UNL     1       1.206   3.623  19.379  0.00  0.00    +0.000 A 
ENDBRANCH  23  24
ENDBRANCH   8  23
TORSDOF 6
ENDMDL
MODEL 3
REMARK VINA RESULT:      -7.5      2.050      6.099
REMARK  Name = 
REMARK  7 active torsions:
REMARK  status: ('A' for Active; 'I' for Inactive)
REMARK    1  A    between atoms: C_1  and  O_2
REMARK    2  A    between atoms: O_2  and  C_3
REMARK    3  A    between atoms: C_3  and  C_5
REMARK    4  A    between atoms: C_10  and  N_11
REMARK    5  A    between atoms: C_12  and  C_14
REMARK    6  A    between atoms: N_21  and  C_22
REMARK    7  A    between atoms: C_22  and  C_23
REMARK                            x       y       z     vdW  Elec       q    Type
REMARK                         _______ _______ _______ _____ _____    ______ ____
ROOT
ATOM      1  C   UNL     1       2.442   6.866  19.269  0.00  0.00    +0.000 A 
ATOM      2  C   UNL     1       1.987   8.170  19.218  0.00  0.00    +0.000 A 
ATOM      3  C   UNL     1       1.266   8.370  20.417  0.00  0.00    +0.000 A 
ATOM      4  N   UNL     1       0.523   9.542  20.851  0.00  0.00    +0.000 N 
ATOM      5  O   UNL     1       0.496  10.505  20.058  0.00  0.00    +0.000 OA
ATOM      6  O   UNL     1      -0.034   9.522  21.964  0.00  0.00    +0.000 OA
ATOM      7  N   UNL     1       1.289   7.295  21.205  0.00  0.00    +0.000 NA
ATOM      8  N   UNL     1       1.983   6.373  20.491  0.00  0.00    +0.000 N 
ENDROOT
BRANCH   1  10
ATOM      9  N   UNL     1       4.560   6.013  18.423  0.00  0.00    +0.000 N 
ATOM     10  C   UNL     1       3.163   6.059  18.312  0.00  0.00    +0.000 C 
ATOM     11  O   UNL     1       2.580   5.426  17.442  0.00  0.00    +0.000 OA
ATOM     12  H   UNL     1       4.980   6.117  19.339  0.00  0.00    +0.000 HD
BRANCH   9  18
ATOM     13  C   UNL     1       6.661   5.886  17.060  0.00  0.00    +0.000 A 
ATOM     14  C   UNL     1       7.343   5.237  16.004  0.00  0.00    +0.000 A 
ATOM     15  C   UNL     1       6.758   4.213  15.263  0.00  0.00    +0.000 A 
ATOM     16  C   UNL     1       5.471   3.806  15.565  0.00  0.00    +0.000 A 
ATOM     17  C   UNL     1       4.783   4.420  16.612  0.00  0.00    +0.000 A 
ATOM     18  C   UNL     1       5.360   5.454  17.384  0.00  0.00    +0.000 A 
BRANCH  13  19
ATOM     19  C   UNL     1       7.477   6.915  17.767  0.00  0.00    +0.000 C 
ATOM     20  O   UNL     1       8.101   6.654  18.788  0.00  0.00    +0.000 OA
BRANCH  19  22
ATOM     21  C   UNL     1       8.191   9.114  17.943  0.00  0.00    +0.000 C 
ATOM     22  O   UNL     1       7.453   8.142  17.184  0.00  0.00    +0.000 OA
ENDBRANCH  19  22
ENDBRANCH  13  19
ENDBRANCH   9  18
ENDBRANCH   1  10
BRANCH   8  23
ATOM     23  C   UNL     1       2.326   5.112  21.159  0.00  0.00    +0.000 C 
BRANCH  23  24
ATOM     24  C   UNL     1       2.126   3.844  20.358  0.00  0.00    +0.000 A 
ATOM     25  C   UNL     1       0.864   3.562  19.809  0.00  0.00    +0.000 A 
ATOM     26  C   UNL     1       0.705   2.570  18.838  0.00  0.00    +0.000 A 
ATOM     27  C   UNL     1       1.806   1.832  18.411  0.00  0.00    +0.000 A 
ATOM     28  C   UNL     1       3.056   2.049  18.998  0.00  0.00    +0.000 A 
ATOM     29  C   UNL     1       3.210   3.045  19.973  0.00  0.00    +0.000 A 
ENDBRANCH  23  24
ENDBRANCH   8  23
TORSDOF 6
ENDMDL
MODEL 4
REMARK VINA RESULT:      -7.5      2.747      5.541
REMARK  Name = 
REMARK  7 active torsions:
REMARK  status: ('A' for Active; 'I' for Inactive)
REMARK    1  A    between atoms: C_1  and  O_2
REMARK    2  A    between atoms: O_2  and  C_3
REMARK    3  A    between atoms: C_3  and  C_5
REMARK    4  A    between atoms: C_10  and  N_11
REMARK    5  A    between atoms: C_12  and  C_14
REMARK    6  A    between atoms: N_21  and  C_22
REMARK    7  A    between atoms: C_22  and  C_23
REMARK                            x       y       z     vdW  Elec       q    Type
REMARK                         _______ _______ _______ _____ _____    ______ ____
ROOT
ATOM      1  C   UNL     1       5.903   4.327  16.820  0.00  0.00    +0.000 A 
ATOM      2  C   UNL     1       5.792   3.999  15.482  0.00  0.00    +0.000 A 
ATOM      3  C   UNL     1       6.827   4.707  14.829  0.00  0.00    +0.000 A 
ATOM      4  N   UNL     1       7.131   4.775  13.408  0.00  0.00    +0.000 N 
ATOM      5  O   UNL     1       6.373   4.139  12.649  0.00  0.00    +0.000 OA
ATOM      6  O   UNL     1       8.108   5.450  13.036  0.00  0.00    +0.000 OA
ATOM      7  N   UNL     1       7.577   5.406  15.681  0.00  0.00    +0.000 NA
ATOM      8  N   UNL     1       6.994   5.193  16.888  0.00  0.00    +0.000 N 
ENDROOT
BRANCH   1  10
ATOM      9  N   UNL     1       3.717   3.793  17.753  0.00  0.00    +0.000 N 
ATOM     10  C   UNL     1       5.090   3.986  17.965  0.00  0.00    +0.000 C 
ATOM     11  O   UNL     1       5.579   3.856  19.079  0.00  0.00    +0.000 OA
ATOM     12  H   UNL     1       3.408   3.443  16.854  0.00  0.00    +0.000 HD
BRANCH   9  18
ATOM     13  C   UNL     1       2.253   4.813  19.514  0.00  0.00    +0.000 A 
ATOM     14  C   UNL     1       1.362   4.578  20.588  0.00  0.00    +0.000 A 
ATOM     15  C   UNL     1       1.050   3.292  21.021  0.00  0.00    +0.000 A 
ATOM     16  C   UNL     1       1.618   2.203  20.386  0.00  0.00    +0.000 A 
ATOM     17  C   UNL     1       2.487   2.409  19.314  0.00  0.00    +0.000 A 
ATOM     18  C   UNL     1       2.812   3.704  18.850  0.00  0.00    +0.000 A 
BRANCH  13  19
ATOM     19  C   UNL     1       2.413   6.255  19.164  0.00  0.00    +0.000 C 
ATOM     20  O   UNL     1       2.366   7.134  20.015  0.00  0.00    +0.000 OA
BRANCH  19  22
ATOM     21  C   UNL     1       3.623   7.474  17.606  0.00  0.00    +0.000 C 
ATOM     22  O   UNL     1       2.603   6.489  17.838  0.00  0.00    +0.000 OA
ENDBRANCH  19  22
ENDBRANCH  13  19
ENDBRANCH   9  18
ENDBRANCH   1  10
BRANCH   8  23
ATOM     23  C   UNL     1       7.686   5.704  18.077  0.00  0.00    +0.000 C 
BRANCH  23  24
ATOM     24  C   UNL     1       7.770   7.208  18.219  0.00  0.00    +0.000 A 
ATOM     25  C   UNL     1       8.665   7.768  19.145  0.00  0.00    +0.000 A 
ATOM     26  C   UNL     1       8.983   9.129  19.109  0.00  0.00    +0.000 A 
ATOM     27  C   UNL     1       8.397   9.955  18.154  0.00  0.00    +0.000 A 
ATOM     28  C   UNL     1       7.448   9.430  17.271  0.00  0.00    +0.000 A 
ATOM     29  C   UNL     1       7.132   8.065  17.312  0.00  0.00    +0.000 A 
ENDBRANCH  23  24
ENDBRANCH   8  23
TORSDOF 6
ENDMDL
MODEL 5
REMARK VINA RESULT:      -7.5      3.156      7.925
REMARK  Name = 
REMARK  7 active torsions:
REMARK  status: ('A' for Active; 'I' for Inactive)
REMARK    1  A    between atoms: C_1  and  O_2
REMARK    2  A    between atoms: O_2  and  C_3
REMARK    3  A    between atoms: C_3  and  C_5
REMARK    4  A    between atoms: C_10  and  N_11
REMARK    5  A    between atoms: C_12  and  C_14
REMARK    6  A    between atoms: N_21  and  C_22
REMARK    7  A    between atoms: C_22  and  C_23
REMARK                            x       y       z     vdW  Elec       q    Type
REMARK                         _______ _______ _______ _____ _____    ______ ____
ROOT
ATOM      1  C   UNL     1       1.134   9.094  19.818  0.00  0.00    +0.000 A 
ATOM      2  C   UNL     1       1.058   8.881  21.182  0.00  0.00    +0.000 A 
ATOM      3  C   UNL     1       0.257   9.932  21.687  0.00  0.00    +0.000 A 
ATOM      4  N   UNL     1      -0.094  10.229  23.066  0.00  0.00    +0.000 N 
ATOM      5  O   UNL     1       0.383   9.472  23.935  0.00  0.00    +0.000 OA
ATOM      6  O   UNL     1      -0.833  11.203  23.300  0.00  0.00    +0.000 OA
ATOM      7  N   UNL     1      -0.186  10.737  20.722  0.00  0.00    +0.000 NA
ATOM      8  N   UNL     1       0.372  10.239  19.590  0.00  0.00    +0.000 N 
ENDROOT
BRANCH   1  10
ATOM      9  N   UNL     1       2.216   7.071  19.001  0.00  0.00    +0.000 N 
ATOM     10  C   UNL     1       1.867   8.410  18.777  0.00  0.00    +0.000 C 
ATOM     11  O   UNL     1       2.162   8.971  17.730  0.00  0.00    +0.000 OA
ATOM     12  H   UNL     1       1.615   6.502  19.584  0.00  0.00    +0.000 HD
BRANCH   9  18
ATOM     13  C   UNL     1       3.071   5.040  17.805  0.00  0.00    +0.000 A 
ATOM     14  C   UNL     1       4.061   4.508  16.944  0.00  0.00    +0.000 A 
ATOM     15  C   UNL     1       5.112   5.281  16.458  0.00  0.00    +0.000 A 
ATOM     16  C   UNL     1       5.198   6.614  16.817  0.00  0.00    +0.000 A 
ATOM     17  C   UNL     1       4.227   7.165  17.652  0.00  0.00    +0.000 A 
ATOM     18  C   UNL     1       3.145   6.403  18.150  0.00  0.00    +0.000 A 
BRANCH  13  19
ATOM     19  C   UNL     1       1.998   4.069  18.169  0.00  0.00    +0.000 C 
ATOM     20  O   UNL     1       1.740   3.101  17.465  0.00  0.00    +0.000 OA
BRANCH  19  22
ATOM     21  C   UNL     1       1.288   3.236  20.213  0.00  0.00    +0.000 C 
ATOM     22  O   UNL     1       1.349   4.365  19.325  0.00  0.00    +0.000 OA
ENDBRANCH  19  22
ENDBRANCH  13  19
ENDBRANCH   9  18
ENDBRANCH   1  10
BRANCH   8  23
ATOM     23  C   UNL     1      -0.055  10.816  18.310  0.00  0.00    +0.000 C 
BRANCH  23  24
ATOM     24  C   UNL     1      -1.518  10.665  17.952  0.00  0.00    +0.000 A 
ATOM     25  C   UNL     1      -2.466  11.519  18.538  0.00  0.00    +0.000 A 
ATOM     26  C   UNL     1      -3.766  11.610  18.032  0.00  0.00    +0.000 A 
ATOM     27  C   UNL     1      -4.142  10.833  16.939  0.00  0.00    +0.000 A 
ATOM     28  C   UNL     1      -3.234   9.924  16.388  0.00  0.00    +0.000 A 
ATOM     29  C   UNL     1      -1.931   9.836  16.901  0.00  0.00    +0.000 A 
ENDBRANCH  23  24
ENDBRANCH   8  23
TORSDOF 6
ENDMDL
MODEL 6
REMARK VINA RESULT:      -7.3      1.883      6.427
REMARK  Name = 
REMARK  7 active torsions:
REMARK  status: ('A' for Active; 'I' for Inactive)
REMARK    1  A    between atoms: C_1  and  O_2
REMARK    2  A    between atoms: O_2  and  C_3
REMARK    3  A    between atoms: C_3  and  C_5
REMARK    4  A    between atoms: C_10  and  N_11
REMARK    5  A    between atoms: C_12  and  C_14
REMARK    6  A    between atoms: N_21  and  C_22
REMARK    7  A    between atoms: C_22  and  C_23
REMARK                            x       y       z     vdW  Elec       q    Type
REMARK                         _______ _______ _______ _____ _____    ______ ____
ROOT
ATOM      1  C   UNL     1       2.518   7.267  18.659  0.00  0.00    +0.000 A 
ATOM      2  C   UNL     1       1.983   8.489  18.294  0.00  0.00    +0.000 A 
ATOM      3  C   UNL     1       1.246   8.932  19.417  0.00  0.00    +0.000 A 
ATOM      4  N   UNL     1       0.430  10.127  19.558  0.00  0.00    +0.000 N 
ATOM      5  O   UNL     1       0.346  10.863  18.555  0.00  0.00    +0.000 OA
ATOM      6  O   UNL     1      -0.130  10.345  20.649  0.00  0.00    +0.000 OA
ATOM      7  N   UNL     1       1.331   8.086  20.443  0.00  0.00    +0.000 NA
ATOM      8  N   UNL     1       2.084   7.061  19.968  0.00  0.00    +0.000 N 
ENDROOT
BRANCH   1  10
ATOM      9  N   UNL     1       4.616   6.629  17.600  0.00  0.00    +0.000 N 
ATOM     10  C   UNL     1       3.291   6.296  17.919  0.00  0.00    +0.000 C 
ATOM     11  O   UNL     1       2.818   5.216  17.594  0.00  0.00    +0.000 OA
ATOM     12  H   UNL     1       5.128   7.242  18.223  0.00  0.00    +0.000 HD
BRANCH   9  18
ATOM     13  C   UNL     1       6.346   4.908  17.026  0.00  0.00    +0.000 A 
ATOM     14  C   UNL     1       7.009   4.201  15.995  0.00  0.00    +0.000 A 
ATOM     15  C   UNL     1       6.738   4.430  14.648  0.00  0.00    +0.000 A 
ATOM     16  C   UNL     1       5.790   5.373  14.296  0.00  0.00    +0.000 A 
ATOM     17  C   UNL     1       5.112   6.072  15.295  0.00  0.00    +0.000 A 
ATOM     18  C   UNL     1       5.362   5.850  16.668  0.00  0.00    +0.000 A 
BRANCH  13  19
ATOM     19  C   UNL     1       6.733   4.479  18.402  0.00  0.00    +0.000 C 
ATOM     20  O   UNL     1       5.928   3.963  19.166  0.00  0.00    +0.000 OA
BRANCH  19  22
ATOM     21  C   UNL     1       8.179   5.875  19.558  0.00  0.00    +0.000 C 
ATOM     22  O   UNL     1       8.033   4.720  18.715  0.00  0.00    +0.000 OA
ENDBRANCH  19  22
ENDBRANCH  13  19
ENDBRANCH   9  18
ENDBRANCH   1  10
BRANCH   8  23
ATOM     23  C   UNL     1       2.501   6.025  20.920  0.00  0.00    +0.000 C 
BRANCH  23  24
ATOM     24  C   UNL     1       2.103   4.603  20.592  0.00  0.00    +0.000 A 
ATOM     25  C   UNL     1       0.802   4.335  20.135  0.00  0.00    +0.000 A 
ATOM     26  C   UNL     1       0.481   3.105  19.555  0.00  0.00    +0.000 A 
ATOM     27  C   UNL     1       1.454   2.116  19.437  0.00  0.00    +0.000 A 
ATOM     28  C   UNL     1       2.735   2.338  19.952  0.00  0.00    +0.000 A 
ATOM     29  C   UNL     1       3.052   3.573  20.535  0.00  0.00    +0.000 A 
ENDBRANCH  23  24
ENDBRANCH   8  23
TORSDOF 6
ENDMDL
MODEL 7
REMARK VINA RESULT:      -7.3      2.488      5.399
REMARK  Name = 
REMARK  7 active torsions:
REMARK  status: ('A' for Active; 'I' for Inactive)
REMARK    1  A    between atoms: C_1  and  O_2
REMARK    2  A    between atoms: O_2  and  C_3
REMARK    3  A    between atoms: C_3  and  C_5
REMARK    4  A    between atoms: C_10  and  N_11
REMARK    5  A    between atoms: C_12  and  C_14
REMARK    6  A    between atoms: N_21  and  C_22
REMARK    7  A    between atoms: C_22  and  C_23
REMARK                            x       y       z     vdW  Elec       q    Type
REMARK                         _______ _______ _______ _____ _____    ______ ____
ROOT
ATOM      1  C   UNL     1       5.289   4.147  15.889  0.00  0.00    +0.000 A 
ATOM      2  C   UNL     1       5.757   3.410  14.817  0.00  0.00    +0.000 A 
ATOM      3  C   UNL     1       6.323   4.351  13.926  0.00  0.00    +0.000 A 
ATOM      4  N   UNL     1       6.903   4.128  12.611  0.00  0.00    +0.000 N 
ATOM      5  O   UNL     1       6.891   2.953  12.192  0.00  0.00    +0.000 OA
ATOM      6  O   UNL     1       7.368   5.100  11.988  0.00  0.00    +0.000 OA
ATOM      7  N   UNL     1       6.266   5.594  14.402  0.00  0.00    +0.000 NA
ATOM      8  N   UNL     1       5.612   5.469  15.584  0.00  0.00    +0.000 N 
ENDROOT
BRANCH   1  10
ATOM      9  N   UNL     1       3.149   3.753  16.982  0.00  0.00    +0.000 N 
ATOM     10  C   UNL     1       4.549   3.766  17.070  0.00  0.00    +0.000 C 
ATOM     11  O   UNL     1       5.118   3.452  18.106  0.00  0.00    +0.000 OA
ATOM     12  H   UNL     1       2.719   3.548  16.088  0.00  0.00    +0.000 HD
BRANCH   9  18
ATOM     13  C   UNL     1       2.025   4.706  19.011  0.00  0.00    +0.000 A 
ATOM     14  C   UNL     1       1.209   4.447  20.137  0.00  0.00    +0.000 A 
ATOM     15  C   UNL     1       0.741   3.169  20.434  0.00  0.00    +0.000 A 
ATOM     16  C   UNL     1       1.074   2.114  19.604  0.00  0.00    +0.000 A 
ATOM     17  C   UNL     1       1.864   2.346  18.479  0.00  0.00    +0.000 A 
ATOM     18  C   UNL     1       2.343   3.636  18.152  0.00  0.00    +0.000 A 
BRANCH  13  19
ATOM     19  C   UNL     1       2.375   6.146  18.834  0.00  0.00    +0.000 C 
ATOM     20  O   UNL     1       2.492   6.649  17.723  0.00  0.00    +0.000 OA
BRANCH  19  22
ATOM     21  C   UNL     1       1.809   8.049  20.030  0.00  0.00    +0.000 C 
ATOM     22  O   UNL     1       2.556   6.822  19.999  0.00  0.00    +0.000 OA
ENDBRANCH  19  22
ENDBRANCH  13  19
ENDBRANCH   9  18
ENDBRANCH   1  10
BRANCH   8  23
ATOM     23  C   UNL     1       5.529   6.655  16.444  0.00  0.00    +0.000 C 
BRANCH  23  24
ATOM     24  C   UNL     1       6.768   7.007  17.237  0.00  0.00    +0.000 A 
ATOM     25  C   UNL     1       7.282   8.313  17.178  0.00  0.00    +0.000 A 
ATOM     26  C   UNL     1       8.235   8.755  18.099  0.00  0.00    +0.000 A 
ATOM     27  C   UNL     1       8.701   7.892  19.087  0.00  0.00    +0.000 A 
ATOM     28  C   UNL     1       8.255   6.567  19.117  0.00  0.00    +0.000 A 
ATOM     29  C   UNL     1       7.300   6.127  18.190  0.00  0.00    +0.000 A 
ENDBRANCH  23  24
ENDBRANCH   8  23
TORSDOF 6
ENDMDL
MODEL 8
REMARK VINA RESULT:      -7.3      3.074      7.918
REMARK  Name = 
REMARK  7 active torsions:
REMARK  status: ('A' for Active; 'I' for Inactive)
REMARK    1  A    between atoms: C_1  and  O_2
REMARK    2  A    between atoms: O_2  and  C_3
REMARK    3  A    between atoms: C_3  and  C_5
REMARK    4  A    between atoms: C_10  and  N_11
REMARK    5  A    between atoms: C_12  and  C_14
REMARK    6  A    between atoms: N_21  and  C_22
REMARK    7  A    between atoms: C_22  and  C_23
REMARK                            x       y       z     vdW  Elec       q    Type
REMARK                         _______ _______ _______ _____ _____    ______ ____
ROOT
ATOM      1  C   UNL     1       1.132   8.913  19.890  0.00  0.00    +0.000 A 
ATOM      2  C   UNL     1       0.980   8.696  21.247  0.00  0.00    +0.000 A 
ATOM      3  C   UNL     1       0.324   9.845  21.745  0.00  0.00    +0.000 A 
ATOM      4  N   UNL     1      -0.027  10.172  23.118  0.00  0.00    +0.000 N 
ATOM      5  O   UNL     1       0.306   9.342  23.988  0.00  0.00    +0.000 OA
ATOM      6  O   UNL     1      -0.625  11.239  23.346  0.00  0.00    +0.000 OA
ATOM      7  N   UNL     1       0.034  10.718  20.781  0.00  0.00    +0.000 NA
ATOM      8  N   UNL     1       0.552  10.160  19.659  0.00  0.00    +0.000 N 
ENDROOT
BRANCH   1  10
ATOM      9  N   UNL     1       2.134   6.817  19.159  0.00  0.00    +0.000 N 
ATOM     10  C   UNL     1       1.793   8.144  18.860  0.00  0.00    +0.000 C 
ATOM     11  O   UNL     1       2.036   8.625  17.762  0.00  0.00    +0.000 OA
ATOM     12  H   UNL     1       1.558   6.302  19.814  0.00  0.00    +0.000 HD
BRANCH   9  18
ATOM     13  C   UNL     1       2.858   4.702  18.025  0.00  0.00    +0.000 A 
ATOM     14  C   UNL     1       3.792   4.090  17.155  0.00  0.00    +0.000 A 
ATOM     15  C   UNL     1       4.855   4.796  16.597  0.00  0.00    +0.000 A 
ATOM     16  C   UNL     1       5.010   6.138  16.893  0.00  0.00    +0.000 A 
ATOM     17  C   UNL     1       4.094   6.766  17.736  0.00  0.00    +0.000 A 
ATOM     18  C   UNL     1       3.001   6.074  18.306  0.00  0.00    +0.000 A 
BRANCH  13  19
ATOM     19  C   UNL     1       1.760   3.794  18.471  0.00  0.00    +0.000 C 
ATOM     20  O   UNL     1       1.504   2.753  17.879  0.00  0.00    +0.000 OA
BRANCH  19  22
ATOM     21  C   UNL     1       1.620   3.684  20.783  0.00  0.00    +0.000 C 
ATOM     22  O   UNL     1       1.086   4.233  19.566  0.00  0.00    +0.000 OA
ENDBRANCH  19  22
ENDBRANCH  13  19
ENDBRANCH   9  18
ENDBRANCH   1  10
BRANCH   8  23
ATOM     23  C   UNL     1       0.255  10.809  18.377  0.00  0.00    +0.000 C 
BRANCH  23  24
ATOM     24  C   UNL     1      -1.202  10.890  17.978  0.00  0.00    +0.000 A 
ATOM     25  C   UNL     1      -1.745   9.906  17.134  0.00  0.00    +0.000 A 
ATOM     26  C   UNL     1      -3.127   9.777  16.974  0.00  0.00    +0.000 A 
ATOM     27  C   UNL     1      -3.989  10.640  17.645  0.00  0.00    +0.000 A 
ATOM     28  C   UNL     1      -3.466  11.671  18.432  0.00  0.00    +0.000 A 
ATOM     29  C   UNL     1      -2.078  11.797  18.588  0.00  0.00    +0.000 A 
ENDBRANCH  23  24
ENDBRANCH   8  23
TORSDOF 6
ENDMDL
MODEL 9
REMARK VINA RESULT:      -7.2      2.697      5.514
REMARK  Name = 
REMARK  7 active torsions:
REMARK  status: ('A' for Active; 'I' for Inactive)
REMARK    1  A    between atoms: C_1  and  O_2
REMARK    2  A    between atoms: O_2  and  C_3
REMARK    3  A    between atoms: C_3  and  C_5
REMARK    4  A    between atoms: C_10  and  N_11
REMARK    5  A    between atoms: C_12  and  C_14
REMARK    6  A    between atoms: N_21  and  C_22
REMARK    7  A    between atoms: C_22  and  C_23
REMARK                            x       y       z     vdW  Elec       q    Type
REMARK                         _______ _______ _______ _____ _____    ______ ____
ROOT
ATOM      1  C   UNL     1       5.673   4.223  16.259  0.00  0.00    +0.000 A 
ATOM      2  C   UNL     1       5.923   3.953  14.926  0.00  0.00    +0.000 A 
ATOM      3  C   UNL     1       6.963   4.832  14.547  0.00  0.00    +0.000 A 
ATOM      4  N   UNL     1       7.570   5.017  13.239  0.00  0.00    +0.000 N 
ATOM      5  O   UNL     1       7.109   4.322  12.311  0.00  0.00    +0.000 OA
ATOM      6  O   UNL     1       8.496   5.840  13.118  0.00  0.00    +0.000 OA
ATOM      7  N   UNL     1       7.385   5.583  15.564  0.00  0.00    +0.000 NA
ATOM      8  N   UNL     1       6.579   5.228  16.597  0.00  0.00    +0.000 N 
ENDROOT
BRANCH   1  10
ATOM      9  N   UNL     1       3.398   4.277  17.123  0.00  0.00    +0.000 N 
ATOM     10  C   UNL     1       4.680   3.712  17.175  0.00  0.00    +0.000 C 
ATOM     11  O   UNL     1       4.939   2.810  17.960  0.00  0.00    +0.000 OA
ATOM     12  H   UNL     1       3.060   4.638  16.239  0.00  0.00    +0.000 HD
BRANCH   9  18
ATOM     13  C   UNL     1       2.092   4.924  19.164  0.00  0.00    +0.000 A 
ATOM     14  C   UNL     1       1.120   4.532  20.115  0.00  0.00    +0.000 A 
ATOM     15  C   UNL     1       0.524   3.273  20.088  0.00  0.00    +0.000 A 
ATOM     16  C   UNL     1       0.884   2.372  19.103  0.00  0.00    +0.000 A 
ATOM     17  C   UNL     1       1.829   2.740  18.146  0.00  0.00    +0.000 A 
ATOM     18  C   UNL     1       2.440   4.015  18.146  0.00  0.00    +0.000 A 
BRANCH  13  19
ATOM     19  C   UNL     1       2.568   6.329  19.327  0.00  0.00    +0.000 C 
ATOM     20  O   UNL     1       2.235   7.015  20.285  0.00  0.00    +0.000 OA
BRANCH  19  22
ATOM     21  C   UNL     1       2.955   8.033  17.803  0.00  0.00    +0.000 C 
ATOM     22  O   UNL     1       3.377   6.762  18.325  0.00  0.00    +0.000 OA
ENDBRANCH  19  22
ENDBRANCH  13  19
ENDBRANCH   9  18
ENDBRANCH   1  10
BRANCH   8  23
ATOM     23  C   UNL     1       6.896   5.768  17.924  0.00  0.00    +0.000 C 
BRANCH  23  24
ATOM     24  C   UNL     1       7.585   7.115  17.961  0.00  0.00    +0.000 A 
ATOM     25  C   UNL     1       7.116   8.156  17.144  0.00  0.00    +0.000 A 
ATOM     26  C   UNL     1       7.527   9.476  17.351  0.00  0.00    +0.000 A 
ATOM     27  C   UNL     1       8.427   9.772  18.371  0.00  0.00    +0.000 A 
ATOM     28  C   UNL     1       8.961   8.739  19.147  0.00  0.00    +0.000 A 
ATOM     29  C   UNL     1       8.546   7.417  18.935  0.00  0.00    +0.000 A 
ENDBRANCH  23  24
ENDBRANCH   8  23
TORSDOF 6
ENDMDL
