MODEL 1
REMARK VINA RESULT:      -8.4      0.000      0.000
REMARK  Name = 
REMARK  7 active torsions:
REMARK  status: ('A' for Active; 'I' for Inactive)
REMARK    1  A    between atoms: N_1  and  C_2
REMARK    2  A    between atoms: C_2  and  C_3
REMARK    3  A    between atoms: C_2  and  C_20
REMARK    4  A    between atoms: C_3  and  C_4
REMARK    5  A    between atoms: N_10  and  C_11
REMARK    6  A    between atoms: C_11  and  C_12
REMARK    7  A    between atoms: C_20  and  C_21
REMARK                            x       y       z     vdW  Elec       q    Type
REMARK                         _______ _______ _______ _____ _____    ______ ____
ROOT
ATOM      1  C   UNL     1       7.512   7.077  18.022  0.00  0.00    +0.000 C 
ATOM      2  O   UNL     1       8.192   6.616  18.946  0.00  0.00    +0.000 OA
ATOM      3  N   UNL     1       6.291   6.517  17.675  0.00  0.00    +0.000 N 
ATOM      4  C   UNL     1       5.543   6.796  16.451  0.00  0.00    +0.000 C 
ATOM      5  C   UNL     1       5.452   5.646  15.446  0.00  0.00    +0.000 C 
ATOM      6  C   UNL     1       5.200   4.213  15.928  0.00  0.00    +0.000 C 
ATOM      7  N   UNL     1       4.535   3.962  17.202  0.00  0.00    +0.000 NA
ATOM      8  C   UNL     1       5.432   4.234  18.333  0.00  0.00    +0.000 C 
ATOM      9  C   UNL     1       5.626   5.705  18.701  0.00  0.00    +0.000 C 
ENDROOT
BRANCH   1  10
ATOM     10  C   UNL     1       7.952   8.338  17.294  0.00  0.00    +0.000 C 
BRANCH  10  11
ATOM     11  C   UNL     1       8.047   9.551  18.250  0.00  0.00    +0.000 C 
BRANCH  11  12
ATOM     12  N   UNL     1       7.924  10.820  17.503  0.00  0.00    +0.000 NA
ATOM     13  H   UNL     1       6.947  10.900  17.197  0.00  0.00    +0.000 HD
ATOM     14  H   UNL     1       8.477  10.789  16.650  0.00  0.00    +0.000 HD
ENDBRANCH  11  12
BRANCH  11  15
ATOM     15  C   UNL     1       9.384   9.516  19.017  0.00  0.00    +0.000 C 
BRANCH  15  16
ATOM     16  C   UNL     1       9.810  10.834  19.626  0.00  0.00    +0.000 A 
ATOM     17  C   UNL     1       9.343  11.219  20.893  0.00  0.00    +0.000 A 
ATOM     18  C   UNL     1       9.679  12.467  21.411  0.00  0.00    +0.000 A 
ATOM     19  F   UNL     1       9.202  12.831  22.610  0.00  0.00    +0.000 F 
ATOM     20  C   UNL     1      10.486  13.335  20.686  0.00  0.00    +0.000 A 
ATOM     21  F   UNL     1      10.771  14.552  21.170  0.00  0.00    +0.000 F 
ATOM     22  C   UNL     1      10.992  12.958  19.448  0.00  0.00    +0.000 A 
ATOM     23  C   UNL     1      10.659  11.709  18.934  0.00  0.00    +0.000 A 
ATOM     24  F   UNL     1      11.147  11.353  17.737  0.00  0.00    +0.000 F 
ENDBRANCH  15  16
ENDBRANCH  11  15
ENDBRANCH  10  11
ENDBRANCH   1  10
BRANCH   7  25
ATOM     25  C   UNL     1       3.201   4.545  17.369  0.00  0.00    +0.000 C 
BRANCH  25  26
ATOM     26  C   UNL     1       2.437   4.005  18.553  0.00  0.00    +0.000 A 
ATOM     27  C   UNL     1       2.050   2.659  18.589  0.00  0.00    +0.000 A 
ATOM     28  C   UNL     1       1.345   2.158  19.683  0.00  0.00    +0.000 A 
ATOM     29  C   UNL     1       1.021   2.997  20.747  0.00  0.00    +0.000 A 
ATOM     30  C   UNL     1       1.407   4.337  20.725  0.00  0.00    +0.000 A 
ATOM     31  C   UNL     1       2.113   4.840  19.634  0.00  0.00    +0.000 A 
ENDBRANCH  25  26
ENDBRANCH   7  25
TORSDOF 7
ENDMDL
MODEL 2
REMARK VINA RESULT:      -8.3      0.928      2.081
REMARK  Name = 
REMARK  7 active torsions:
REMARK  status: ('A' for Active; 'I' for Inactive)
REMARK    1  A    between atoms: N_1  and  C_2
REMARK    2  A    between atoms: C_2  and  C_3
REMARK    3  A    between atoms: C_2  and  C_20
REMARK    4  A    between atoms: C_3  and  C_4
REMARK    5  A    between atoms: N_10  and  C_11
REMARK    6  A    between atoms: C_11  and  C_12
REMARK    7  A    between atoms: C_20  and  C_21
REMARK                            x       y       z     vdW  Elec       q    Type
REMARK                         _______ _______ _______ _____ _____    ______ ____
ROOT
ATOM      1  C   UNL     1       7.639   6.964  18.117  0.00  0.00    +0.000 C 
ATOM      2  O   UNL     1       8.269   6.484  19.066  0.00  0.00    +0.000 OA
ATOM      3  N   UNL     1       6.406   6.453  17.736  0.00  0.00    +0.000 N 
ATOM      4  C   UNL     1       5.710   6.751  16.486  0.00  0.00    +0.000 C 
ATOM      5  C   UNL     1       5.602   5.596  15.488  0.00  0.00    +0.000 C 
ATOM      6  C   UNL     1       5.274   4.180  15.974  0.00  0.00    +0.000 C 
ATOM      7  N   UNL     1       4.559   3.969  17.228  0.00  0.00    +0.000 NA
ATOM      8  C   UNL     1       5.431   4.214  18.385  0.00  0.00    +0.000 C 
ATOM      9  C   UNL     1       5.676   5.680  18.746  0.00  0.00    +0.000 C 
ENDROOT
BRANCH   1  10
ATOM     10  C   UNL     1       8.154   8.198  17.393  0.00  0.00    +0.000 C 
BRANCH  10  11
ATOM     11  C   UNL     1       8.021   9.472  18.261  0.00  0.00    +0.000 C 
BRANCH  11  12
ATOM     12  N   UNL     1       7.688  10.646  17.427  0.00  0.00    +0.000 NA
ATOM     13  H   UNL     1       7.032  10.328  16.704  0.00  0.00    +0.000 HD
ATOM     14  H   UNL     1       8.511  10.974  16.926  0.00  0.00    +0.000 HD
ENDBRANCH  11  12
BRANCH  11  15
ATOM     15  C   UNL     1       9.333   9.726  19.031  0.00  0.00    +0.000 C 
BRANCH  15  16
ATOM     16  C   UNL     1       9.897  11.124  18.898  0.00  0.00    +0.000 A 
ATOM     17  C   UNL     1      10.697  11.469  17.796  0.00  0.00    +0.000 A 
ATOM     18  C   UNL     1      11.273  12.734  17.721  0.00  0.00    +0.000 A 
ATOM     19  F   UNL     1      12.058  13.037  16.677  0.00  0.00    +0.000 F 
ATOM     20  C   UNL     1      11.056  13.666  18.728  0.00  0.00    +0.000 A 
ATOM     21  F   UNL     1      11.648  14.867  18.673  0.00  0.00    +0.000 F 
ATOM     22  C   UNL     1      10.235  13.361  19.806  0.00  0.00    +0.000 A 
ATOM     23  C   UNL     1       9.655  12.097  19.877  0.00  0.00    +0.000 A 
ATOM     24  F   UNL     1       8.868  11.807  20.922  0.00  0.00    +0.000 F 
ENDBRANCH  15  16
ENDBRANCH  11  15
ENDBRANCH  10  11
ENDBRANCH   1  10
BRANCH   7  25
ATOM     25  C   UNL     1       3.246   4.610  17.348  0.00  0.00    +0.000 C 
BRANCH  25  26
ATOM     26  C   UNL     1       2.404   4.079  18.482  0.00  0.00    +0.000 A 
ATOM     27  C   UNL     1       2.064   4.911  19.557  0.00  0.00    +0.000 A 
ATOM     28  C   UNL     1       1.285   4.423  20.605  0.00  0.00    +0.000 A 
ATOM     29  C   UNL     1       0.841   3.103  20.588  0.00  0.00    +0.000 A 
ATOM     30  C   UNL     1       1.167   2.268  19.520  0.00  0.00    +0.000 A 
ATOM     31  C   UNL     1       1.944   2.753  18.470  0.00  0.00    +0.000 A 
ENDBRANCH  25  26
ENDBRANCH   7  25
TORSDOF 7
ENDMDL
MODEL 3
REMARK VINA RESULT:      -8.2      1.221      1.696
REMARK  Name = 
REMARK  7 active torsions:
REMARK  status: ('A' for Active; 'I' for Inactive)
REMARK    1  A    between atoms: N_1  and  C_2
REMARK    2  A    between atoms: C_2  and  C_3
REMARK    3  A    between atoms: C_2  and  C_20
REMARK    4  A    between atoms: C_3  and  C_4
REMARK    5  A    between atoms: N_10  and  C_11
REMARK    6  A    between atoms: C_11  and  C_12
REMARK    7  A    between atoms: C_20  and  C_21
REMARK                            x       y       z     vdW  Elec       q    Type
REMARK                         _______ _______ _______ _____ _____    ______ ____
ROOT
ATOM      1  C   UNL     1       7.465   6.467  17.369  0.00  0.00    +0.000 C 
ATOM      2  O   UNL     1       7.848   6.573  16.199  0.00  0.00    +0.000 OA
ATOM      3  N   UNL     1       6.479   5.559  17.728  0.00  0.00    +0.000 N 
ATOM      4  C   UNL     1       5.765   5.537  19.002  0.00  0.00    +0.000 C 
ATOM      5  C   UNL     1       4.281   5.910  18.945  0.00  0.00    +0.000 C 
ATOM      6  C   UNL     1       3.394   5.387  17.810  0.00  0.00    +0.000 C 
ATOM      7  N   UNL     1       3.743   4.163  17.095  0.00  0.00    +0.000 NA
ATOM      8  C   UNL     1       4.867   4.386  16.176  0.00  0.00    +0.000 C 
ATOM      9  C   UNL     1       6.257   4.435  16.812  0.00  0.00    +0.000 C 
ENDROOT
BRANCH   1  10
ATOM     10  C   UNL     1       8.135   7.267  18.476  0.00  0.00    +0.000 C 
BRANCH  10  11
ATOM     11  C   UNL     1       7.917   8.789  18.298  0.00  0.00    +0.000 C 
BRANCH  11  12
ATOM     12  N   UNL     1       6.975   9.060  17.193  0.00  0.00    +0.000 NA
ATOM     13  H   UNL     1       6.079   9.331  17.616  0.00  0.00    +0.000 HD
ATOM     14  H   UNL     1       6.784   8.210  16.667  0.00  0.00    +0.000 HD
ENDBRANCH  11  12
BRANCH  11  15
ATOM     15  C   UNL     1       9.264   9.488  18.028  0.00  0.00    +0.000 C 
BRANCH  15  16
ATOM     16  C   UNL     1       9.620  10.596  18.995  0.00  0.00    +0.000 A 
ATOM     17  C   UNL     1       9.107  10.593  20.302  0.00  0.00    +0.000 A 
ATOM     18  C   UNL     1       9.378  11.656  21.160  0.00  0.00    +0.000 A 
ATOM     19  F   UNL     1       8.857  11.652  22.395  0.00  0.00    +0.000 F 
ATOM     20  C   UNL     1      10.162  12.721  20.734  0.00  0.00    +0.000 A 
ATOM     21  F   UNL     1      10.384  13.762  21.549  0.00  0.00    +0.000 F 
ATOM     22  C   UNL     1      10.713  12.724  19.459  0.00  0.00    +0.000 A 
ATOM     23  C   UNL     1      10.446  11.658  18.604  0.00  0.00    +0.000 A 
ATOM     24  F   UNL     1      10.976  11.670  17.373  0.00  0.00    +0.000 F 
ENDBRANCH  15  16
ENDBRANCH  11  15
ENDBRANCH  10  11
ENDBRANCH   1  10
BRANCH   7  25
ATOM     25  C   UNL     1       3.890   2.952  17.907  0.00  0.00    +0.000 C 
BRANCH  25  26
ATOM     26  C   UNL     1       2.961   2.891  19.095  0.00  0.00    +0.000 A 
ATOM     27  C   UNL     1       1.577   3.001  18.914  0.00  0.00    +0.000 A 
ATOM     28  C   UNL     1       0.717   2.944  20.010  0.00  0.00    +0.000 A 
ATOM     29  C   UNL     1       1.233   2.778  21.294  0.00  0.00    +0.000 A 
ATOM     30  C   UNL     1       2.610   2.661  21.485  0.00  0.00    +0.000 A 
ATOM     31  C   UNL     1       3.471   2.715  20.391  0.00  0.00    +0.000 A 
ENDBRANCH  25  26
ENDBRANCH   7  25
TORSDOF 7
ENDMDL
MODEL 4
REMARK VINA RESULT:      -8.1      1.607      2.342
REMARK  Name = 
REMARK  7 active torsions:
REMARK  status: ('A' for Active; 'I' for Inactive)
REMARK    1  A    between atoms: N_1  and  C_2
REMARK    2  A    between atoms: C_2  and  C_3
REMARK    3  A    between atoms: C_2  and  C_20
REMARK    4  A    between atoms: C_3  and  C_4
REMARK    5  A    between atoms: N_10  and  C_11
REMARK    6  A    between atoms: C_11  and  C_12
REMARK    7  A    between atoms: C_20  and  C_21
REMARK                            x       y       z     vdW  Elec       q    Type
REMARK                         _______ _______ _______ _____ _____    ______ ____
ROOT
ATOM      1  C   UNL     1       7.488   6.442  17.387  0.00  0.00    +0.000 C 
ATOM      2  O   UNL     1       7.877   6.542  16.219  0.00  0.00    +0.000 OA
ATOM      3  N   UNL     1       6.496   5.539  17.744  0.00  0.00    +0.000 N 
ATOM      4  C   UNL     1       5.774   5.524  19.015  0.00  0.00    +0.000 C 
ATOM      5  C   UNL     1       4.293   5.902  18.947  0.00  0.00    +0.000 C 
ATOM      6  C   UNL     1       3.410   5.378  17.809  0.00  0.00    +0.000 C 
ATOM      7  N   UNL     1       3.758   4.150  17.101  0.00  0.00    +0.000 NA
ATOM      8  C   UNL     1       4.888   4.365  16.188  0.00  0.00    +0.000 C 
ATOM      9  C   UNL     1       6.275   4.412  16.831  0.00  0.00    +0.000 C 
ENDROOT
BRANCH   1  10
ATOM     10  C   UNL     1       8.154   7.244  18.495  0.00  0.00    +0.000 C 
BRANCH  10  11
ATOM     11  C   UNL     1       7.879   8.760  18.352  0.00  0.00    +0.000 C 
BRANCH  11  12
ATOM     12  N   UNL     1       7.030   9.033  17.174  0.00  0.00    +0.000 NA
ATOM     13  H   UNL     1       7.561   9.658  16.555  0.00  0.00    +0.000 HD
ATOM     14  H   UNL     1       6.199   9.555  17.444  0.00  0.00    +0.000 HD
ENDBRANCH  11  12
BRANCH  11  15
ATOM     15  C   UNL     1       9.210   9.530  18.234  0.00  0.00    +0.000 C 
BRANCH  15  16
ATOM     16  C   UNL     1       9.186  10.944  18.770  0.00  0.00    +0.000 A 
ATOM     17  C   UNL     1       9.080  12.037  17.894  0.00  0.00    +0.000 A 
ATOM     18  C   UNL     1       9.135  13.337  18.390  0.00  0.00    +0.000 A 
ATOM     19  F   UNL     1       9.062  14.369  17.538  0.00  0.00    +0.000 F 
ATOM     20  C   UNL     1       9.286  13.563  19.752  0.00  0.00    +0.000 A 
ATOM     21  F   UNL     1       9.382  14.815  20.220  0.00  0.00    +0.000 F 
ATOM     22  C   UNL     1       9.351  12.497  20.641  0.00  0.00    +0.000 A 
ATOM     23  C   UNL     1       9.291  11.198  20.143  0.00  0.00    +0.000 A 
ATOM     24  F   UNL     1       9.360  10.174  21.006  0.00  0.00    +0.000 F 
ENDBRANCH  15  16
ENDBRANCH  11  15
ENDBRANCH  10  11
ENDBRANCH   1  10
BRANCH   7  25
ATOM     25  C   UNL     1       3.897   2.942  17.918  0.00  0.00    +0.000 C 
BRANCH  25  26
ATOM     26  C   UNL     1       2.963   2.890  19.103  0.00  0.00    +0.000 A 
ATOM     27  C   UNL     1       3.471   2.703  20.394  0.00  0.00    +0.000 A 
ATOM     28  C   UNL     1       2.610   2.655  21.490  0.00  0.00    +0.000 A 
ATOM     29  C   UNL     1       1.236   2.793  21.304  0.00  0.00    +0.000 A 
ATOM     30  C   UNL     1       0.720   2.986  20.023  0.00  0.00    +0.000 A 
ATOM     31  C   UNL     1       1.578   3.036  18.927  0.00  0.00    +0.000 A 
ENDBRANCH  25  26
ENDBRANCH   7  25
TORSDOF 7
ENDMDL
MODEL 5
REMARK VINA RESULT:      -8.1      1.629      2.075
REMARK  Name = 
REMARK  7 active torsions:
REMARK  status: ('A' for Active; 'I' for Inactive)
REMARK    1  A    between atoms: N_1  and  C_2
REMARK    2  A    between atoms: C_2  and  C_3
REMARK    3  A    between atoms: C_2  and  C_20
REMARK    4  A    between atoms: C_3  and  C_4
REMARK    5  A    between atoms: N_10  and  C_11
REMARK    6  A    between atoms: C_11  and  C_12
REMARK    7  A    between atoms: C_20  and  C_21
REMARK                            x       y       z     vdW  Elec       q    Type
REMARK                         _______ _______ _______ _____ _____    ______ ____
ROOT
ATOM      1  C   UNL     1       7.391   6.298  17.136  0.00  0.00    +0.000 C 
ATOM      2  O   UNL     1       7.770   6.311  15.960  0.00  0.00    +0.000 OA
ATOM      3  N   UNL     1       6.414   5.414  17.572  0.00  0.00    +0.000 N 
ATOM      4  C   UNL     1       5.703   5.490  18.846  0.00  0.00    +0.000 C 
ATOM      5  C   UNL     1       4.216   5.842  18.762  0.00  0.00    +0.000 C 
ATOM      6  C   UNL     1       3.331   5.219  17.676  0.00  0.00    +0.000 C 
ATOM      7  N   UNL     1       3.690   3.944  17.064  0.00  0.00    +0.000 NA
ATOM      8  C   UNL     1       4.810   4.101  16.127  0.00  0.00    +0.000 C 
ATOM      9  C   UNL     1       6.201   4.216  16.752  0.00  0.00    +0.000 C 
ENDROOT
BRANCH   1  10
ATOM     10  C   UNL     1       8.055   7.194  18.172  0.00  0.00    +0.000 C 
BRANCH  10  11
ATOM     11  C   UNL     1       7.600   8.666  18.035  0.00  0.00    +0.000 C 
BRANCH  11  12
ATOM     12  N   UNL     1       6.418   8.773  17.155  0.00  0.00    +0.000 NA
ATOM     13  H   UNL     1       5.588   8.623  17.741  0.00  0.00    +0.000 HD
ATOM     14  H   UNL     1       6.410   8.019  16.472  0.00  0.00    +0.000 HD
ENDBRANCH  11  12
BRANCH  11  15
ATOM     15  C   UNL     1       8.752   9.526  17.478  0.00  0.00    +0.000 C 
BRANCH  15  16
ATOM     16  C   UNL     1       9.047  10.789  18.258  0.00  0.00    +0.000 A 
ATOM     17  C   UNL     1       9.867  10.748  19.398  0.00  0.00    +0.000 A 
ATOM     18  C   UNL     1      10.071  11.900  20.152  0.00  0.00    +0.000 A 
ATOM     19  F   UNL     1      10.832  11.838  21.253  0.00  0.00    +0.000 F 
ATOM     20  C   UNL     1       9.474  13.099  19.780  0.00  0.00    +0.000 A 
ATOM     21  F   UNL     1       9.638  14.195  20.534  0.00  0.00    +0.000 F 
ATOM     22  C   UNL     1       8.693  13.171  18.633  0.00  0.00    +0.000 A 
ATOM     23  C   UNL     1       8.495  12.019  17.878  0.00  0.00    +0.000 A 
ATOM     24  F   UNL     1       7.736  12.094  16.775  0.00  0.00    +0.000 F 
ENDBRANCH  15  16
ENDBRANCH  11  15
ENDBRANCH  10  11
ENDBRANCH   1  10
BRANCH   7  25
ATOM     25  C   UNL     1       3.851   2.805  17.972  0.00  0.00    +0.000 C 
BRANCH  25  26
ATOM     26  C   UNL     1       2.905   2.817  19.147  0.00  0.00    +0.000 A 
ATOM     27  C   UNL     1       1.523   2.922  18.939  0.00  0.00    +0.000 A 
ATOM     28  C   UNL     1       0.647   2.932  20.023  0.00  0.00    +0.000 A 
ATOM     29  C   UNL     1       1.142   2.838  21.322  0.00  0.00    +0.000 A 
ATOM     30  C   UNL     1       2.515   2.726  21.541  0.00  0.00    +0.000 A 
ATOM     31  C   UNL     1       3.393   2.714  20.459  0.00  0.00    +0.000 A 
ENDBRANCH  25  26
ENDBRANCH   7  25
TORSDOF 7
ENDMDL
MODEL 6
REMARK VINA RESULT:      -8.1      1.406      1.865
REMARK  Name = 
REMARK  7 active torsions:
REMARK  status: ('A' for Active; 'I' for Inactive)
REMARK    1  A    between atoms: N_1  and  C_2
REMARK    2  A    between atoms: C_2  and  C_3
REMARK    3  A    between atoms: C_2  and  C_20
REMARK    4  A    between atoms: C_3  and  C_4
REMARK    5  A    between atoms: N_10  and  C_11
REMARK    6  A    between atoms: C_11  and  C_12
REMARK    7  A    between atoms: C_20  and  C_21
REMARK                            x       y       z     vdW  Elec       q    Type
REMARK                         _______ _______ _______ _____ _____    ______ ____
ROOT
ATOM      1  C   UNL     1       7.494   6.496  17.426  0.00  0.00    +0.000 C 
ATOM      2  O   UNL     1       7.851   6.639  16.251  0.00  0.00    +0.000 OA
ATOM      3  N   UNL     1       6.498   5.595  17.775  0.00  0.00    +0.000 N 
ATOM      4  C   UNL     1       5.814   5.539  19.065  0.00  0.00    +0.000 C 
ATOM      5  C   UNL     1       4.338   5.943  19.058  0.00  0.00    +0.000 C 
ATOM      6  C   UNL     1       3.413   5.483  17.927  0.00  0.00    +0.000 C 
ATOM      7  N   UNL     1       3.718   4.281  17.157  0.00  0.00    +0.000 NA
ATOM      8  C   UNL     1       4.824   4.516  16.220  0.00  0.00    +0.000 C 
ATOM      9  C   UNL     1       6.230   4.513  16.822  0.00  0.00    +0.000 C 
ENDROOT
BRANCH   1  10
ATOM     10  C   UNL     1       8.207   7.239  18.546  0.00  0.00    +0.000 C 
BRANCH  10  11
ATOM     11  C   UNL     1       7.956   8.765  18.475  0.00  0.00    +0.000 C 
BRANCH  11  12
ATOM     12  N   UNL     1       7.246   9.124  17.230  0.00  0.00    +0.000 NA
ATOM     13  H   UNL     1       7.872   9.731  16.687  0.00  0.00    +0.000 HD
ATOM     14  H   UNL     1       6.425   9.690  17.436  0.00  0.00    +0.000 HD
ENDBRANCH  11  12
BRANCH  11  15
ATOM     15  C   UNL     1       9.295   9.525  18.557  0.00  0.00    +0.000 C 
BRANCH  15  16
ATOM     16  C   UNL     1       9.239  10.848  19.290  0.00  0.00    +0.000 A 
ATOM     17  C   UNL     1       9.334  10.891  20.691  0.00  0.00    +0.000 A 
ATOM     18  C   UNL     1       9.204  12.105  21.361  0.00  0.00    +0.000 A 
ATOM     19  F   UNL     1       9.268  12.126  22.700  0.00  0.00    +0.000 F 
ATOM     20  C   UNL     1       8.991  13.280  20.652  0.00  0.00    +0.000 A 
ATOM     21  F   UNL     1       8.824  14.439  21.305  0.00  0.00    +0.000 F 
ATOM     22  C   UNL     1       8.936  13.266  19.264  0.00  0.00    +0.000 A 
ATOM     23  C   UNL     1       9.070  12.052  18.595  0.00  0.00    +0.000 A 
ATOM     24  F   UNL     1       9.011  12.045  17.256  0.00  0.00    +0.000 F 
ENDBRANCH  15  16
ENDBRANCH  11  15
ENDBRANCH  10  11
ENDBRANCH   1  10
BRANCH   7  25
ATOM     25  C   UNL     1       3.859   3.036  17.918  0.00  0.00    +0.000 C 
BRANCH  25  26
ATOM     26  C   UNL     1       2.942   2.939  19.113  0.00  0.00    +0.000 A 
ATOM     27  C   UNL     1       3.471   2.716  20.391  0.00  0.00    +0.000 A 
ATOM     28  C   UNL     1       2.626   2.627  21.496  0.00  0.00    +0.000 A 
ATOM     29  C   UNL     1       1.248   2.757  21.334  0.00  0.00    +0.000 A 
ATOM     30  C   UNL     1       0.712   2.986  20.067  0.00  0.00    +0.000 A 
ATOM     31  C   UNL     1       1.554   3.078  18.961  0.00  0.00    +0.000 A 
ENDBRANCH  25  26
ENDBRANCH   7  25
TORSDOF 7
ENDMDL
MODEL 7
REMARK VINA RESULT:      -7.9      1.471      2.473
REMARK  Name = 
REMARK  7 active torsions:
REMARK  status: ('A' for Active; 'I' for Inactive)
REMARK    1  A    between atoms: N_1  and  C_2
REMARK    2  A    between atoms: C_2  and  C_3
REMARK    3  A    between atoms: C_2  and  C_20
REMARK    4  A    between atoms: C_3  and  C_4
REMARK    5  A    between atoms: N_10  and  C_11
REMARK    6  A    between atoms: C_11  and  C_12
REMARK    7  A    between atoms: C_20  and  C_21
REMARK                            x       y       z     vdW  Elec       q    Type
REMARK                         _______ _______ _______ _____ _____    ______ ____
ROOT
ATOM      1  C   UNL     1       7.424   6.450  17.477  0.00  0.00    +0.000 C 
ATOM      2  O   UNL     1       7.768   6.641  16.306  0.00  0.00    +0.000 OA
ATOM      3  N   UNL     1       6.415   5.552  17.797  0.00  0.00    +0.000 N 
ATOM      4  C   UNL     1       5.746   5.447  19.091  0.00  0.00    +0.000 C 
ATOM      5  C   UNL     1       4.277   5.877  19.122  0.00  0.00    +0.000 C 
ATOM      6  C   UNL     1       3.330   5.486  17.982  0.00  0.00    +0.000 C 
ATOM      7  N   UNL     1       3.605   4.316  17.154  0.00  0.00    +0.000 NA
ATOM      8  C   UNL     1       4.703   4.575  16.215  0.00  0.00    +0.000 C 
ATOM      9  C   UNL     1       6.116   4.519  16.798  0.00  0.00    +0.000 C 
ENDROOT
BRANCH   1  10
ATOM     10  C   UNL     1       8.163   7.128  18.621  0.00  0.00    +0.000 C 
BRANCH  10  11
ATOM     11  C   UNL     1       8.120   8.670  18.500  0.00  0.00    +0.000 C 
BRANCH  11  12
ATOM     12  N   UNL     1       8.074   9.086  17.083  0.00  0.00    +0.000 NA
ATOM     13  H   UNL     1       8.847   9.745  16.934  0.00  0.00    +0.000 HD
ATOM     14  H   UNL     1       7.224   9.612  16.892  0.00  0.00    +0.000 HD
ENDBRANCH  11  12
BRANCH  11  15
ATOM     15  C   UNL     1       9.351   9.289  19.193  0.00  0.00    +0.000 C 
BRANCH  15  16
ATOM     16  C   UNL     1       9.479  10.790  19.054  0.00  0.00    +0.000 A 
ATOM     17  C   UNL     1       9.968  11.358  17.866  0.00  0.00    +0.000 A 
ATOM     18  C   UNL     1      10.155  12.735  17.777  0.00  0.00    +0.000 A 
ATOM     19  F   UNL     1      10.651  13.258  16.646  0.00  0.00    +0.000 F 
ATOM     20  C   UNL     1       9.851  13.557  18.854  0.00  0.00    +0.000 A 
ATOM     21  F   UNL     1      10.074  14.876  18.778  0.00  0.00    +0.000 F 
ATOM     22  C   UNL     1       9.328  13.021  20.024  0.00  0.00    +0.000 A 
ATOM     23  C   UNL     1       9.137  11.645  20.110  0.00  0.00    +0.000 A 
ATOM     24  F   UNL     1       8.636  11.134  21.244  0.00  0.00    +0.000 F 
ENDBRANCH  15  16
ENDBRANCH  11  15
ENDBRANCH  10  11
ENDBRANCH   1  10
BRANCH   7  25
ATOM     25  C   UNL     1       3.732   3.035  17.855  0.00  0.00    +0.000 C 
BRANCH  25  26
ATOM     26  C   UNL     1       2.891   2.931  19.103  0.00  0.00    +0.000 A 
ATOM     27  C   UNL     1       1.501   3.096  19.034  0.00  0.00    +0.000 A 
ATOM     28  C   UNL     1       0.722   2.999  20.186  0.00  0.00    +0.000 A 
ATOM     29  C   UNL     1       1.324   2.738  21.415  0.00  0.00    +0.000 A 
ATOM     30  C   UNL     1       2.705   2.565  21.495  0.00  0.00    +0.000 A 
ATOM     31  C   UNL     1       3.486   2.659  20.345  0.00  0.00    +0.000 A 
ENDBRANCH  25  26
ENDBRANCH   7  25
TORSDOF 7
ENDMDL
MODEL 8
REMARK VINA RESULT:      -7.8      5.403      7.941
REMARK  Name = 
REMARK  7 active torsions:
REMARK  status: ('A' for Active; 'I' for Inactive)
REMARK    1  A    between atoms: N_1  and  C_2
REMARK    2  A    between atoms: C_2  and  C_3
REMARK    3  A    between atoms: C_2  and  C_20
REMARK    4  A    between atoms: C_3  and  C_4
REMARK    5  A    between atoms: N_10  and  C_11
REMARK    6  A    between atoms: C_11  and  C_12
REMARK    7  A    between atoms: C_20  and  C_21
REMARK                            x       y       z     vdW  Elec       q    Type
REMARK                         _______ _______ _______ _____ _____    ______ ____
ROOT
ATOM      1  C   UNL     1       2.098   6.054  20.018  0.00  0.00    +0.000 C 
ATOM      2  O   UNL     1       1.290   5.438  20.721  0.00  0.00    +0.000 OA
ATOM      3  N   UNL     1       2.035   7.434  19.883  0.00  0.00    +0.000 N 
ATOM      4  C   UNL     1       2.748   8.226  18.884  0.00  0.00    +0.000 C 
ATOM      5  C   UNL     1       1.881   8.881  17.806  0.00  0.00    +0.000 C 
ATOM      6  C   UNL     1       0.548   9.540  18.178  0.00  0.00    +0.000 C 
ATOM      7  N   UNL     1       0.312  10.031  19.532  0.00  0.00    +0.000 NA
ATOM      8  C   UNL     1       0.078   8.922  20.466  0.00  0.00    +0.000 C 
ATOM      9  C   UNL     1       1.320   8.164  20.936  0.00  0.00    +0.000 C 
ENDROOT
BRANCH   1  10
ATOM     10  C   UNL     1       3.253   5.325  19.349  0.00  0.00    +0.000 C 
BRANCH  10  11
ATOM     11  C   UNL     1       2.900   4.889  17.906  0.00  0.00    +0.000 C 
BRANCH  11  12
ATOM     12  N   UNL     1       1.934   3.772  17.915  0.00  0.00    +0.000 NA
ATOM     13  H   UNL     1       2.474   2.902  17.843  0.00  0.00    +0.000 HD
ATOM     14  H   UNL     1       1.346   3.800  17.084  0.00  0.00    +0.000 HD
ENDBRANCH  11  12
BRANCH  11  15
ATOM     15  C   UNL     1       4.179   4.475  17.151  0.00  0.00    +0.000 C 
BRANCH  15  16
ATOM     16  C   UNL     1       5.400   5.320  17.442  0.00  0.00    +0.000 A 
ATOM     17  C   UNL     1       6.393   4.859  18.323  0.00  0.00    +0.000 A 
ATOM     18  C   UNL     1       7.474   5.676  18.644  0.00  0.00    +0.000 A 
ATOM     19  F   UNL     1       8.398   5.233  19.508  0.00  0.00    +0.000 F 
ATOM     20  C   UNL     1       7.585   6.945  18.090  0.00  0.00    +0.000 A 
ATOM     21  F   UNL     1       8.604   7.744  18.436  0.00  0.00    +0.000 F 
ATOM     22  C   UNL     1       6.636   7.405  17.185  0.00  0.00    +0.000 A 
ATOM     23  C   UNL     1       5.558   6.586  16.862  0.00  0.00    +0.000 A 
ATOM     24  F   UNL     1       4.644   7.037  15.992  0.00  0.00    +0.000 F 
ENDBRANCH  15  16
ENDBRANCH  11  15
ENDBRANCH  10  11
ENDBRANCH   1  10
BRANCH   7  25
ATOM     25  C   UNL     1       1.259  11.027  20.040  0.00  0.00    +0.000 C 
BRANCH  25  26
ATOM     26  C   UNL     1       0.948  12.442  19.621  0.00  0.00    +0.000 A 
ATOM     27  C   UNL     1       1.954  13.257  19.087  0.00  0.00    +0.000 A 
ATOM     28  C   UNL     1       1.668  14.565  18.698  0.00  0.00    +0.000 A 
ATOM     29  C   UNL     1       0.377  15.069  18.841  0.00  0.00    +0.000 A 
ATOM     30  C   UNL     1      -0.634  14.264  19.365  0.00  0.00    +0.000 A 
ATOM     31  C   UNL     1      -0.352  12.956  19.752  0.00  0.00    +0.000 A 
ENDBRANCH  25  26
ENDBRANCH   7  25
TORSDOF 7
ENDMDL
MODEL 9
REMARK VINA RESULT:      -7.8      5.932      8.156
REMARK  Name = 
REMARK  7 active torsions:
REMARK  status: ('A' for Active; 'I' for Inactive)
REMARK    1  A    between atoms: N_1  and  C_2
REMARK    2  A    between atoms: C_2  and  C_3
REMARK    3  A    between atoms: C_2  and  C_20
REMARK    4  A    between atoms: C_3  and  C_4
REMARK    5  A    between atoms: N_10  and  C_11
REMARK    6  A    between atoms: C_11  and  C_12
REMARK    7  A    between atoms: C_20  and  C_21
REMARK                            x       y       z     vdW  Elec       q    Type
REMARK                         _______ _______ _______ _____ _____    ______ ____
ROOT
ATOM      1  C   UNL     1       2.053   6.749  20.069  0.00  0.00    +0.000 C 
ATOM      2  O   UNL     1       1.549   5.887  20.798  0.00  0.00    +0.000 OA
ATOM      3  N   UNL     1       1.685   8.083  20.166  0.00  0.00    +0.000 N 
ATOM      4  C   UNL     1       2.001   9.127  19.193  0.00  0.00    +0.000 C 
ATOM      5  C   UNL     1       0.816   9.685  18.402  0.00  0.00    +0.000 C 
ATOM      6  C   UNL     1      -0.517   9.972  19.100  0.00  0.00    +0.000 C 
ATOM      7  N   UNL     1      -0.565  10.238  20.535  0.00  0.00    +0.000 NA
ATOM      8  C   UNL     1      -0.371   9.006  21.310  0.00  0.00    +0.000 C 
ATOM      9  C   UNL     1       1.069   8.504  21.429  0.00  0.00    +0.000 C 
ENDROOT
BRANCH   1  10
ATOM     10  C   UNL     1       3.169   6.385  19.102  0.00  0.00    +0.000 C 
BRANCH  10  11
ATOM     11  C   UNL     1       2.793   5.171  18.219  0.00  0.00    +0.000 C 
BRANCH  11  12
ATOM     12  N   UNL     1       2.430   4.007  19.053  0.00  0.00    +0.000 NA
ATOM     13  H   UNL     1       2.293   3.210  18.419  0.00  0.00    +0.000 HD
ATOM     14  H   UNL     1       1.530   4.155  19.504  0.00  0.00    +0.000 HD
ENDBRANCH  11  12
BRANCH  11  15
ATOM     15  C   UNL     1       3.968   4.809  17.289  0.00  0.00    +0.000 C 
BRANCH  15  16
ATOM     16  C   UNL     1       5.282   5.481  17.621  0.00  0.00    +0.000 A 
ATOM     17  C   UNL     1       6.037   5.063  18.729  0.00  0.00    +0.000 A 
ATOM     18  C   UNL     1       7.206   5.737  19.072  0.00  0.00    +0.000 A 
ATOM     19  F   UNL     1       7.900   5.343  20.149  0.00  0.00    +0.000 F 
ATOM     20  C   UNL     1       7.639   6.820  18.318  0.00  0.00    +0.000 A 
ATOM     21  F   UNL     1       8.741   7.493  18.677  0.00  0.00    +0.000 F 
ATOM     22  C   UNL     1       6.930   7.226  17.194  0.00  0.00    +0.000 A 
ATOM     23  C   UNL     1       5.764   6.547  16.850  0.00  0.00    +0.000 A 
ATOM     24  F   UNL     1       5.082   6.946  15.767  0.00  0.00    +0.000 F 
ENDBRANCH  15  16
ENDBRANCH  11  15
ENDBRANCH  10  11
ENDBRANCH   1  10
BRANCH   7  25
ATOM     25  C   UNL     1       0.245  11.359  21.018  0.00  0.00    +0.000 C 
BRANCH  25  26
ATOM     26  C   UNL     1      -0.505  12.320  21.908  0.00  0.00    +0.000 A 
ATOM     27  C   UNL     1      -0.068  13.644  22.043  0.00  0.00    +0.000 A 
ATOM     28  C   UNL     1      -0.759  14.534  22.864  0.00  0.00    +0.000 A 
ATOM     29  C   UNL     1      -1.891  14.109  23.556  0.00  0.00    +0.000 A 
ATOM     30  C   UNL     1      -2.339  12.795  23.424  0.00  0.00    +0.000 A 
ATOM     31  C   UNL     1      -1.651  11.904  22.603  0.00  0.00    +0.000 A 
ENDBRANCH  25  26
ENDBRANCH   7  25
TORSDOF 7
ENDMDL
