MODEL 1
REMARK VINA RESULT:      -8.1      0.000      0.000
REMARK  Name = 
REMARK  17 active torsions:
REMARK  status: ('A' for Active; 'I' for Inactive)
REMARK    1  A    between atoms: C_1  and  C_2
REMARK    2  A    between atoms: C_2  and  C_3
REMARK    3  A    between atoms: C_4  and  C_5
REMARK    4  A    between atoms: C_5  and  C_6
REMARK    5  A    between atoms: C_6  and  C_7
REMARK    6  A    between atoms: C_7  and  C_8
REMARK    7  A    between atoms: C_9  and  C_10
REMARK    8  A    between atoms: C_10  and  C_11
REMARK    9  A    between atoms: C_11  and  C_12
REMARK   10  A    between atoms: C_12  and  C_13
REMARK   11  A    between atoms: C_14  and  C_15
REMARK   12  A    between atoms: C_15  and  C_16
REMARK   13  A    between atoms: C_16  and  C_17
REMARK   14  A    between atoms: C_17  and  C_18
REMARK   15  A    between atoms: C_23  and  O_24
REMARK   16  A    between atoms: C_25  and  C_26
REMARK   17  A    between atoms: C_27  and  C_28
REMARK                            x       y       z     vdW  Elec       q    Type
REMARK                         _______ _______ _______ _____ _____    ______ ____
ROOT
ATOM      1  C   UNL     1       2.139   8.406  17.944  0.00  0.00    +0.000 C 
ENDROOT
BRANCH   1   2
ATOM      2  C   UNL     1       1.289   9.617  18.426  0.00  0.00    +0.000 C 
ATOM      3  C   UNL     1       1.945  10.943  17.972  0.00  0.00    +0.000 C 
ATOM      4  C   UNL     1       1.143   9.542  19.953  0.00  0.00    +0.000 C 
ATOM      5  C   UNL     1       0.275  10.684  20.464  0.00  0.00    +0.000 C 
ATOM      6  C   UNL     1      -0.907  10.916  19.564  0.00  0.00    +0.000 A 
ATOM      7  C   UNL     1      -1.906  11.808  19.960  0.00  0.00    +0.000 A 
ATOM      8  C   UNL     1      -2.999  12.045  19.128  0.00  0.00    +0.000 A 
ATOM      9  C   UNL     1      -3.140  11.400  17.891  0.00  0.00    +0.000 A 
ATOM     10  C   UNL     1      -4.340  11.669  17.023  0.00  0.00    +0.000 C 
ATOM     11  C   UNL     1      -2.126  10.500  17.480  0.00  0.00    +0.000 A 
ATOM     12  C   UNL     1      -2.192   9.758  16.167  0.00  0.00    +0.000 C 
ATOM     13  C   UNL     1      -1.002  10.301  18.310  0.00  0.00    +0.000 A 
ATOM     14  O   UNL     1      -0.011   9.485  17.819  0.00  0.00    +0.000 OA
BRANCH   8  15
ATOM     15  O   UNL     1      -3.957  12.940  19.524  0.00  0.00    +0.000 OA
ATOM     16  H   UNL     1      -3.644  13.840  19.333  0.00  0.00    +0.000 HD
ENDBRANCH   8  15
ENDBRANCH   1   2
BRANCH   1  17
ATOM     17  C   UNL     1       1.767   7.111  18.674  0.00  0.00    +0.000 C 
BRANCH  17  20
ATOM     18  C   UNL     1       2.776   4.958  19.500  0.00  0.00    +0.000 C 
ATOM     19  C   UNL     1       1.535   4.697  20.328  0.00  0.00    +0.000 C 
ATOM     20  C   UNL     1       2.854   6.068  18.731  0.00  0.00    +0.000 C 
BRANCH  18  21
ATOM     21  C   UNL     1       3.965   4.007  19.579  0.00  0.00    +0.000 C 
BRANCH  21  22
ATOM     22  C   UNL     1       5.286   4.627  19.119  0.00  0.00    +0.000 C 
BRANCH  22  25
ATOM     23  C   UNL     1       6.740   5.032  17.137  0.00  0.00    +0.000 C 
ATOM     24  C   UNL     1       7.522   6.048  17.941  0.00  0.00    +0.000 C 
ATOM     25  C   UNL     1       5.697   4.380  17.697  0.00  0.00    +0.000 C 
BRANCH  23  26
ATOM     26  C   UNL     1       7.108   4.746  15.693  0.00  0.00    +0.000 C 
BRANCH  26  27
ATOM     27  C   UNL     1       6.024   5.045  14.655  0.00  0.00    +0.000 C 
BRANCH  27  31
ATOM     28  C   UNL     1       5.997   2.384  11.813  0.00  0.00    +0.000 C 
ATOM     29  C   UNL     1       6.314   3.640  12.573  0.00  0.00    +0.000 C 
ATOM     30  C   UNL     1       7.291   4.598  11.947  0.00  0.00    +0.000 C 
ATOM     31  C   UNL     1       5.725   3.876  13.764  0.00  0.00    +0.000 C 
ENDBRANCH  27  31
ENDBRANCH  26  27
ENDBRANCH  23  26
ENDBRANCH  22  25
ENDBRANCH  21  22
ENDBRANCH  18  21
ENDBRANCH  17  20
ENDBRANCH   1  17
TORSDOF 10
ENDMDL
MODEL 2
REMARK VINA RESULT:      -8.1      5.854      8.979
REMARK  Name = 
REMARK  17 active torsions:
REMARK  status: ('A' for Active; 'I' for Inactive)
REMARK    1  A    between atoms: C_1  and  C_2
REMARK    2  A    between atoms: C_2  and  C_3
REMARK    3  A    between atoms: C_4  and  C_5
REMARK    4  A    between atoms: C_5  and  C_6
REMARK    5  A    between atoms: C_6  and  C_7
REMARK    6  A    between atoms: C_7  and  C_8
REMARK    7  A    between atoms: C_9  and  C_10
REMARK    8  A    between atoms: C_10  and  C_11
REMARK    9  A    between atoms: C_11  and  C_12
REMARK   10  A    between atoms: C_12  and  C_13
REMARK   11  A    between atoms: C_14  and  C_15
REMARK   12  A    between atoms: C_15  and  C_16
REMARK   13  A    between atoms: C_16  and  C_17
REMARK   14  A    between atoms: C_17  and  C_18
REMARK   15  A    between atoms: C_23  and  O_24
REMARK   16  A    between atoms: C_25  and  C_26
REMARK   17  A    between atoms: C_27  and  C_28
REMARK                            x       y       z     vdW  Elec       q    Type
REMARK                         _______ _______ _______ _____ _____    ______ ____
ROOT
ATOM      1  C   UNL     1       8.413  10.232  17.524  0.00  0.00    +0.000 C 
ENDROOT
BRANCH   1   2
ATOM      2  C   UNL     1       9.269  11.207  18.385  0.00  0.00    +0.000 C 
ATOM      3  C   UNL     1      10.648  11.435  17.721  0.00  0.00    +0.000 C 
ATOM      4  C   UNL     1       9.402  10.627  19.802  0.00  0.00    +0.000 C 
ATOM      5  C   UNL     1      10.192  11.574  20.694  0.00  0.00    +0.000 C 
ATOM      6  C   UNL     1       9.798  13.005  20.456  0.00  0.00    +0.000 A 
ATOM      7  C   UNL     1      10.292  14.002  21.300  0.00  0.00    +0.000 A 
ATOM      8  C   UNL     1       9.948  15.335  21.081  0.00  0.00    +0.000 A 
ATOM      9  C   UNL     1       9.099  15.716  20.032  0.00  0.00    +0.000 A 
ATOM     10  C   UNL     1       8.736  17.163  19.832  0.00  0.00    +0.000 C 
ATOM     11  C   UNL     1       8.601  14.710  19.166  0.00  0.00    +0.000 A 
ATOM     12  C   UNL     1       7.681  15.025  18.013  0.00  0.00    +0.000 C 
ATOM     13  C   UNL     1       8.991  13.370  19.371  0.00  0.00    +0.000 A 
ATOM     14  O   UNL     1       8.548  12.452  18.449  0.00  0.00    +0.000 OA
BRANCH   8  15
ATOM     15  O   UNL     1      10.460  16.301  21.906  0.00  0.00    +0.000 OA
ATOM     16  H   UNL     1      10.043  16.220  22.780  0.00  0.00    +0.000 HD
ENDBRANCH   8  15
ENDBRANCH   1   2
BRANCH   1  17
ATOM     17  C   UNL     1       8.314   8.838  18.154  0.00  0.00    +0.000 C 
BRANCH  17  20
ATOM     18  C   UNL     1       7.436   6.521  17.713  0.00  0.00    +0.000 C 
ATOM     19  C   UNL     1       7.938   6.076  19.072  0.00  0.00    +0.000 C 
ATOM     20  C   UNL     1       7.604   7.803  17.318  0.00  0.00    +0.000 C 
BRANCH  18  21
ATOM     21  C   UNL     1       6.799   5.513  16.763  0.00  0.00    +0.000 C 
BRANCH  21  22
ATOM     22  C   UNL     1       5.277   5.634  16.661  0.00  0.00    +0.000 C 
BRANCH  22  25
ATOM     23  C   UNL     1       3.637   6.506  18.323  0.00  0.00    +0.000 C 
ATOM     24  C   UNL     1       3.445   7.734  17.461  0.00  0.00    +0.000 C 
ATOM     25  C   UNL     1       4.498   5.537  17.940  0.00  0.00    +0.000 C 
BRANCH  23  26
ATOM     26  C   UNL     1       2.880   6.356  19.629  0.00  0.00    +0.000 C 
BRANCH  26  27
ATOM     27  C   UNL     1       2.867   4.951  20.236  0.00  0.00    +0.000 C 
BRANCH  27  31
ATOM     28  C   UNL     1       0.593   2.161  18.750  0.00  0.00    +0.000 C 
ATOM     29  C   UNL     1       1.824   2.952  19.092  0.00  0.00    +0.000 C 
ATOM     30  C   UNL     1       3.149   2.392  18.652  0.00  0.00    +0.000 C 
ATOM     31  C   UNL     1       1.713   4.118  19.762  0.00  0.00    +0.000 C 
ENDBRANCH  27  31
ENDBRANCH  26  27
ENDBRANCH  23  26
ENDBRANCH  22  25
ENDBRANCH  21  22
ENDBRANCH  18  21
ENDBRANCH  17  20
ENDBRANCH   1  17
TORSDOF 10
ENDMDL
MODEL 3
REMARK VINA RESULT:      -7.9      6.784     10.057
REMARK  Name = 
REMARK  17 active torsions:
REMARK  status: ('A' for Active; 'I' for Inactive)
REMARK    1  A    between atoms: C_1  and  C_2
REMARK    2  A    between atoms: C_2  and  C_3
REMARK    3  A    between atoms: C_4  and  C_5
REMARK    4  A    between atoms: C_5  and  C_6
REMARK    5  A    between atoms: C_6  and  C_7
REMARK    6  A    between atoms: C_7  and  C_8
REMARK    7  A    between atoms: C_9  and  C_10
REMARK    8  A    between atoms: C_10  and  C_11
REMARK    9  A    between atoms: C_11  and  C_12
REMARK   10  A    between atoms: C_12  and  C_13
REMARK   11  A    between atoms: C_14  and  C_15
REMARK   12  A    between atoms: C_15  and  C_16
REMARK   13  A    between atoms: C_16  and  C_17
REMARK   14  A    between atoms: C_17  and  C_18
REMARK   15  A    between atoms: C_23  and  O_24
REMARK   16  A    between atoms: C_25  and  C_26
REMARK   17  A    between atoms: C_27  and  C_28
REMARK                            x       y       z     vdW  Elec       q    Type
REMARK                         _______ _______ _______ _____ _____    ______ ____
ROOT
ATOM      1  C   UNL     1       8.853  10.623  19.247  0.00  0.00    +0.000 C 
ENDROOT
BRANCH   1   2
ATOM      2  C   UNL     1       9.384  11.883  18.504  0.00  0.00    +0.000 C 
ATOM      3  C   UNL     1       8.298  12.437  17.552  0.00  0.00    +0.000 C 
ATOM      4  C   UNL     1      10.670  11.509  17.753  0.00  0.00    +0.000 C 
ATOM      5  C   UNL     1      11.252  12.727  17.050  0.00  0.00    +0.000 C 
ATOM      6  C   UNL     1      11.169  13.950  17.919  0.00  0.00    +0.000 A 
ATOM      7  C   UNL     1      11.804  15.126  17.513  0.00  0.00    +0.000 A 
ATOM      8  C   UNL     1      11.721  16.273  18.301  0.00  0.00    +0.000 A 
ATOM      9  C   UNL     1      11.019  16.285  19.515  0.00  0.00    +0.000 A 
ATOM     10  C   UNL     1      10.961  17.537  20.349  0.00  0.00    +0.000 C 
ATOM     11  C   UNL     1      10.365  15.099  19.929  0.00  0.00    +0.000 A 
ATOM     12  C   UNL     1       9.588  15.017  21.220  0.00  0.00    +0.000 C 
ATOM     13  C   UNL     1      10.419  13.957  19.102  0.00  0.00    +0.000 A 
ATOM     14  O   UNL     1       9.693  12.864  19.513  0.00  0.00    +0.000 OA
BRANCH   8  15
ATOM     15  O   UNL     1      12.333  17.421  17.875  0.00  0.00    +0.000 OA
ATOM     16  H   UNL     1      13.296  17.296  17.913  0.00  0.00    +0.000 HD
ENDBRANCH   8  15
ENDBRANCH   1   2
BRANCH   1  17
ATOM     17  C   UNL     1       9.003   9.350  18.407  0.00  0.00    +0.000 C 
BRANCH  17  20
ATOM     18  C   UNL     1       7.297   7.579  17.872  0.00  0.00    +0.000 C 
ATOM     19  C   UNL     1       8.069   6.584  18.715  0.00  0.00    +0.000 C 
ATOM     20  C   UNL     1       7.736   8.852  17.759  0.00  0.00    +0.000 C 
BRANCH  18  21
ATOM     21  C   UNL     1       6.060   7.132  17.099  0.00  0.00    +0.000 C 
BRANCH  21  22
ATOM     22  C   UNL     1       5.812   5.624  17.147  0.00  0.00    +0.000 C 
BRANCH  22  25
ATOM     23  C   UNL     1       3.448   5.379  17.897  0.00  0.00    +0.000 C 
ATOM     24  C   UNL     1       3.800   6.102  19.179  0.00  0.00    +0.000 C 
ATOM     25  C   UNL     1       4.397   5.159  16.960  0.00  0.00    +0.000 C 
BRANCH  23  26
ATOM     26  C   UNL     1       2.035   4.883  17.656  0.00  0.00    +0.000 C 
BRANCH  26  27
ATOM     27  C   UNL     1       1.787   3.402  17.951  0.00  0.00    +0.000 C 
BRANCH  27  31
ATOM     28  C   UNL     1       1.833   2.621  21.765  0.00  0.00    +0.000 C 
ATOM     29  C   UNL     1       2.297   2.762  20.343  0.00  0.00    +0.000 C 
ATOM     30  C   UNL     1       3.743   2.461  20.054  0.00  0.00    +0.000 C 
ATOM     31  C   UNL     1       1.427   3.141  19.384  0.00  0.00    +0.000 C 
ENDBRANCH  27  31
ENDBRANCH  26  27
ENDBRANCH  23  26
ENDBRANCH  22  25
ENDBRANCH  21  22
ENDBRANCH  18  21
ENDBRANCH  17  20
ENDBRANCH   1  17
TORSDOF 10
ENDMDL
MODEL 4
REMARK VINA RESULT:      -7.8      5.702      9.960
REMARK  Name = 
REMARK  17 active torsions:
REMARK  status: ('A' for Active; 'I' for Inactive)
REMARK    1  A    between atoms: C_1  and  C_2
REMARK    2  A    between atoms: C_2  and  C_3
REMARK    3  A    between atoms: C_4  and  C_5
REMARK    4  A    between atoms: C_5  and  C_6
REMARK    5  A    between atoms: C_6  and  C_7
REMARK    6  A    between atoms: C_7  and  C_8
REMARK    7  A    between atoms: C_9  and  C_10
REMARK    8  A    between atoms: C_10  and  C_11
REMARK    9  A    between atoms: C_11  and  C_12
REMARK   10  A    between atoms: C_12  and  C_13
REMARK   11  A    between atoms: C_14  and  C_15
REMARK   12  A    between atoms: C_15  and  C_16
REMARK   13  A    between atoms: C_16  and  C_17
REMARK   14  A    between atoms: C_17  and  C_18
REMARK   15  A    between atoms: C_23  and  O_24
REMARK   16  A    between atoms: C_25  and  C_26
REMARK   17  A    between atoms: C_27  and  C_28
REMARK                            x       y       z     vdW  Elec       q    Type
REMARK                         _______ _______ _______ _____ _____    ______ ____
ROOT
ATOM      1  C   UNL     1       6.416   7.586  17.054  0.00  0.00    +0.000 C 
ENDROOT
BRANCH   1   2
ATOM      2  C   UNL     1       5.951   6.144  17.411  0.00  0.00    +0.000 C 
ATOM      3  C   UNL     1       6.892   5.528  18.474  0.00  0.00    +0.000 C 
ATOM      4  C   UNL     1       5.911   5.305  16.125  0.00  0.00    +0.000 C 
ATOM      5  C   UNL     1       5.413   3.898  16.421  0.00  0.00    +0.000 C 
ATOM      6  C   UNL     1       4.265   3.917  17.391  0.00  0.00    +0.000 A 
ATOM      7  C   UNL     1       3.567   2.736  17.653  0.00  0.00    +0.000 A 
ATOM      8  C   UNL     1       2.511   2.736  18.563  0.00  0.00    +0.000 A 
ATOM      9  C   UNL     1       2.111   3.903  19.230  0.00  0.00    +0.000 A 
ATOM     10  C   UNL     1       0.958   3.871  20.197  0.00  0.00    +0.000 C 
ATOM     11  C   UNL     1       2.821   5.103  18.976  0.00  0.00    +0.000 A 
ATOM     12  C   UNL     1       2.460   6.407  19.645  0.00  0.00    +0.000 C 
ATOM     13  C   UNL     1       3.915   5.082  18.086  0.00  0.00    +0.000 A 
ATOM     14  O   UNL     1       4.618   6.255  17.947  0.00  0.00    +0.000 OA
BRANCH   8  15
ATOM     15  O   UNL     1       1.853   1.563  18.822  0.00  0.00    +0.000 OA
ATOM     16  H   UNL     1       1.169   1.432  18.145  0.00  0.00    +0.000 HD
ENDBRANCH   8  15
ENDBRANCH   1   2
BRANCH   1  17
ATOM     17  C   UNL     1       7.718   7.967  17.768  0.00  0.00    +0.000 C 
BRANCH  17  20
ATOM     18  C   UNL     1       8.880  10.122  18.348  0.00  0.00    +0.000 C 
ATOM     19  C   UNL     1       9.109   9.616  19.758  0.00  0.00    +0.000 C 
ATOM     20  C   UNL     1       8.253   9.339  17.443  0.00  0.00    +0.000 C 
BRANCH  18  21
ATOM     21  C   UNL     1       9.298  11.538  17.965  0.00  0.00    +0.000 C 
BRANCH  21  22
ATOM     22  C   UNL     1      10.381  12.130  18.868  0.00  0.00    +0.000 C 
BRANCH  22  25
ATOM     23  C   UNL     1      10.651  14.100  20.370  0.00  0.00    +0.000 C 
ATOM     24  C   UNL     1      11.964  14.418  19.687  0.00  0.00    +0.000 C 
ATOM     25  C   UNL     1       9.926  13.028  19.981  0.00  0.00    +0.000 C 
BRANCH  23  26
ATOM     26  C   UNL     1      10.143  14.971  21.504  0.00  0.00    +0.000 C 
BRANCH  26  27
ATOM     27  C   UNL     1       8.729  14.663  22.001  0.00  0.00    +0.000 C 
BRANCH  27  31
ATOM     28  C   UNL     1       8.449  12.468  25.204  0.00  0.00    +0.000 C 
ATOM     29  C   UNL     1       8.349  12.895  23.767  0.00  0.00    +0.000 C 
ATOM     30  C   UNL     1       7.844  11.879  22.778  0.00  0.00    +0.000 C 
ATOM     31  C   UNL     1       8.700  14.147  23.409  0.00  0.00    +0.000 C 
ENDBRANCH  27  31
ENDBRANCH  26  27
ENDBRANCH  23  26
ENDBRANCH  22  25
ENDBRANCH  21  22
ENDBRANCH  18  21
ENDBRANCH  17  20
ENDBRANCH   1  17
TORSDOF 10
ENDMDL
MODEL 5
REMARK VINA RESULT:      -7.8      6.351      9.601
REMARK  Name = 
REMARK  17 active torsions:
REMARK  status: ('A' for Active; 'I' for Inactive)
REMARK    1  A    between atoms: C_1  and  C_2
REMARK    2  A    between atoms: C_2  and  C_3
REMARK    3  A    between atoms: C_4  and  C_5
REMARK    4  A    between atoms: C_5  and  C_6
REMARK    5  A    between atoms: C_6  and  C_7
REMARK    6  A    between atoms: C_7  and  C_8
REMARK    7  A    between atoms: C_9  and  C_10
REMARK    8  A    between atoms: C_10  and  C_11
REMARK    9  A    between atoms: C_11  and  C_12
REMARK   10  A    between atoms: C_12  and  C_13
REMARK   11  A    between atoms: C_14  and  C_15
REMARK   12  A    between atoms: C_15  and  C_16
REMARK   13  A    between atoms: C_16  and  C_17
REMARK   14  A    between atoms: C_17  and  C_18
REMARK   15  A    between atoms: C_23  and  O_24
REMARK   16  A    between atoms: C_25  and  C_26
REMARK   17  A    between atoms: C_27  and  C_28
REMARK                            x       y       z     vdW  Elec       q    Type
REMARK                         _______ _______ _______ _____ _____    ______ ____
ROOT
ATOM      1  C   UNL     1       9.513   9.816  18.245  0.00  0.00    +0.000 C 
ENDROOT
BRANCH   1   2
ATOM      2  C   UNL     1       9.708  11.354  18.390  0.00  0.00    +0.000 C 
ATOM      3  C   UNL     1       8.566  12.106  17.665  0.00  0.00    +0.000 C 
ATOM      4  C   UNL     1      11.089  11.732  17.833  0.00  0.00    +0.000 C 
ATOM      5  C   UNL     1      11.342  13.224  18.000  0.00  0.00    +0.000 C 
ATOM      6  C   UNL     1      10.865  13.712  19.339  0.00  0.00    +0.000 A 
ATOM      7  C   UNL     1      11.164  15.016  19.740  0.00  0.00    +0.000 A 
ATOM      8  C   UNL     1      10.714  15.488  20.972  0.00  0.00    +0.000 A 
ATOM      9  C   UNL     1       9.968  14.682  21.844  0.00  0.00    +0.000 A 
ATOM     10  C   UNL     1       9.509  15.219  23.173  0.00  0.00    +0.000 C 
ATOM     11  C   UNL     1       9.653  13.361  21.439  0.00  0.00    +0.000 A 
ATOM     12  C   UNL     1       8.858  12.421  22.312  0.00  0.00    +0.000 C 
ATOM     13  C   UNL     1      10.076  12.909  20.172  0.00  0.00    +0.000 A 
ATOM     14  O   UNL     1       9.667  11.651  19.799  0.00  0.00    +0.000 OA
BRANCH   8  15
ATOM     15  O   UNL     1      10.999  16.777  21.338  0.00  0.00    +0.000 OA
ATOM     16  H   UNL     1      11.057  17.324  20.537  0.00  0.00    +0.000 HD
ENDBRANCH   8  15
ENDBRANCH   1   2
BRANCH   1  17
ATOM     17  C   UNL     1       8.045   9.403  18.394  0.00  0.00    +0.000 C 
BRANCH  17  20
ATOM     18  C   UNL     1       7.587   7.030  17.691  0.00  0.00    +0.000 C 
ATOM     19  C   UNL     1       8.067   6.540  19.043  0.00  0.00    +0.000 C 
ATOM     20  C   UNL     1       7.569   8.354  17.421  0.00  0.00    +0.000 C 
BRANCH  18  21
ATOM     21  C   UNL     1       7.185   6.031  16.612  0.00  0.00    +0.000 C 
BRANCH  21  22
ATOM     22  C   UNL     1       6.730   4.677  17.160  0.00  0.00    +0.000 C 
BRANCH  22  25
ATOM     23  C   UNL     1       4.271   4.658  17.559  0.00  0.00    +0.000 C 
ATOM     24  C   UNL     1       4.475   5.576  18.744  0.00  0.00    +0.000 C 
ATOM     25  C   UNL     1       5.332   4.243  16.831  0.00  0.00    +0.000 C 
BRANCH  23  26
ATOM     26  C   UNL     1       2.880   4.183  17.183  0.00  0.00    +0.000 C 
BRANCH  26  27
ATOM     27  C   UNL     1       2.502   2.778  17.655  0.00  0.00    +0.000 C 
BRANCH  27  31
ATOM     28  C   UNL     1       1.307   2.734  21.361  0.00  0.00    +0.000 C 
ATOM     29  C   UNL     1       2.204   2.620  20.161  0.00  0.00    +0.000 C 
ATOM     30  C   UNL     1       3.657   2.318  20.411  0.00  0.00    +0.000 C 
ATOM     31  C   UNL     1       1.697   2.781  18.921  0.00  0.00    +0.000 C 
ENDBRANCH  27  31
ENDBRANCH  26  27
ENDBRANCH  23  26
ENDBRANCH  22  25
ENDBRANCH  21  22
ENDBRANCH  18  21
ENDBRANCH  17  20
ENDBRANCH   1  17
TORSDOF 10
ENDMDL
MODEL 6
REMARK VINA RESULT:      -7.5      6.652      9.583
REMARK  Name = 
REMARK  17 active torsions:
REMARK  status: ('A' for Active; 'I' for Inactive)
REMARK    1  A    between atoms: C_1  and  C_2
REMARK    2  A    between atoms: C_2  and  C_3
REMARK    3  A    between atoms: C_4  and  C_5
REMARK    4  A    between atoms: C_5  and  C_6
REMARK    5  A    between atoms: C_6  and  C_7
REMARK    6  A    between atoms: C_7  and  C_8
REMARK    7  A    between atoms: C_9  and  C_10
REMARK    8  A    between atoms: C_10  and  C_11
REMARK    9  A    between atoms: C_11  and  C_12
REMARK   10  A    between atoms: C_12  and  C_13
REMARK   11  A    between atoms: C_14  and  C_15
REMARK   12  A    between atoms: C_15  and  C_16
REMARK   13  A    between atoms: C_16  and  C_17
REMARK   14  A    between atoms: C_17  and  C_18
REMARK   15  A    between atoms: C_23  and  O_24
REMARK   16  A    between atoms: C_25  and  C_26
REMARK   17  A    between atoms: C_27  and  C_28
REMARK                            x       y       z     vdW  Elec       q    Type
REMARK                         _______ _______ _______ _____ _____    ______ ____
ROOT
ATOM      1  C   UNL     1       9.631  10.758  18.194  0.00  0.00    +0.000 C 
ENDROOT
BRANCH   1   2
ATOM      2  C   UNL     1      10.113  11.755  19.288  0.00  0.00    +0.000 C 
ATOM      3  C   UNL     1      11.637  11.606  19.511  0.00  0.00    +0.000 C 
ATOM      4  C   UNL     1       9.316  11.499  20.577  0.00  0.00    +0.000 C 
ATOM      5  C   UNL     1       9.722  12.486  21.661  0.00  0.00    +0.000 C 
ATOM      6  C   UNL     1       9.900  13.869  21.101  0.00  0.00    +0.000 A 
ATOM      7  C   UNL     1      10.106  14.942  21.971  0.00  0.00    +0.000 A 
ATOM      8  C   UNL     1      10.290  16.228  21.465  0.00  0.00    +0.000 A 
ATOM      9  C   UNL     1      10.263  16.489  20.088  0.00  0.00    +0.000 A 
ATOM     10  C   UNL     1      10.450  17.892  19.575  0.00  0.00    +0.000 C 
ATOM     11  C   UNL     1      10.063  15.405  19.198  0.00  0.00    +0.000 A 
ATOM     12  C   UNL     1      10.017  15.591  17.701  0.00  0.00    +0.000 C 
ATOM     13  C   UNL     1       9.922  14.102  19.720  0.00  0.00    +0.000 A 
ATOM     14  O   UNL     1       9.819  13.080  18.806  0.00  0.00    +0.000 OA
BRANCH   8  15
ATOM     15  O   UNL     1      10.512  17.262  22.335  0.00  0.00    +0.000 OA
ATOM     16  H   UNL     1      10.878  18.014  21.840  0.00  0.00    +0.000 HD
ENDBRANCH   8  15
ENDBRANCH   1   2
BRANCH   1  17
ATOM     17  C   UNL     1       8.854   9.578  18.789  0.00  0.00    +0.000 C 
BRANCH  17  20
ATOM     18  C   UNL     1       7.731   7.507  17.904  0.00  0.00    +0.000 C 
ATOM     19  C   UNL     1       8.333   6.700  19.036  0.00  0.00    +0.000 C 
ATOM     20  C   UNL     1       7.970   8.835  17.820  0.00  0.00    +0.000 C 
BRANCH  18  21
ATOM     21  C   UNL     1       6.907   6.816  16.822  0.00  0.00    +0.000 C 
BRANCH  21  22
ATOM     22  C   UNL     1       6.968   5.288  16.880  0.00  0.00    +0.000 C 
BRANCH  22  25
ATOM     23  C   UNL     1       4.908   3.901  17.082  0.00  0.00    +0.000 C 
ATOM     24  C   UNL     1       4.838   3.819  15.573  0.00  0.00    +0.000 C 
ATOM     25  C   UNL     1       5.905   4.593  17.678  0.00  0.00    +0.000 C 
BRANCH  23  26
ATOM     26  C   UNL     1       3.858   3.221  17.940  0.00  0.00    +0.000 C 
BRANCH  26  27
ATOM     27  C   UNL     1       2.451   3.821  17.875  0.00  0.00    +0.000 C 
BRANCH  27  31
ATOM     28  C   UNL     1       2.489   7.649  18.583  0.00  0.00    +0.000 C 
ATOM     29  C   UNL     1       2.383   6.168  18.812  0.00  0.00    +0.000 C 
ATOM     30  C   UNL     1       2.190   5.700  20.229  0.00  0.00    +0.000 C 
ATOM     31  C   UNL     1       2.456   5.317  17.767  0.00  0.00    +0.000 C 
ENDBRANCH  27  31
ENDBRANCH  26  27
ENDBRANCH  23  26
ENDBRANCH  22  25
ENDBRANCH  21  22
ENDBRANCH  18  21
ENDBRANCH  17  20
ENDBRANCH   1  17
TORSDOF 10
ENDMDL
MODEL 7
REMARK VINA RESULT:      -7.4      2.456      4.488
REMARK  Name = 
REMARK  17 active torsions:
REMARK  status: ('A' for Active; 'I' for Inactive)
REMARK    1  A    between atoms: C_1  and  C_2
REMARK    2  A    between atoms: C_2  and  C_3
REMARK    3  A    between atoms: C_4  and  C_5
REMARK    4  A    between atoms: C_5  and  C_6
REMARK    5  A    between atoms: C_6  and  C_7
REMARK    6  A    between atoms: C_7  and  C_8
REMARK    7  A    between atoms: C_9  and  C_10
REMARK    8  A    between atoms: C_10  and  C_11
REMARK    9  A    between atoms: C_11  and  C_12
REMARK   10  A    between atoms: C_12  and  C_13
REMARK   11  A    between atoms: C_14  and  C_15
REMARK   12  A    between atoms: C_15  and  C_16
REMARK   13  A    between atoms: C_16  and  C_17
REMARK   14  A    between atoms: C_17  and  C_18
REMARK   15  A    between atoms: C_23  and  O_24
REMARK   16  A    between atoms: C_25  and  C_26
REMARK   17  A    between atoms: C_27  and  C_28
REMARK                            x       y       z     vdW  Elec       q    Type
REMARK                         _______ _______ _______ _____ _____    ______ ____
ROOT
ATOM      1  C   UNL     1       2.165   8.780  17.866  0.00  0.00    +0.000 C 
ENDROOT
BRANCH   1   2
ATOM      2  C   UNL     1       1.193   9.778  18.561  0.00  0.00    +0.000 C 
ATOM      3  C   UNL     1       1.142   9.501  20.082  0.00  0.00    +0.000 C 
ATOM      4  C   UNL     1      -0.192   9.656  17.908  0.00  0.00    +0.000 C 
ATOM      5  C   UNL     1      -1.164  10.652  18.526  0.00  0.00    +0.000 C 
ATOM      6  C   UNL     1      -0.508  11.985  18.752  0.00  0.00    +0.000 A 
ATOM      7  C   UNL     1      -1.286  13.074  19.153  0.00  0.00    +0.000 A 
ATOM      8  C   UNL     1      -0.689  14.312  19.382  0.00  0.00    +0.000 A 
ATOM      9  C   UNL     1       0.688  14.511  19.210  0.00  0.00    +0.000 A 
ATOM     10  C   UNL     1       1.299  15.865  19.454  0.00  0.00    +0.000 C 
ATOM     11  C   UNL     1       1.485  13.409  18.813  0.00  0.00    +0.000 A 
ATOM     12  C   UNL     1       2.975  13.529  18.600  0.00  0.00    +0.000 C 
ATOM     13  C   UNL     1       0.877  12.150  18.625  0.00  0.00    +0.000 A 
ATOM     14  O   UNL     1       1.713  11.101  18.325  0.00  0.00    +0.000 OA
BRANCH   8  15
ATOM     15  O   UNL     1      -1.466  15.361  19.796  0.00  0.00    +0.000 OA
ATOM     16  H   UNL     1      -1.905  15.751  19.022  0.00  0.00    +0.000 HD
ENDBRANCH   8  15
ENDBRANCH   1   2
BRANCH   1  17
ATOM     17  C   UNL     1       2.454   7.553  18.738  0.00  0.00    +0.000 C 
BRANCH  17  20
ATOM     18  C   UNL     1       2.706   5.058  18.529  0.00  0.00    +0.000 C 
ATOM     19  C   UNL     1       2.219   4.892  19.954  0.00  0.00    +0.000 C 
ATOM     20  C   UNL     1       2.790   6.292  17.983  0.00  0.00    +0.000 C 
BRANCH  18  21
ATOM     21  C   UNL     1       3.165   3.843  17.729  0.00  0.00    +0.000 C 
BRANCH  21  22
ATOM     22  C   UNL     1       4.586   3.966  17.177  0.00  0.00    +0.000 C 
BRANCH  22  25
ATOM     23  C   UNL     1       6.508   5.543  17.348  0.00  0.00    +0.000 C 
ATOM     24  C   UNL     1       6.635   5.522  15.840  0.00  0.00    +0.000 C 
ATOM     25  C   UNL     1       5.551   4.809  17.958  0.00  0.00    +0.000 C 
BRANCH  23  26
ATOM     26  C   UNL     1       7.459   6.373  18.189  0.00  0.00    +0.000 C 
BRANCH  26  27
ATOM     27  C   UNL     1       7.735   7.790  17.683  0.00  0.00    +0.000 C 
BRANCH  27  31
ATOM     28  C   UNL     1       9.675  10.577  19.589  0.00  0.00    +0.000 C 
ATOM     29  C   UNL     1       8.790   9.907  18.577  0.00  0.00    +0.000 C 
ATOM     30  C   UNL     1       8.087  10.791  17.581  0.00  0.00    +0.000 C 
ATOM     31  C   UNL     1       8.654   8.565  18.581  0.00  0.00    +0.000 C 
ENDBRANCH  27  31
ENDBRANCH  26  27
ENDBRANCH  23  26
ENDBRANCH  22  25
ENDBRANCH  21  22
ENDBRANCH  18  21
ENDBRANCH  17  20
ENDBRANCH   1  17
TORSDOF 10
ENDMDL
MODEL 8
REMARK VINA RESULT:      -7.4      1.343      1.923
REMARK  Name = 
REMARK  17 active torsions:
REMARK  status: ('A' for Active; 'I' for Inactive)
REMARK    1  A    between atoms: C_1  and  C_2
REMARK    2  A    between atoms: C_2  and  C_3
REMARK    3  A    between atoms: C_4  and  C_5
REMARK    4  A    between atoms: C_5  and  C_6
REMARK    5  A    between atoms: C_6  and  C_7
REMARK    6  A    between atoms: C_7  and  C_8
REMARK    7  A    between atoms: C_9  and  C_10
REMARK    8  A    between atoms: C_10  and  C_11
REMARK    9  A    between atoms: C_11  and  C_12
REMARK   10  A    between atoms: C_12  and  C_13
REMARK   11  A    between atoms: C_14  and  C_15
REMARK   12  A    between atoms: C_15  and  C_16
REMARK   13  A    between atoms: C_16  and  C_17
REMARK   14  A    between atoms: C_17  and  C_18
REMARK   15  A    between atoms: C_23  and  O_24
REMARK   16  A    between atoms: C_25  and  C_26
REMARK   17  A    between atoms: C_27  and  C_28
REMARK                            x       y       z     vdW  Elec       q    Type
REMARK                         _______ _______ _______ _____ _____    ______ ____
ROOT
ATOM      1  C   UNL     1       1.522  10.203  19.295  0.00  0.00    +0.000 C 
ENDROOT
BRANCH   1   2
ATOM      2  C   UNL     1       0.340  11.203  19.458  0.00  0.00    +0.000 C 
ATOM      3  C   UNL     1       0.701  12.563  18.813  0.00  0.00    +0.000 C 
ATOM      4  C   UNL     1       0.014  11.344  20.952  0.00  0.00    +0.000 C 
ATOM      5  C   UNL     1      -1.171  12.278  21.154  0.00  0.00    +0.000 C 
ATOM      6  C   UNL     1      -2.241  12.032  20.128  0.00  0.00    +0.000 A 
ATOM      7  C   UNL     1      -3.474  12.675  20.255  0.00  0.00    +0.000 A 
ATOM      8  C   UNL     1      -4.470  12.470  19.302  0.00  0.00    +0.000 A 
ATOM      9  C   UNL     1      -4.279  11.616  18.207  0.00  0.00    +0.000 A 
ATOM     10  C   UNL     1      -5.381  11.405  17.203  0.00  0.00    +0.000 C 
ATOM     11  C   UNL     1      -3.027  10.967  18.066  0.00  0.00    +0.000 A 
ATOM     12  C   UNL     1      -2.731  10.029  16.922  0.00  0.00    +0.000 C 
ATOM     13  C   UNL     1      -2.011  11.216  19.013  0.00  0.00    +0.000 A 
ATOM     14  O   UNL     1      -0.792  10.628  18.778  0.00  0.00    +0.000 OA
BRANCH   8  15
ATOM     15  O   UNL     1      -5.665  13.127  19.432  0.00  0.00    +0.000 OA
ATOM     16  H   UNL     1      -5.937  13.459  18.561  0.00  0.00    +0.000 HD
ENDBRANCH   8  15
ENDBRANCH   1   2
BRANCH   1  17
ATOM     17  C   UNL     1       1.281   9.203  18.158  0.00  0.00    +0.000 C 
BRANCH  17  20
ATOM     18  C   UNL     1       2.677   7.219  18.829  0.00  0.00    +0.000 C 
ATOM     19  C   UNL     1       1.858   7.075  20.096  0.00  0.00    +0.000 C 
ATOM     20  C   UNL     1       2.381   8.195  17.942  0.00  0.00    +0.000 C 
BRANCH  18  21
ATOM     21  C   UNL     1       3.873   6.307  18.581  0.00  0.00    +0.000 C 
BRANCH  21  22
ATOM     22  C   UNL     1       4.660   6.649  17.314  0.00  0.00    +0.000 C 
BRANCH  22  25
ATOM     23  C   UNL     1       5.965   4.804  16.263  0.00  0.00    +0.000 C 
ATOM     24  C   UNL     1       7.089   5.067  17.241  0.00  0.00    +0.000 C 
ATOM     25  C   UNL     1       4.840   5.552  16.306  0.00  0.00    +0.000 C 
BRANCH  23  26
ATOM     26  C   UNL     1       6.093   3.712  15.218  0.00  0.00    +0.000 C 
BRANCH  26  27
ATOM     27  C   UNL     1       6.119   4.179  13.762  0.00  0.00    +0.000 C 
BRANCH  27  31
ATOM     28  C   UNL     1       6.257   1.614  10.835  0.00  0.00    +0.000 C 
ATOM     29  C   UNL     1       5.728   2.650  11.787  0.00  0.00    +0.000 C 
ATOM     30  C   UNL     1       4.328   3.149  11.555  0.00  0.00    +0.000 C 
ATOM     31  C   UNL     1       6.499   3.090  12.802  0.00  0.00    +0.000 C 
ENDBRANCH  27  31
ENDBRANCH  26  27
ENDBRANCH  23  26
ENDBRANCH  22  25
ENDBRANCH  21  22
ENDBRANCH  18  21
ENDBRANCH  17  20
ENDBRANCH   1  17
TORSDOF 10
ENDMDL
MODEL 9
REMARK VINA RESULT:      -7.4      1.988      3.901
REMARK  Name = 
REMARK  17 active torsions:
REMARK  status: ('A' for Active; 'I' for Inactive)
REMARK    1  A    between atoms: C_1  and  C_2
REMARK    2  A    between atoms: C_2  and  C_3
REMARK    3  A    between atoms: C_4  and  C_5
REMARK    4  A    between atoms: C_5  and  C_6
REMARK    5  A    between atoms: C_6  and  C_7
REMARK    6  A    between atoms: C_7  and  C_8
REMARK    7  A    between atoms: C_9  and  C_10
REMARK    8  A    between atoms: C_10  and  C_11
REMARK    9  A    between atoms: C_11  and  C_12
REMARK   10  A    between atoms: C_12  and  C_13
REMARK   11  A    between atoms: C_14  and  C_15
REMARK   12  A    between atoms: C_15  and  C_16
REMARK   13  A    between atoms: C_16  and  C_17
REMARK   14  A    between atoms: C_17  and  C_18
REMARK   15  A    between atoms: C_23  and  O_24
REMARK   16  A    between atoms: C_25  and  C_26
REMARK   17  A    between atoms: C_27  and  C_28
REMARK                            x       y       z     vdW  Elec       q    Type
REMARK                         _______ _______ _______ _____ _____    ______ ____
ROOT
ATOM      1  C   UNL     1       2.390   8.535  18.188  0.00  0.00    +0.000 C 
ENDROOT
BRANCH   1   2
ATOM      2  C   UNL     1       1.490   9.729  18.623  0.00  0.00    +0.000 C 
ATOM      3  C   UNL     1       2.085  11.061  18.106  0.00  0.00    +0.000 C 
ATOM      4  C   UNL     1       1.355   9.715  20.153  0.00  0.00    +0.000 C 
ATOM      5  C   UNL     1       0.441  10.839  20.619  0.00  0.00    +0.000 C 
ATOM      6  C   UNL     1      -0.754  10.979  19.718  0.00  0.00    +0.000 A 
ATOM      7  C   UNL     1      -1.790  11.844  20.081  0.00  0.00    +0.000 A 
ATOM      8  C   UNL     1      -2.897  11.996  19.247  0.00  0.00    +0.000 A 
ATOM      9  C   UNL     1      -3.015  11.291  18.041  0.00  0.00    +0.000 A 
ATOM     10  C   UNL     1      -4.231  11.469  17.171  0.00  0.00    +0.000 C 
ATOM     11  C   UNL     1      -1.965  10.419  17.662  0.00  0.00    +0.000 A 
ATOM     12  C   UNL     1      -2.006   9.618  16.384  0.00  0.00    +0.000 C 
ATOM     13  C   UNL     1      -0.829  10.306  18.492  0.00  0.00    +0.000 A 
ATOM     14  O   UNL     1       0.194   9.513  18.031  0.00  0.00    +0.000 OA
BRANCH   8  15
ATOM     15  O   UNL     1      -3.891  12.865  19.611  0.00  0.00    +0.000 OA
ATOM     16  H   UNL     1      -4.751  12.440  19.455  0.00  0.00    +0.000 HD
ENDBRANCH   8  15
ENDBRANCH   1   2
BRANCH   1  17
ATOM     17  C   UNL     1       1.689   7.185  18.373  0.00  0.00    +0.000 C 
BRANCH  17  20
ATOM     18  C   UNL     1       3.218   5.190  18.238  0.00  0.00    +0.000 C 
ATOM     19  C   UNL     1       3.587   5.379  19.695  0.00  0.00    +0.000 C 
ATOM     20  C   UNL     1       2.327   6.023  17.654  0.00  0.00    +0.000 C 
BRANCH  18  21
ATOM     21  C   UNL     1       3.894   4.104  17.409  0.00  0.00    +0.000 C 
BRANCH  21  22
ATOM     22  C   UNL     1       5.241   4.525  16.818  0.00  0.00    +0.000 C 
BRANCH  22  25
ATOM     23  C   UNL     1       6.473   6.524  17.652  0.00  0.00    +0.000 C 
ATOM     24  C   UNL     1       7.207   5.639  18.635  0.00  0.00    +0.000 C 
ATOM     25  C   UNL     1       5.555   5.992  16.814  0.00  0.00    +0.000 C 
BRANCH  23  26
ATOM     26  C   UNL     1       6.746   8.016  17.606  0.00  0.00    +0.000 C 
BRANCH  26  27
ATOM     27  C   UNL     1       8.217   8.423  17.501  0.00  0.00    +0.000 C 
BRANCH  27  31
ATOM     28  C   UNL     1       9.558  10.731  20.336  0.00  0.00    +0.000 C 
ATOM     29  C   UNL     1       9.107  10.272  18.978  0.00  0.00    +0.000 C 
ATOM     30  C   UNL     1       9.065  11.300  17.880  0.00  0.00    +0.000 C 
ATOM     31  C   UNL     1       8.764   8.982  18.781  0.00  0.00    +0.000 C 
ENDBRANCH  27  31
ENDBRANCH  26  27
ENDBRANCH  23  26
ENDBRANCH  22  25
ENDBRANCH  21  22
ENDBRANCH  18  21
ENDBRANCH  17  20
ENDBRANCH   1  17
TORSDOF 10
ENDMDL
