MODEL 1
REMARK VINA RESULT:      -7.9      0.000      0.000
REMARK  Name = 
REMARK  2 active torsions:
REMARK  status: ('A' for Active; 'I' for Inactive)
REMARK    1  A    between atoms: C_4  and  N_5
REMARK    2  A    between atoms: N_11  and  C_12
REMARK                            x       y       z     vdW  Elec       q    Type
REMARK                         _______ _______ _______ _____ _____    ______ ____
ROOT
ATOM      1  N   UNL     1       6.209   5.583  15.628  0.00  0.00    +0.000 N 
ATOM      2  C   UNL     1       5.138   6.559  15.926  0.00  0.00    +0.000 C 
ATOM      3  C   UNL     1       5.254   6.694  17.480  0.00  0.00    +0.000 C 
ATOM      4  C   UNL     1       6.773   6.568  17.653  0.00  0.00    +0.000 C 
ATOM      5  C   UNL     1       6.824   5.217  16.926  0.00  0.00    +0.000 C 
ATOM      6  C   UNL     1       5.806   4.400  17.781  0.00  0.00    +0.000 C 
ATOM      7  N   UNL     1       4.799   5.437  18.115  0.00  0.00    +0.000 N 
ENDROOT
BRANCH   7   8
ATOM      8  C   UNL     1       3.664   5.203  18.843  0.00  0.00    +0.000 A 
ATOM      9  C   UNL     1       3.115   6.163  19.712  0.00  0.00    +0.000 A 
ATOM     10  C   UNL     1       1.952   5.933  20.465  0.00  0.00    +0.000 A 
ATOM     11  N   UNL     1       1.196   4.815  20.494  0.00  0.00    +0.000 NA
ATOM     12  C   UNL     1       1.666   3.824  19.683  0.00  0.00    +0.000 A 
ATOM     13  N   UNL     1       1.058   2.642  19.588  0.00  0.00    +0.000 NA
ATOM     14  S   UNL     1       1.969   1.766  18.516  0.00  0.00    +0.000 S 
ATOM     15  N   UNL     1       3.161   2.861  18.144  0.00  0.00    +0.000 NA
ATOM     16  C   UNL     1       2.897   3.987  18.845  0.00  0.00    +0.000 A 
ENDBRANCH   7   8
BRANCH   1  20
ATOM     17  C   UNL     1       6.755   3.641  11.933  0.00  0.00    +0.000 A 
ATOM     18  C   UNL     1       5.662   3.333  12.732  0.00  0.00    +0.000 A 
ATOM     19  C   UNL     1       5.484   3.979  13.964  0.00  0.00    +0.000 A 
ATOM     20  C   UNL     1       6.392   4.940  14.435  0.00  0.00    +0.000 A 
ATOM     21  C   UNL     1       7.478   5.235  13.596  0.00  0.00    +0.000 A 
ATOM     22  C   UNL     1       7.663   4.598  12.365  0.00  0.00    +0.000 A 
ENDBRANCH   1  20
TORSDOF 2
ENDMDL
MODEL 2
REMARK VINA RESULT:      -7.8      0.026      1.020
REMARK  Name = 
REMARK  2 active torsions:
REMARK  status: ('A' for Active; 'I' for Inactive)
REMARK    1  A    between atoms: C_4  and  N_5
REMARK    2  A    between atoms: N_11  and  C_12
REMARK                            x       y       z     vdW  Elec       q    Type
REMARK                         _______ _______ _______ _____ _____    ______ ____
ROOT
ATOM      1  N   UNL     1       6.201   5.585  15.631  0.00  0.00    +0.000 N 
ATOM      2  C   UNL     1       5.149   6.575  15.951  0.00  0.00    +0.000 C 
ATOM      3  C   UNL     1       5.272   6.679  17.507  0.00  0.00    +0.000 C 
ATOM      4  C   UNL     1       6.790   6.523  17.671  0.00  0.00    +0.000 C 
ATOM      5  C   UNL     1       6.815   5.185  16.920  0.00  0.00    +0.000 C 
ATOM      6  C   UNL     1       5.786   4.370  17.763  0.00  0.00    +0.000 C 
ATOM      7  N   UNL     1       4.798   5.417  18.120  0.00  0.00    +0.000 N 
ENDROOT
BRANCH   7   8
ATOM      8  C   UNL     1       3.662   5.190  18.848  0.00  0.00    +0.000 A 
ATOM      9  C   UNL     1       3.120   6.152  19.720  0.00  0.00    +0.000 A 
ATOM     10  C   UNL     1       1.956   5.928  20.473  0.00  0.00    +0.000 A 
ATOM     11  N   UNL     1       1.192   4.814  20.500  0.00  0.00    +0.000 NA
ATOM     12  C   UNL     1       1.654   3.823  19.686  0.00  0.00    +0.000 A 
ATOM     13  N   UNL     1       1.038   2.645  19.588  0.00  0.00    +0.000 NA
ATOM     14  S   UNL     1       1.942   1.766  18.513  0.00  0.00    +0.000 S 
ATOM     15  N   UNL     1       3.142   2.854  18.143  0.00  0.00    +0.000 NA
ATOM     16  C   UNL     1       2.886   3.980  18.848  0.00  0.00    +0.000 A 
ENDBRANCH   7   8
BRANCH   1  20
ATOM     17  C   UNL     1       6.736   3.628  11.943  0.00  0.00    +0.000 A 
ATOM     18  C   UNL     1       7.658   4.572  12.375  0.00  0.00    +0.000 A 
ATOM     19  C   UNL     1       7.476   5.225  13.602  0.00  0.00    +0.000 A 
ATOM     20  C   UNL     1       6.369   4.962  14.426  0.00  0.00    +0.000 A 
ATOM     21  C   UNL     1       5.465   3.994  13.962  0.00  0.00    +0.000 A 
ATOM     22  C   UNL     1       5.638   3.335  12.741  0.00  0.00    +0.000 A 
ENDBRANCH   1  20
TORSDOF 2
ENDMDL
MODEL 3
REMARK VINA RESULT:      -7.6      1.095      1.095
REMARK  Name = 
REMARK  2 active torsions:
REMARK  status: ('A' for Active; 'I' for Inactive)
REMARK    1  A    between atoms: C_4  and  N_5
REMARK    2  A    between atoms: N_11  and  C_12
REMARK                            x       y       z     vdW  Elec       q    Type
REMARK                         _______ _______ _______ _____ _____    ______ ____
ROOT
ATOM      1  N   UNL     1       6.334   5.630  15.444  0.00  0.00    +0.000 N 
ATOM      2  C   UNL     1       5.234   6.553  15.800  0.00  0.00    +0.000 C 
ATOM      3  C   UNL     1       5.500   6.792  17.323  0.00  0.00    +0.000 C 
ATOM      4  C   UNL     1       7.035   6.773  17.339  0.00  0.00    +0.000 C 
ATOM      5  C   UNL     1       7.104   5.385  16.687  0.00  0.00    +0.000 C 
ATOM      6  C   UNL     1       6.238   4.561  17.690  0.00  0.00    +0.000 C 
ATOM      7  N   UNL     1       5.202   5.550  18.072  0.00  0.00    +0.000 N 
ENDROOT
BRANCH   7   8
ATOM      8  C   UNL     1       4.167   5.291  18.929  0.00  0.00    +0.000 A 
ATOM      9  C   UNL     1       3.150   6.228  19.188  0.00  0.00    +0.000 A 
ATOM     10  C   UNL     1       2.085   5.973  20.067  0.00  0.00    +0.000 A 
ATOM     11  N   UNL     1       1.858   4.852  20.785  0.00  0.00    +0.000 NA
ATOM     12  C   UNL     1       2.807   3.891  20.599  0.00  0.00    +0.000 A 
ATOM     13  N   UNL     1       2.758   2.719  21.232  0.00  0.00    +0.000 NA
ATOM     14  S   UNL     1       4.097   1.887  20.718  0.00  0.00    +0.000 S 
ATOM     15  N   UNL     1       4.777   2.991  19.680  0.00  0.00    +0.000 NA
ATOM     16  C   UNL     1       3.974   4.080  19.678  0.00  0.00    +0.000 A 
ENDBRANCH   7   8
BRANCH   1  20
ATOM     17  C   UNL     1       6.635   3.502  11.824  0.00  0.00    +0.000 A 
ATOM     18  C   UNL     1       5.572   3.270  12.687  0.00  0.00    +0.000 A 
ATOM     19  C   UNL     1       5.476   3.977  13.894  0.00  0.00    +0.000 A 
ATOM     20  C   UNL     1       6.438   4.926  14.276  0.00  0.00    +0.000 A 
ATOM     21  C   UNL     1       7.490   5.144  13.373  0.00  0.00    +0.000 A 
ATOM     22  C   UNL     1       7.594   4.445  12.166  0.00  0.00    +0.000 A 
ENDBRANCH   1  20
TORSDOF 2
ENDMDL
MODEL 4
REMARK VINA RESULT:      -7.6      1.186      1.595
REMARK  Name = 
REMARK  2 active torsions:
REMARK  status: ('A' for Active; 'I' for Inactive)
REMARK    1  A    between atoms: C_4  and  N_5
REMARK    2  A    between atoms: N_11  and  C_12
REMARK                            x       y       z     vdW  Elec       q    Type
REMARK                         _______ _______ _______ _____ _____    ______ ____
ROOT
ATOM      1  N   UNL     1       6.857   5.281  15.963  0.00  0.00    +0.000 N 
ATOM      2  C   UNL     1       6.346   6.567  16.488  0.00  0.00    +0.000 C 
ATOM      3  C   UNL     1       6.352   6.306  18.030  0.00  0.00    +0.000 C 
ATOM      4  C   UNL     1       7.607   5.433  18.155  0.00  0.00    +0.000 C 
ATOM      5  C   UNL     1       7.091   4.406  17.136  0.00  0.00    +0.000 C 
ATOM      6  C   UNL     1       5.727   4.024  17.790  0.00  0.00    +0.000 C 
ATOM      7  N   UNL     1       5.297   5.322  18.363  0.00  0.00    +0.000 N 
ENDROOT
BRANCH   7   8
ATOM      8  C   UNL     1       4.118   5.519  19.029  0.00  0.00    +0.000 A 
ATOM      9  C   UNL     1       3.437   6.750  19.010  0.00  0.00    +0.000 A 
ATOM     10  C   UNL     1       2.228   6.963  19.691  0.00  0.00    +0.000 A 
ATOM     11  N   UNL     1       1.540   6.080  20.447  0.00  0.00    +0.000 NA
ATOM     12  C   UNL     1       2.138   4.857  20.527  0.00  0.00    +0.000 A 
ATOM     13  N   UNL     1       1.613   3.859  21.237  0.00  0.00    +0.000 NA
ATOM     14  S   UNL     1       2.666   2.593  21.058  0.00  0.00    +0.000 S 
ATOM     15  N   UNL     1       3.819   3.274  20.076  0.00  0.00    +0.000 NA
ATOM     16  C   UNL     1       3.427   4.545  19.830  0.00  0.00    +0.000 A 
ENDBRANCH   7   8
BRANCH   1  20
ATOM     17  C   UNL     1       6.823   4.043  11.940  0.00  0.00    +0.000 A 
ATOM     18  C   UNL     1       7.712   5.022  12.364  0.00  0.00    +0.000 A 
ATOM     19  C   UNL     1       7.718   5.435  13.704  0.00  0.00    +0.000 A 
ATOM     20  C   UNL     1       6.837   4.891  14.653  0.00  0.00    +0.000 A 
ATOM     21  C   UNL     1       5.963   3.896  14.191  0.00  0.00    +0.000 A 
ATOM     22  C   UNL     1       5.949   3.475  12.857  0.00  0.00    +0.000 A 
ENDBRANCH   1  20
TORSDOF 2
ENDMDL
MODEL 5
REMARK VINA RESULT:      -7.6      1.597      2.050
REMARK  Name = 
REMARK  2 active torsions:
REMARK  status: ('A' for Active; 'I' for Inactive)
REMARK    1  A    between atoms: C_4  and  N_5
REMARK    2  A    between atoms: N_11  and  C_12
REMARK                            x       y       z     vdW  Elec       q    Type
REMARK                         _______ _______ _______ _____ _____    ______ ____
ROOT
ATOM      1  N   UNL     1       6.443   5.493  15.594  0.00  0.00    +0.000 N 
ATOM      2  C   UNL     1       5.275   6.274  16.056  0.00  0.00    +0.000 C 
ATOM      3  C   UNL     1       5.562   6.398  17.589  0.00  0.00    +0.000 C 
ATOM      4  C   UNL     1       7.091   6.520  17.572  0.00  0.00    +0.000 C 
ATOM      5  C   UNL     1       7.267   5.208  16.793  0.00  0.00    +0.000 C 
ATOM      6  C   UNL     1       6.508   4.220  17.732  0.00  0.00    +0.000 C 
ATOM      7  N   UNL     1       5.398   5.071  18.225  0.00  0.00    +0.000 N 
ENDROOT
BRANCH   7   8
ATOM      8  C   UNL     1       4.416   4.642  19.076  0.00  0.00    +0.000 A 
ATOM      9  C   UNL     1       4.336   3.311  19.525  0.00  0.00    +0.000 A 
ATOM     10  C   UNL     1       3.331   2.859  20.396  0.00  0.00    +0.000 A 
ATOM     11  N   UNL     1       2.316   3.575  20.926  0.00  0.00    +0.000 NA
ATOM     12  C   UNL     1       2.313   4.880  20.532  0.00  0.00    +0.000 A 
ATOM     13  N   UNL     1       1.381   5.740  20.944  0.00  0.00    +0.000 NA
ATOM     14  S   UNL     1       1.761   7.180  20.218  0.00  0.00    +0.000 S 
ATOM     15  N   UNL     1       3.117   6.754  19.359  0.00  0.00    +0.000 NA
ATOM     16  C   UNL     1       3.348   5.444  19.608  0.00  0.00    +0.000 A 
ENDBRANCH   7   8
BRANCH   1  20
ATOM     17  C   UNL     1       6.830   3.738  11.787  0.00  0.00    +0.000 A 
ATOM     18  C   UNL     1       5.818   3.331  12.646  0.00  0.00    +0.000 A 
ATOM     19  C   UNL     1       5.694   3.914  13.916  0.00  0.00    +0.000 A 
ATOM     20  C   UNL     1       6.576   4.910  14.363  0.00  0.00    +0.000 A 
ATOM     21  C   UNL     1       7.577   5.305  13.464  0.00  0.00    +0.000 A 
ATOM     22  C   UNL     1       7.709   4.731  12.195  0.00  0.00    +0.000 A 
ENDBRANCH   1  20
TORSDOF 2
ENDMDL
MODEL 6
REMARK VINA RESULT:      -7.6      1.589      2.288
REMARK  Name = 
REMARK  2 active torsions:
REMARK  status: ('A' for Active; 'I' for Inactive)
REMARK    1  A    between atoms: C_4  and  N_5
REMARK    2  A    between atoms: N_11  and  C_12
REMARK                            x       y       z     vdW  Elec       q    Type
REMARK                         _______ _______ _______ _____ _____    ______ ____
ROOT
ATOM      1  N   UNL     1       6.390   5.517  15.526  0.00  0.00    +0.000 N 
ATOM      2  C   UNL     1       5.207   6.268  16.002  0.00  0.00    +0.000 C 
ATOM      3  C   UNL     1       5.513   6.408  17.529  0.00  0.00    +0.000 C 
ATOM      4  C   UNL     1       7.038   6.573  17.489  0.00  0.00    +0.000 C 
ATOM      5  C   UNL     1       7.240   5.263  16.714  0.00  0.00    +0.000 C 
ATOM      6  C   UNL     1       6.523   4.259  17.670  0.00  0.00    +0.000 C 
ATOM      7  N   UNL     1       5.397   5.081  18.175  0.00  0.00    +0.000 N 
ENDROOT
BRANCH   7   8
ATOM      8  C   UNL     1       4.440   4.628  19.042  0.00  0.00    +0.000 A 
ATOM      9  C   UNL     1       4.390   3.293  19.480  0.00  0.00    +0.000 A 
ATOM     10  C   UNL     1       3.412   2.817  20.368  0.00  0.00    +0.000 A 
ATOM     11  N   UNL     1       2.398   3.513  20.928  0.00  0.00    +0.000 NA
ATOM     12  C   UNL     1       2.367   4.822  20.547  0.00  0.00    +0.000 A 
ATOM     13  N   UNL     1       1.431   5.663  20.988  0.00  0.00    +0.000 NA
ATOM     14  S   UNL     1       1.774   7.115  20.268  0.00  0.00    +0.000 S 
ATOM     15  N   UNL     1       3.117   6.718  19.376  0.00  0.00    +0.000 NA
ATOM     16  C   UNL     1       3.373   5.410  19.606  0.00  0.00    +0.000 A 
ENDBRANCH   7   8
BRANCH   1  20
ATOM     17  C   UNL     1       6.815   3.678  11.763  0.00  0.00    +0.000 A 
ATOM     18  C   UNL     1       7.705   4.665  12.165  0.00  0.00    +0.000 A 
ATOM     19  C   UNL     1       7.559   5.278  13.418  0.00  0.00    +0.000 A 
ATOM     20  C   UNL     1       6.521   4.931  14.297  0.00  0.00    +0.000 A 
ATOM     21  C   UNL     1       5.649   3.922  13.862  0.00  0.00    +0.000 A 
ATOM     22  C   UNL     1       5.786   3.303  12.616  0.00  0.00    +0.000 A 
ENDBRANCH   1  20
TORSDOF 2
ENDMDL
MODEL 7
REMARK VINA RESULT:      -7.5      1.130      1.521
REMARK  Name = 
REMARK  2 active torsions:
REMARK  status: ('A' for Active; 'I' for Inactive)
REMARK    1  A    between atoms: C_4  and  N_5
REMARK    2  A    between atoms: N_11  and  C_12
REMARK                            x       y       z     vdW  Elec       q    Type
REMARK                         _______ _______ _______ _____ _____    ______ ____
ROOT
ATOM      1  N   UNL     1       6.308   5.572  15.485  0.00  0.00    +0.000 N 
ATOM      2  C   UNL     1       5.223   6.496  15.882  0.00  0.00    +0.000 C 
ATOM      3  C   UNL     1       5.501   6.673  17.411  0.00  0.00    +0.000 C 
ATOM      4  C   UNL     1       7.035   6.634  17.417  0.00  0.00    +0.000 C 
ATOM      5  C   UNL     1       7.082   5.271  16.712  0.00  0.00    +0.000 C 
ATOM      6  C   UNL     1       6.211   4.420  17.689  0.00  0.00    +0.000 C 
ATOM      7  N   UNL     1       5.190   5.408  18.115  0.00  0.00    +0.000 N 
ENDROOT
BRANCH   7   8
ATOM      8  C   UNL     1       4.157   5.130  18.968  0.00  0.00    +0.000 A 
ATOM      9  C   UNL     1       3.109   6.038  19.203  0.00  0.00    +0.000 A 
ATOM     10  C   UNL     1       2.045   5.764  20.079  0.00  0.00    +0.000 A 
ATOM     11  N   UNL     1       1.848   4.648  20.813  0.00  0.00    +0.000 NA
ATOM     12  C   UNL     1       2.828   3.715  20.651  0.00  0.00    +0.000 A 
ATOM     13  N   UNL     1       2.811   2.552  21.302  0.00  0.00    +0.000 NA
ATOM     14  S   UNL     1       4.179   1.756  20.813  0.00  0.00    +0.000 S 
ATOM     15  N   UNL     1       4.833   2.863  19.762  0.00  0.00    +0.000 NA
ATOM     16  C   UNL     1       3.996   3.926  19.736  0.00  0.00    +0.000 A 
ENDBRANCH   7   8
BRANCH   1  20
ATOM     17  C   UNL     1       6.595   3.505  11.829  0.00  0.00    +0.000 A 
ATOM     18  C   UNL     1       7.558   4.441  12.182  0.00  0.00    +0.000 A 
ATOM     19  C   UNL     1       7.458   5.131  13.399  0.00  0.00    +0.000 A 
ATOM     20  C   UNL     1       6.395   4.913  14.290  0.00  0.00    +0.000 A 
ATOM     21  C   UNL     1       5.449   3.951  13.906  0.00  0.00    +0.000 A 
ATOM     22  C   UNL     1       5.540   3.256  12.696  0.00  0.00    +0.000 A 
ENDBRANCH   1  20
TORSDOF 2
ENDMDL
MODEL 8
REMARK VINA RESULT:      -7.1      1.560      2.212
REMARK  Name = 
REMARK  2 active torsions:
REMARK  status: ('A' for Active; 'I' for Inactive)
REMARK    1  A    between atoms: C_4  and  N_5
REMARK    2  A    between atoms: N_11  and  C_12
REMARK                            x       y       z     vdW  Elec       q    Type
REMARK                         _______ _______ _______ _____ _____    ______ ____
ROOT
ATOM      1  N   UNL     1       6.838   4.951  15.499  0.00  0.00    +0.000 N 
ATOM      2  C   UNL     1       6.822   6.316  16.069  0.00  0.00    +0.000 C 
ATOM      3  C   UNL     1       6.515   6.028  17.575  0.00  0.00    +0.000 C 
ATOM      4  C   UNL     1       7.282   4.712  17.765  0.00  0.00    +0.000 C 
ATOM      5  C   UNL     1       6.539   4.020  16.613  0.00  0.00    +0.000 C 
ATOM      6  C   UNL     1       5.062   4.211  17.078  0.00  0.00    +0.000 C 
ATOM      7  N   UNL     1       5.118   5.553  17.707  0.00  0.00    +0.000 N 
ENDROOT
BRANCH   7   8
ATOM      8  C   UNL     1       4.040   6.195  18.252  0.00  0.00    +0.000 A 
ATOM      9  C   UNL     1       3.603   7.453  17.799  0.00  0.00    +0.000 A 
ATOM     10  C   UNL     1       2.499   8.122  18.353  0.00  0.00    +0.000 A 
ATOM     11  N   UNL     1       1.706   7.706  19.363  0.00  0.00    +0.000 NA
ATOM     12  C   UNL     1       2.067   6.493  19.870  0.00  0.00    +0.000 A 
ATOM     13  N   UNL     1       1.408   5.925  20.880  0.00  0.00    +0.000 NA
ATOM     14  S   UNL     1       2.192   4.493  21.163  0.00  0.00    +0.000 S 
ATOM     15  N   UNL     1       3.389   4.553  20.015  0.00  0.00    +0.000 NA
ATOM     16  C   UNL     1       3.229   5.713  19.336  0.00  0.00    +0.000 A 
ENDBRANCH   7   8
BRANCH   1  20
ATOM     17  C   UNL     1       6.871   3.967  11.406  0.00  0.00    +0.000 A 
ATOM     18  C   UNL     1       7.734   4.937  11.900  0.00  0.00    +0.000 A 
ATOM     19  C   UNL     1       7.718   5.265  13.264  0.00  0.00    +0.000 A 
ATOM     20  C   UNL     1       6.840   4.643  14.166  0.00  0.00    +0.000 A 
ATOM     21  C   UNL     1       5.992   3.661  13.633  0.00  0.00    +0.000 A 
ATOM     22  C   UNL     1       6.001   3.324  12.275  0.00  0.00    +0.000 A 
ENDBRANCH   1  20
TORSDOF 2
ENDMDL
MODEL 9
REMARK VINA RESULT:      -7.0      1.566      1.970
REMARK  Name = 
REMARK  2 active torsions:
REMARK  status: ('A' for Active; 'I' for Inactive)
REMARK    1  A    between atoms: C_4  and  N_5
REMARK    2  A    between atoms: N_11  and  C_12
REMARK                            x       y       z     vdW  Elec       q    Type
REMARK                         _______ _______ _______ _____ _____    ______ ____
ROOT
ATOM      1  N   UNL     1       6.890   4.952  15.521  0.00  0.00    +0.000 N 
ATOM      2  C   UNL     1       6.872   6.315  16.096  0.00  0.00    +0.000 C 
ATOM      3  C   UNL     1       6.553   6.021  17.599  0.00  0.00    +0.000 C 
ATOM      4  C   UNL     1       7.318   4.705  17.789  0.00  0.00    +0.000 C 
ATOM      5  C   UNL     1       6.583   4.017  16.630  0.00  0.00    +0.000 C 
ATOM      6  C   UNL     1       5.102   4.208  17.085  0.00  0.00    +0.000 C 
ATOM      7  N   UNL     1       5.155   5.548  17.718  0.00  0.00    +0.000 N 
ENDROOT
BRANCH   7   8
ATOM      8  C   UNL     1       4.073   6.189  18.258  0.00  0.00    +0.000 A 
ATOM      9  C   UNL     1       3.641   7.448  17.806  0.00  0.00    +0.000 A 
ATOM     10  C   UNL     1       2.533   8.116  18.355  0.00  0.00    +0.000 A 
ATOM     11  N   UNL     1       1.732   7.698  19.358  0.00  0.00    +0.000 NA
ATOM     12  C   UNL     1       2.089   6.483  19.863  0.00  0.00    +0.000 A 
ATOM     13  N   UNL     1       1.422   5.912  20.866  0.00  0.00    +0.000 NA
ATOM     14  S   UNL     1       2.202   4.478  21.150  0.00  0.00    +0.000 S 
ATOM     15  N   UNL     1       3.409   4.541  20.010  0.00  0.00    +0.000 NA
ATOM     16  C   UNL     1       3.254   5.703  19.335  0.00  0.00    +0.000 A 
ENDBRANCH   7   8
BRANCH   1  20
ATOM     17  C   UNL     1       6.899   4.059  11.407  0.00  0.00    +0.000 A 
ATOM     18  C   UNL     1       6.054   3.375  12.271  0.00  0.00    +0.000 A 
ATOM     19  C   UNL     1       6.056   3.671  13.641  0.00  0.00    +0.000 A 
ATOM     20  C   UNL     1       6.902   4.649  14.187  0.00  0.00    +0.000 A 
ATOM     21  C   UNL     1       7.733   5.328  13.283  0.00  0.00    +0.000 A 
ATOM     22  C   UNL     1       7.738   5.041  11.914  0.00  0.00    +0.000 A 
ENDBRANCH   1  20
TORSDOF 2
ENDMDL
