MODEL 1
REMARK VINA RESULT:      -6.4      0.000      0.000
REMARK  Name = 
REMARK  10 active torsions:
REMARK  status: ('A' for Active; 'I' for Inactive)
REMARK    1  A    between atoms: C_1  and  C_2
REMARK    2  A    between atoms: C_6  and  C_7
REMARK    3  A    between atoms: N_8  and  N_9
REMARK    4  A    between atoms: C_10  and  C_12
REMARK    5  A    between atoms: C_15  and  O_16
REMARK    6  A    between atoms: O_16  and  C_17
REMARK    7  A    between atoms: C_17  and  C_18
REMARK    8  A    between atoms: C_18  and  N_19
REMARK    9  A    between atoms: N_19  and  C_20
REMARK   10  A    between atoms: N_19  and  C_21
REMARK                            x       y       z     vdW  Elec       q    Type
REMARK                         _______ _______ _______ _____ _____    ______ ____
ROOT
ATOM      1  N   UNL     1       7.651   8.407  17.656  0.00  0.00    +0.000 N 
ATOM      2  C   UNL     1       7.633   7.147  18.229  0.00  0.00    +0.000 C 
ATOM      3  O   UNL     1       8.491   6.717  18.997  0.00  0.00    +0.000 OA
ATOM      4  H   UNL     1       6.993   8.685  16.940  0.00  0.00    +0.000 HD
ENDROOT
BRANCH   2   5
ATOM      5  C   UNL     1       6.517   6.251  17.836  0.00  0.00    +0.000 A 
ATOM      6  C   UNL     1       6.011   5.418  18.832  0.00  0.00    +0.000 A 
ATOM      7  C   UNL     1       4.956   4.556  18.561  0.00  0.00    +0.000 A 
ATOM      8  C   UNL     1       4.372   4.517  17.289  0.00  0.00    +0.000 A 
ATOM      9  C   UNL     1       4.874   5.355  16.291  0.00  0.00    +0.000 A 
ATOM     10  C   UNL     1       5.945   6.226  16.559  0.00  0.00    +0.000 A 
BRANCH   8  11
ATOM     11  O   UNL     1       3.316   3.705  16.940  0.00  0.00    +0.000 OA
BRANCH  11  12
ATOM     12  C   UNL     1       3.168   2.567  17.801  0.00  0.00    +0.000 C 
BRANCH  12  13
ATOM     13  C   UNL     1       1.745   2.410  18.348  0.00  0.00    +0.000 C 
BRANCH  13  14
ATOM     14  N   UNL     1       1.659   2.798  19.776  0.00  0.00    +0.000 NA
ATOM     15  C   UNL     1       2.907   2.557  20.504  0.00  0.00    +0.000 C 
ATOM     16  C   UNL     1       1.275   4.203  19.899  0.00  0.00    +0.000 C 
ENDBRANCH  13  14
ENDBRANCH  12  13
ENDBRANCH  11  12
ENDBRANCH   8  11
ENDBRANCH   2   5
BRANCH   1  18
ATOM     17  C   UNL     1       8.519  10.241  18.691  0.00  0.00    +0.000 C 
ATOM     18  N   UNL     1       8.713   9.201  17.951  0.00  0.00    +0.000 NA
BRANCH  17  24
ATOM     19  C   UNL     1       9.290  11.479  21.523  0.00  0.00    +0.000 C 
ATOM     20  C   UNL     1      10.006  11.669  20.219  0.00  0.00    +0.000 A 
ATOM     21  C   UNL     1      11.186  12.471  20.073  0.00  0.00    +0.000 A 
ATOM     22  C   UNL     1      11.660  12.486  18.781  0.00  0.00    +0.000 A 
ATOM     23  S   UNL     1      10.700  11.540  17.736  0.00  0.00    +0.000 S 
ATOM     24  C   UNL     1       9.635  11.106  19.002  0.00  0.00    +0.000 A 
ENDBRANCH  17  24
ENDBRANCH   1  18
TORSDOF 7
ENDMDL
MODEL 2
REMARK VINA RESULT:      -6.4      1.395      1.934
REMARK  Name = 
REMARK  10 active torsions:
REMARK  status: ('A' for Active; 'I' for Inactive)
REMARK    1  A    between atoms: C_1  and  C_2
REMARK    2  A    between atoms: C_6  and  C_7
REMARK    3  A    between atoms: N_8  and  N_9
REMARK    4  A    between atoms: C_10  and  C_12
REMARK    5  A    between atoms: C_15  and  O_16
REMARK    6  A    between atoms: O_16  and  C_17
REMARK    7  A    between atoms: C_17  and  C_18
REMARK    8  A    between atoms: C_18  and  N_19
REMARK    9  A    between atoms: N_19  and  C_20
REMARK   10  A    between atoms: N_19  and  C_21
REMARK                            x       y       z     vdW  Elec       q    Type
REMARK                         _______ _______ _______ _____ _____    ______ ____
ROOT
ATOM      1  N   UNL     1       7.546   8.005  18.174  0.00  0.00    +0.000 N 
ATOM      2  C   UNL     1       7.377   7.003  17.234  0.00  0.00    +0.000 C 
ATOM      3  O   UNL     1       7.905   6.990  16.123  0.00  0.00    +0.000 OA
ATOM      4  H   UNL     1       7.006   8.041  19.028  0.00  0.00    +0.000 HD
ENDROOT
BRANCH   2   5
ATOM      5  C   UNL     1       6.449   5.902  17.592  0.00  0.00    +0.000 A 
ATOM      6  C   UNL     1       6.040   5.072  16.549  0.00  0.00    +0.000 A 
ATOM      7  C   UNL     1       5.185   4.005  16.791  0.00  0.00    +0.000 A 
ATOM      8  C   UNL     1       4.726   3.735  18.086  0.00  0.00    +0.000 A 
ATOM      9  C   UNL     1       5.139   4.562  19.133  0.00  0.00    +0.000 A 
ATOM     10  C   UNL     1       6.001   5.646  18.893  0.00  0.00    +0.000 A 
BRANCH   8  11
ATOM     11  O   UNL     1       3.890   2.692  18.416  0.00  0.00    +0.000 OA
BRANCH  11  12
ATOM     12  C   UNL     1       2.503   3.057  18.421  0.00  0.00    +0.000 C 
BRANCH  12  13
ATOM     13  C   UNL     1       1.674   2.251  19.427  0.00  0.00    +0.000 C 
BRANCH  13  14
ATOM     14  N   UNL     1       1.366   3.040  20.643  0.00  0.00    +0.000 NA
ATOM     15  C   UNL     1       2.378   2.882  21.691  0.00  0.00    +0.000 C 
ATOM     16  C   UNL     1       1.215   4.454  20.308  0.00  0.00    +0.000 C 
ENDBRANCH  13  14
ENDBRANCH  12  13
ENDBRANCH  11  12
ENDBRANCH   8  11
ENDBRANCH   2   5
BRANCH   1  18
ATOM     17  C   UNL     1       8.585   9.963  18.700  0.00  0.00    +0.000 C 
ATOM     18  N   UNL     1       8.331   9.055  17.818  0.00  0.00    +0.000 NA
BRANCH  17  24
ATOM     19  C   UNL     1       7.704  12.566  17.090  0.00  0.00    +0.000 C 
ATOM     20  C   UNL     1       9.065  12.246  17.634  0.00  0.00    +0.000 A 
ATOM     21  C   UNL     1      10.199  13.113  17.490  0.00  0.00    +0.000 A 
ATOM     22  C   UNL     1      11.334  12.602  18.077  0.00  0.00    +0.000 A 
ATOM     23  S   UNL     1      11.051  11.085  18.805  0.00  0.00    +0.000 S 
ATOM     24  C   UNL     1       9.406  11.095  18.335  0.00  0.00    +0.000 A 
ENDBRANCH  17  24
ENDBRANCH   1  18
TORSDOF 7
ENDMDL
MODEL 3
REMARK VINA RESULT:      -6.2      6.748      8.746
REMARK  Name = 
REMARK  10 active torsions:
REMARK  status: ('A' for Active; 'I' for Inactive)
REMARK    1  A    between atoms: C_1  and  C_2
REMARK    2  A    between atoms: C_6  and  C_7
REMARK    3  A    between atoms: N_8  and  N_9
REMARK    4  A    between atoms: C_10  and  C_12
REMARK    5  A    between atoms: C_15  and  O_16
REMARK    6  A    between atoms: O_16  and  C_17
REMARK    7  A    between atoms: C_17  and  C_18
REMARK    8  A    between atoms: C_18  and  N_19
REMARK    9  A    between atoms: N_19  and  C_20
REMARK   10  A    between atoms: N_19  and  C_21
REMARK                            x       y       z     vdW  Elec       q    Type
REMARK                         _______ _______ _______ _____ _____    ______ ____
ROOT
ATOM      1  N   UNL     1       2.678   7.371  18.855  0.00  0.00    +0.000 N 
ATOM      2  C   UNL     1       2.015   8.553  18.574  0.00  0.00    +0.000 C 
ATOM      3  O   UNL     1       2.108   9.171  17.514  0.00  0.00    +0.000 OA
ATOM      4  H   UNL     1       2.669   6.953  19.777  0.00  0.00    +0.000 HD
ENDROOT
BRANCH   2   5
ATOM      5  C   UNL     1       1.179   9.124  19.658  0.00  0.00    +0.000 A 
ATOM      6  C   UNL     1       1.244   8.482  20.894  0.00  0.00    +0.000 A 
ATOM      7  C   UNL     1       0.509   8.955  21.974  0.00  0.00    +0.000 A 
ATOM      8  C   UNL     1      -0.300  10.090  21.846  0.00  0.00    +0.000 A 
ATOM      9  C   UNL     1      -0.362  10.739  20.610  0.00  0.00    +0.000 A 
ATOM     10  C   UNL     1       0.376  10.261  19.514  0.00  0.00    +0.000 A 
BRANCH   8  11
ATOM     11  O   UNL     1      -1.048  10.633  22.867  0.00  0.00    +0.000 OA
BRANCH  11  12
ATOM     12  C   UNL     1      -1.741  11.831  22.486  0.00  0.00    +0.000 C 
BRANCH  12  13
ATOM     13  C   UNL     1      -2.889  12.188  23.437  0.00  0.00    +0.000 C 
BRANCH  13  14
ATOM     14  N   UNL     1      -3.870  13.097  22.798  0.00  0.00    +0.000 NA
ATOM     15  C   UNL     1      -4.072  12.802  21.376  0.00  0.00    +0.000 C 
ATOM     16  C   UNL     1      -5.149  13.042  23.503  0.00  0.00    +0.000 C 
ENDBRANCH  13  14
ENDBRANCH  12  13
ENDBRANCH  11  12
ENDBRANCH   8  11
ENDBRANCH   2   5
BRANCH   1  18
ATOM     17  C   UNL     1       4.390   6.007  18.228  0.00  0.00    +0.000 C 
ATOM     18  N   UNL     1       3.507   6.888  17.895  0.00  0.00    +0.000 NA
BRANCH  17  24
ATOM     19  C   UNL     1       7.281   7.104  17.462  0.00  0.00    +0.000 C 
ATOM     20  C   UNL     1       6.557   5.940  16.855  0.00  0.00    +0.000 A 
ATOM     21  C   UNL     1       7.098   5.133  15.800  0.00  0.00    +0.000 A 
ATOM     22  C   UNL     1       6.247   4.123  15.414  0.00  0.00    +0.000 A 
ATOM     23  S   UNL     1       4.796   4.131  16.313  0.00  0.00    +0.000 S 
ATOM     24  C   UNL     1       5.292   5.492  17.223  0.00  0.00    +0.000 A 
ENDBRANCH  17  24
ENDBRANCH   1  18
TORSDOF 7
ENDMDL
MODEL 4
REMARK VINA RESULT:      -6.2      6.923      9.373
REMARK  Name = 
REMARK  10 active torsions:
REMARK  status: ('A' for Active; 'I' for Inactive)
REMARK    1  A    between atoms: C_1  and  C_2
REMARK    2  A    between atoms: C_6  and  C_7
REMARK    3  A    between atoms: N_8  and  N_9
REMARK    4  A    between atoms: C_10  and  C_12
REMARK    5  A    between atoms: C_15  and  O_16
REMARK    6  A    between atoms: O_16  and  C_17
REMARK    7  A    between atoms: C_17  and  C_18
REMARK    8  A    between atoms: C_18  and  N_19
REMARK    9  A    between atoms: N_19  and  C_20
REMARK   10  A    between atoms: N_19  and  C_21
REMARK                            x       y       z     vdW  Elec       q    Type
REMARK                         _______ _______ _______ _____ _____    ______ ____
ROOT
ATOM      1  N   UNL     1       2.530   7.316  19.446  0.00  0.00    +0.000 N 
ATOM      2  C   UNL     1       1.721   8.400  19.149  0.00  0.00    +0.000 C 
ATOM      3  O   UNL     1       1.547   8.852  18.018  0.00  0.00    +0.000 OA
ATOM      4  H   UNL     1       2.742   7.046  20.397  0.00  0.00    +0.000 HD
ENDROOT
BRANCH   2   5
ATOM      5  C   UNL     1       1.071   9.081  20.295  0.00  0.00    +0.000 A 
ATOM      6  C   UNL     1       0.423  10.284  20.014  0.00  0.00    +0.000 A 
ATOM      7  C   UNL     1      -0.229  10.985  21.021  0.00  0.00    +0.000 A 
ATOM      8  C   UNL     1      -0.259  10.493  22.332  0.00  0.00    +0.000 A 
ATOM      9  C   UNL     1       0.384   9.286  22.613  0.00  0.00    +0.000 A 
ATOM     10  C   UNL     1       1.049   8.575  21.599  0.00  0.00    +0.000 A 
BRANCH   8  11
ATOM     11  O   UNL     1      -0.893  11.116  23.383  0.00  0.00    +0.000 OA
BRANCH  11  12
ATOM     12  C   UNL     1      -2.098  11.793  22.998  0.00  0.00    +0.000 C 
BRANCH  12  13
ATOM     13  C   UNL     1      -2.103  13.276  23.386  0.00  0.00    +0.000 C 
BRANCH  13  14
ATOM     14  N   UNL     1      -3.393  13.681  23.993  0.00  0.00    +0.000 NA
ATOM     15  C   UNL     1      -4.142  12.546  24.540  0.00  0.00    +0.000 C 
ATOM     16  C   UNL     1      -3.172  14.679  25.038  0.00  0.00    +0.000 C 
ENDBRANCH  13  14
ENDBRANCH  12  13
ENDBRANCH  11  12
ENDBRANCH   8  11
ENDBRANCH   2   5
BRANCH   1  18
ATOM     17  C   UNL     1       4.156   5.924  18.670  0.00  0.00    +0.000 C 
ATOM     18  N   UNL     1       3.191   6.741  18.409  0.00  0.00    +0.000 NA
BRANCH  17  24
ATOM     19  C   UNL     1       3.358   3.320  17.019  0.00  0.00    +0.000 C 
ATOM     20  C   UNL     1       4.572   4.180  16.835  0.00  0.00    +0.000 A 
ATOM     21  C   UNL     1       5.579   3.927  15.845  0.00  0.00    +0.000 A 
ATOM     22  C   UNL     1       6.593   4.858  15.870  0.00  0.00    +0.000 A 
ATOM     23  S   UNL     1       6.346   6.040  17.075  0.00  0.00    +0.000 S 
ATOM     24  C   UNL     1       4.882   5.313  17.580  0.00  0.00    +0.000 A 
ENDBRANCH  17  24
ENDBRANCH   1  18
TORSDOF 7
ENDMDL
MODEL 5
REMARK VINA RESULT:      -6.2      6.824      9.280
REMARK  Name = 
REMARK  10 active torsions:
REMARK  status: ('A' for Active; 'I' for Inactive)
REMARK    1  A    between atoms: C_1  and  C_2
REMARK    2  A    between atoms: C_6  and  C_7
REMARK    3  A    between atoms: N_8  and  N_9
REMARK    4  A    between atoms: C_10  and  C_12
REMARK    5  A    between atoms: C_15  and  O_16
REMARK    6  A    between atoms: O_16  and  C_17
REMARK    7  A    between atoms: C_17  and  C_18
REMARK    8  A    between atoms: C_18  and  N_19
REMARK    9  A    between atoms: N_19  and  C_20
REMARK   10  A    between atoms: N_19  and  C_21
REMARK                            x       y       z     vdW  Elec       q    Type
REMARK                         _______ _______ _______ _____ _____    ______ ____
ROOT
ATOM      1  N   UNL     1       2.256   7.596  19.126  0.00  0.00    +0.000 N 
ATOM      2  C   UNL     1       1.645   8.816  18.894  0.00  0.00    +0.000 C 
ATOM      3  O   UNL     1       1.707   9.437  17.834  0.00  0.00    +0.000 OA
ATOM      4  H   UNL     1       2.281   7.171  20.044  0.00  0.00    +0.000 HD
ENDROOT
BRANCH   2   5
ATOM      5  C   UNL     1       0.912   9.423  20.032  0.00  0.00    +0.000 A 
ATOM      6  C   UNL     1       1.089   8.819  21.276  0.00  0.00    +0.000 A 
ATOM      7  C   UNL     1       0.457   9.327  22.403  0.00  0.00    +0.000 A 
ATOM      8  C   UNL     1      -0.360  10.462  22.315  0.00  0.00    +0.000 A 
ATOM      9  C   UNL     1      -0.534  11.072  21.071  0.00  0.00    +0.000 A 
ATOM     10  C   UNL     1       0.100  10.558  19.926  0.00  0.00    +0.000 A 
BRANCH   8  11
ATOM     11  O   UNL     1      -1.011  11.038  23.382  0.00  0.00    +0.000 OA
BRANCH  11  12
ATOM     12  C   UNL     1      -1.602  12.307  23.068  0.00  0.00    +0.000 C 
BRANCH  12  13
ATOM     13  C   UNL     1      -3.110  12.351  23.338  0.00  0.00    +0.000 C 
BRANCH  13  14
ATOM     14  N   UNL     1      -3.795  13.339  22.473  0.00  0.00    +0.000 NA
ATOM     15  C   UNL     1      -2.885  13.989  21.524  0.00  0.00    +0.000 C 
ATOM     16  C   UNL     1      -4.896  12.706  21.750  0.00  0.00    +0.000 C 
ENDBRANCH  13  14
ENDBRANCH  12  13
ENDBRANCH  11  12
ENDBRANCH   8  11
ENDBRANCH   2   5
BRANCH   1  18
ATOM     17  C   UNL     1       3.577   5.938  18.294  0.00  0.00    +0.000 C 
ATOM     18  N   UNL     1       2.995   7.076  18.112  0.00  0.00    +0.000 NA
BRANCH  17  24
ATOM     19  C   UNL     1       3.884   2.868  17.503  0.00  0.00    +0.000 C 
ATOM     20  C   UNL     1       4.545   4.047  16.855  0.00  0.00    +0.000 A 
ATOM     21  C   UNL     1       5.444   3.939  15.743  0.00  0.00    +0.000 A 
ATOM     22  C   UNL     1       5.917   5.161  15.322  0.00  0.00    +0.000 A 
ATOM     23  S   UNL     1       5.288   6.445  16.253  0.00  0.00    +0.000 S 
ATOM     24  C   UNL     1       4.380   5.376  17.232  0.00  0.00    +0.000 A 
ENDBRANCH  17  24
ENDBRANCH   1  18
TORSDOF 7
ENDMDL
MODEL 6
REMARK VINA RESULT:      -6.1      5.473      7.859
REMARK  Name = 
REMARK  10 active torsions:
REMARK  status: ('A' for Active; 'I' for Inactive)
REMARK    1  A    between atoms: C_1  and  C_2
REMARK    2  A    between atoms: C_6  and  C_7
REMARK    3  A    between atoms: N_8  and  N_9
REMARK    4  A    between atoms: C_10  and  C_12
REMARK    5  A    between atoms: C_15  and  O_16
REMARK    6  A    between atoms: O_16  and  C_17
REMARK    7  A    between atoms: C_17  and  C_18
REMARK    8  A    between atoms: C_18  and  N_19
REMARK    9  A    between atoms: N_19  and  C_20
REMARK   10  A    between atoms: N_19  and  C_21
REMARK                            x       y       z     vdW  Elec       q    Type
REMARK                         _______ _______ _______ _____ _____    ______ ____
ROOT
ATOM      1  N   UNL     1       2.537   8.377  18.047  0.00  0.00    +0.000 N 
ATOM      2  C   UNL     1       2.664   7.074  18.500  0.00  0.00    +0.000 C 
ATOM      3  O   UNL     1       2.050   6.605  19.456  0.00  0.00    +0.000 OA
ATOM      4  H   UNL     1       3.142   8.761  17.333  0.00  0.00    +0.000 HD
ENDROOT
BRANCH   2   5
ATOM      5  C   UNL     1       3.652   6.218  17.799  0.00  0.00    +0.000 A 
ATOM      6  C   UNL     1       4.599   6.877  17.016  0.00  0.00    +0.000 A 
ATOM      7  C   UNL     1       5.574   6.159  16.336  0.00  0.00    +0.000 A 
ATOM      8  C   UNL     1       5.634   4.763  16.432  0.00  0.00    +0.000 A 
ATOM      9  C   UNL     1       4.689   4.101  17.221  0.00  0.00    +0.000 A 
ATOM     10  C   UNL     1       3.698   4.823  17.907  0.00  0.00    +0.000 A 
BRANCH   8  11
ATOM     11  O   UNL     1       6.574   3.978  15.805  0.00  0.00    +0.000 OA
BRANCH  11  12
ATOM     12  C   UNL     1       6.679   4.235  14.397  0.00  0.00    +0.000 C 
BRANCH  12  13
ATOM     13  C   UNL     1       5.489   3.693  13.597  0.00  0.00    +0.000 C 
BRANCH  13  14
ATOM     14  N   UNL     1       5.784   3.631  12.146  0.00  0.00    +0.000 NA
ATOM     15  C   UNL     1       7.158   4.034  11.830  0.00  0.00    +0.000 C 
ATOM     16  C   UNL     1       5.530   2.287  11.632  0.00  0.00    +0.000 C 
ENDBRANCH  13  14
ENDBRANCH  12  13
ENDBRANCH  11  12
ENDBRANCH   8  11
ENDBRANCH   2   5
BRANCH   1  18
ATOM     17  C   UNL     1       0.701   9.722  18.108  0.00  0.00    +0.000 C 
ATOM     18  N   UNL     1       1.694   9.187  18.736  0.00  0.00    +0.000 NA
BRANCH  17  24
ATOM     19  C   UNL     1      -2.304  10.461  17.352  0.00  0.00    +0.000 C 
ATOM     20  C   UNL     1      -1.512  10.951  18.527  0.00  0.00    +0.000 A 
ATOM     21  C   UNL     1      -2.031  11.860  19.508  0.00  0.00    +0.000 A 
ATOM     22  C   UNL     1      -1.115  12.157  20.492  0.00  0.00    +0.000 A 
ATOM     23  S   UNL     1       0.368  11.351  20.250  0.00  0.00    +0.000 S 
ATOM     24  C   UNL     1      -0.199  10.600  18.821  0.00  0.00    +0.000 A 
ENDBRANCH  17  24
ENDBRANCH   1  18
TORSDOF 7
ENDMDL
MODEL 7
REMARK VINA RESULT:      -6.1      7.595     10.553
REMARK  Name = 
REMARK  10 active torsions:
REMARK  status: ('A' for Active; 'I' for Inactive)
REMARK    1  A    between atoms: C_1  and  C_2
REMARK    2  A    between atoms: C_6  and  C_7
REMARK    3  A    between atoms: N_8  and  N_9
REMARK    4  A    between atoms: C_10  and  C_12
REMARK    5  A    between atoms: C_15  and  O_16
REMARK    6  A    between atoms: O_16  and  C_17
REMARK    7  A    between atoms: C_17  and  C_18
REMARK    8  A    between atoms: C_18  and  N_19
REMARK    9  A    between atoms: N_19  and  C_20
REMARK   10  A    between atoms: N_19  and  C_21
REMARK                            x       y       z     vdW  Elec       q    Type
REMARK                         _______ _______ _______ _____ _____    ______ ____
ROOT
ATOM      1  N   UNL     1       1.629   7.278  20.884  0.00  0.00    +0.000 N 
ATOM      2  C   UNL     1       1.334   8.474  20.253  0.00  0.00    +0.000 C 
ATOM      3  O   UNL     1       1.681   8.765  19.110  0.00  0.00    +0.000 OA
ATOM      4  H   UNL     1       1.428   7.119  21.863  0.00  0.00    +0.000 HD
ENDROOT
BRANCH   2   5
ATOM      5  C   UNL     1       0.590   9.482  21.048  0.00  0.00    +0.000 A 
ATOM      6  C   UNL     1       0.152   9.077  22.308  0.00  0.00    +0.000 A 
ATOM      7  C   UNL     1      -0.539   9.957  23.132  0.00  0.00    +0.000 A 
ATOM      8  C   UNL     1      -0.798  11.269  22.718  0.00  0.00    +0.000 A 
ATOM      9  C   UNL     1      -0.356  11.679  21.458  0.00  0.00    +0.000 A 
ATOM     10  C   UNL     1       0.339  10.790  20.620  0.00  0.00    +0.000 A 
BRANCH   8  11
ATOM     11  O   UNL     1      -1.462  12.208  23.475  0.00  0.00    +0.000 OA
BRANCH  11  12
ATOM     12  C   UNL     1      -2.884  12.187  23.285  0.00  0.00    +0.000 C 
BRANCH  12  13
ATOM     13  C   UNL     1      -3.644  12.981  24.353  0.00  0.00    +0.000 C 
BRANCH  13  14
ATOM     14  N   UNL     1      -3.400  14.438  24.233  0.00  0.00    +0.000 NA
ATOM     15  C   UNL     1      -4.615  15.190  23.906  0.00  0.00    +0.000 C 
ATOM     16  C   UNL     1      -2.810  14.958  25.465  0.00  0.00    +0.000 C 
ENDBRANCH  13  14
ENDBRANCH  12  13
ENDBRANCH  11  12
ENDBRANCH   8  11
ENDBRANCH   2   5
BRANCH   1  18
ATOM     17  C   UNL     1       1.879   5.222  19.935  0.00  0.00    +0.000 C 
ATOM     18  N   UNL     1       2.379   6.385  20.188  0.00  0.00    +0.000 NA
BRANCH  17  24
ATOM     19  C   UNL     1       0.925   2.418  18.764  0.00  0.00    +0.000 C 
ATOM     20  C   UNL     1       2.295   3.021  18.684  0.00  0.00    +0.000 A 
ATOM     21  C   UNL     1       3.406   2.382  18.040  0.00  0.00    +0.000 A 
ATOM     22  C   UNL     1       4.556   3.136  18.094  0.00  0.00    +0.000 A 
ATOM     23  S   UNL     1       4.315   4.613  18.913  0.00  0.00    +0.000 S 
ATOM     24  C   UNL     1       2.669   4.254  19.209  0.00  0.00    +0.000 A 
ENDBRANCH  17  24
ENDBRANCH   1  18
TORSDOF 7
ENDMDL
MODEL 8
REMARK VINA RESULT:      -6.1      7.662     10.533
REMARK  Name = 
REMARK  10 active torsions:
REMARK  status: ('A' for Active; 'I' for Inactive)
REMARK    1  A    between atoms: C_1  and  C_2
REMARK    2  A    between atoms: C_6  and  C_7
REMARK    3  A    between atoms: N_8  and  N_9
REMARK    4  A    between atoms: C_10  and  C_12
REMARK    5  A    between atoms: C_15  and  O_16
REMARK    6  A    between atoms: O_16  and  C_17
REMARK    7  A    between atoms: C_17  and  C_18
REMARK    8  A    between atoms: C_18  and  N_19
REMARK    9  A    between atoms: N_19  and  C_20
REMARK   10  A    between atoms: N_19  and  C_21
REMARK                            x       y       z     vdW  Elec       q    Type
REMARK                         _______ _______ _______ _____ _____    ______ ____
ROOT
ATOM      1  N   UNL     1       1.584   7.637  21.014  0.00  0.00    +0.000 N 
ATOM      2  C   UNL     1       1.169   8.763  20.325  0.00  0.00    +0.000 C 
ATOM      3  O   UNL     1       1.426   8.994  19.144  0.00  0.00    +0.000 OA
ATOM      4  H   UNL     1       1.454   7.536  22.012  0.00  0.00    +0.000 HD
ENDROOT
BRANCH   2   5
ATOM      5  C   UNL     1       0.405   9.774  21.096  0.00  0.00    +0.000 A 
ATOM      6  C   UNL     1      -0.118   9.355  22.319  0.00  0.00    +0.000 A 
ATOM      7  C   UNL     1      -0.834  10.236  23.119  0.00  0.00    +0.000 A 
ATOM      8  C   UNL     1      -1.033  11.564  22.721  0.00  0.00    +0.000 A 
ATOM      9  C   UNL     1      -0.504  11.988  21.499  0.00  0.00    +0.000 A 
ATOM     10  C   UNL     1       0.217  11.098  20.684  0.00  0.00    +0.000 A 
BRANCH   8  11
ATOM     11  O   UNL     1      -1.716  12.505  23.458  0.00  0.00    +0.000 OA
BRANCH  11  12
ATOM     12  C   UNL     1      -3.111  12.206  23.605  0.00  0.00    +0.000 C 
BRANCH  12  13
ATOM     13  C   UNL     1      -3.877  13.283  24.382  0.00  0.00    +0.000 C 
BRANCH  13  14
ATOM     14  N   UNL     1      -5.154  13.635  23.719  0.00  0.00    +0.000 NA
ATOM     15  C   UNL     1      -5.406  15.079  23.705  0.00  0.00    +0.000 C 
ATOM     16  C   UNL     1      -5.180  13.114  22.353  0.00  0.00    +0.000 C 
ENDBRANCH  13  14
ENDBRANCH  12  13
ENDBRANCH  11  12
ENDBRANCH   8  11
ENDBRANCH   2   5
BRANCH   1  18
ATOM     17  C   UNL     1       1.911   5.545  20.175  0.00  0.00    +0.000 C 
ATOM     18  N   UNL     1       2.353   6.748  20.333  0.00  0.00    +0.000 NA
BRANCH  17  24
ATOM     19  C   UNL     1       1.021   2.695  19.066  0.00  0.00    +0.000 C 
ATOM     20  C   UNL     1       2.376   3.329  18.968  0.00  0.00    +0.000 A 
ATOM     21  C   UNL     1       3.499   2.703  18.332  0.00  0.00    +0.000 A 
ATOM     22  C   UNL     1       4.631   3.485  18.366  0.00  0.00    +0.000 A 
ATOM     23  S   UNL     1       4.358   4.973  19.155  0.00  0.00    +0.000 S 
ATOM     24  C   UNL     1       2.722   4.581  19.465  0.00  0.00    +0.000 A 
ENDBRANCH  17  24
ENDBRANCH   1  18
TORSDOF 7
ENDMDL
MODEL 9
REMARK VINA RESULT:      -6.0      5.913      7.493
REMARK  Name = 
REMARK  10 active torsions:
REMARK  status: ('A' for Active; 'I' for Inactive)
REMARK    1  A    between atoms: C_1  and  C_2
REMARK    2  A    between atoms: C_6  and  C_7
REMARK    3  A    between atoms: N_8  and  N_9
REMARK    4  A    between atoms: C_10  and  C_12
REMARK    5  A    between atoms: C_15  and  O_16
REMARK    6  A    between atoms: O_16  and  C_17
REMARK    7  A    between atoms: C_17  and  C_18
REMARK    8  A    between atoms: C_18  and  N_19
REMARK    9  A    between atoms: N_19  and  C_20
REMARK   10  A    between atoms: N_19  and  C_21
REMARK                            x       y       z     vdW  Elec       q    Type
REMARK                         _______ _______ _______ _____ _____    ______ ____
ROOT
ATOM      1  N   UNL     1       1.275   9.108  19.690  0.00  0.00    +0.000 N 
ATOM      2  C   UNL     1       1.956   8.831  18.517  0.00  0.00    +0.000 C 
ATOM      3  O   UNL     1       1.927   9.536  17.510  0.00  0.00    +0.000 OA
ATOM      4  H   UNL     1       1.228   8.448  20.455  0.00  0.00    +0.000 HD
ENDROOT
BRANCH   2   5
ATOM      5  C   UNL     1       2.727   7.564  18.475  0.00  0.00    +0.000 A 
ATOM      6  C   UNL     1       2.581   6.714  19.571  0.00  0.00    +0.000 A 
ATOM      7  C   UNL     1       3.251   5.498  19.614  0.00  0.00    +0.000 A 
ATOM      8  C   UNL     1       4.074   5.097  18.554  0.00  0.00    +0.000 A 
ATOM      9  C   UNL     1       4.216   5.944  17.453  0.00  0.00    +0.000 A 
ATOM     10  C   UNL     1       3.544   7.178  17.407  0.00  0.00    +0.000 A 
BRANCH   8  11
ATOM     11  O   UNL     1       4.761   3.904  18.509  0.00  0.00    +0.000 OA
BRANCH  11  12
ATOM     12  C   UNL     1       4.193   2.891  19.351  0.00  0.00    +0.000 C 
BRANCH  12  13
ATOM     13  C   UNL     1       3.142   2.035  18.634  0.00  0.00    +0.000 C 
BRANCH  13  14
ATOM     14  N   UNL     1       1.896   1.916  19.427  0.00  0.00    +0.000 NA
ATOM     15  C   UNL     1       2.026   2.478  20.774  0.00  0.00    +0.000 C 
ATOM     16  C   UNL     1       0.785   2.558  18.727  0.00  0.00    +0.000 C 
ENDBRANCH  13  14
ENDBRANCH  12  13
ENDBRANCH  11  12
ENDBRANCH   8  11
ENDBRANCH   2   5
BRANCH   1  18
ATOM     17  C   UNL     1      -0.148  10.511  20.781  0.00  0.00    +0.000 C 
ATOM     18  N   UNL     1       0.504  10.225  19.704  0.00  0.00    +0.000 NA
BRANCH  17  24
ATOM     19  C   UNL     1      -2.394  11.352  18.684  0.00  0.00    +0.000 C 
ATOM     20  C   UNL     1      -1.973  12.094  19.917  0.00  0.00    +0.000 A 
ATOM     21  C   UNL     1      -2.556  13.338  20.330  0.00  0.00    +0.000 A 
ATOM     22  C   UNL     1      -2.006  13.821  21.496  0.00  0.00    +0.000 A 
ATOM     23  S   UNL     1      -0.792  12.789  22.105  0.00  0.00    +0.000 S 
ATOM     24  C   UNL     1      -0.986  11.689  20.809  0.00  0.00    +0.000 A 
ENDBRANCH  17  24
ENDBRANCH   1  18
TORSDOF 7
ENDMDL
