MODEL 1
REMARK VINA RESULT:      -9.5      0.000      0.000
REMARK  Name = 
REMARK  7 active torsions:
REMARK  status: ('A' for Active; 'I' for Inactive)
REMARK    1  A    between atoms: C_1  and  C_2
REMARK    2  A    between atoms: N_5  and  C_6
REMARK    3  A    between atoms: C_6  and  C_7
REMARK    4  A    between atoms: C_6  and  C_8
REMARK    5  A    between atoms: C_12  and  C_13
REMARK    6  A    between atoms: N_17  and  C_18
REMARK    7  A    between atoms: C_21  and  C_22
REMARK                            x       y       z     vdW  Elec       q    Type
REMARK                         _______ _______ _______ _____ _____    ______ ____
ROOT
ATOM      1  C   UNL     1       1.006   8.795  22.218  0.00  0.00    +0.000 C 
ATOM      2  C   UNL     1       1.169   8.831  20.731  0.00  0.00    +0.000 A 
ATOM      3  N   UNL     1       0.628   9.864  20.060  0.00  0.00    +0.000 NA
ATOM      4  C   UNL     1       0.866   9.931  18.744  0.00  0.00    +0.000 A 
ATOM      5  N   UNL     1       0.333  10.966  17.969  0.00  0.00    +0.000 N 
ATOM      6  C   UNL     1       1.632   8.984  18.097  0.00  0.00    +0.000 A 
ATOM      7  C   UNL     1       2.094   7.915  18.842  0.00  0.00    +0.000 A 
ATOM      8  N   UNL     1       1.875   7.836  20.169  0.00  0.00    +0.000 NA
ATOM      9  H   UNL     1       1.062  11.573  17.614  0.00  0.00    +0.000 HD
ENDROOT
BRANCH   7  10
ATOM     10  C   UNL     1       2.822   6.778  18.238  0.00  0.00    +0.000 A 
ATOM     11  C   UNL     1       2.322   5.470  18.349  0.00  0.00    +0.000 A 
ATOM     12  C   UNL     1       2.979   4.370  17.775  0.00  0.00    +0.000 A 
ATOM     13  C   UNL     1       4.179   4.566  17.071  0.00  0.00    +0.000 A 
ATOM     14  N   UNL     1       4.941   3.579  16.457  0.00  0.00    +0.000 NA
ATOM     15  C   UNL     1       5.995   4.128  15.899  0.00  0.00    +0.000 A 
ATOM     16  S   UNL     1       6.148   5.824  16.054  0.00  0.00    +0.000 S 
ATOM     17  C   UNL     1       4.680   5.864  16.958  0.00  0.00    +0.000 A 
ATOM     18  C   UNL     1       4.024   6.971  17.529  0.00  0.00    +0.000 A 
ENDBRANCH   7  10
BRANCH   5  19
ATOM     19  C   UNL     1      -0.840  11.665  18.482  0.00  0.00    +0.000 C 
ATOM     20  C   UNL     1      -0.689  13.188  18.450  0.00  0.00    +0.000 C 
BRANCH  19  21
ATOM     21  C   UNL     1      -2.049  11.241  17.653  0.00  0.00    +0.000 A 
ATOM     22  C   UNL     1      -1.921  10.400  16.539  0.00  0.00    +0.000 A 
ATOM     23  C   UNL     1      -3.022  10.125  15.734  0.00  0.00    +0.000 A 
ATOM     24  C   UNL     1      -4.267  10.682  16.033  0.00  0.00    +0.000 A 
ATOM     25  C   UNL     1      -4.453  11.471  17.173  0.00  0.00    +0.000 A 
ATOM     26  C   UNL     1      -3.327  11.736  17.975  0.00  0.00    +0.000 A 
BRANCH  25  27
ATOM     27  C   UNL     1      -5.750  12.080  17.518  0.00  0.00    +0.000 A 
ATOM     28  C   UNL     1      -6.286  13.282  17.076  0.00  0.00    +0.000 A 
ATOM     29  C   UNL     1      -7.539  13.402  17.692  0.00  0.00    +0.000 A 
ATOM     30  N   UNL     1      -7.809  12.365  18.480  0.00  0.00    +0.000 NA
ATOM     31  N   UNL     1      -6.710  11.586  18.384  0.00  0.00    +0.000 N 
ATOM     32  C   UNL     1      -6.671  10.392  19.196  0.00  0.00    +0.000 C 
ENDBRANCH  25  27
ENDBRANCH  19  21
ENDBRANCH   5  19
TORSDOF 4
ENDMDL
MODEL 2
REMARK VINA RESULT:      -9.4      1.505      1.832
REMARK  Name = 
REMARK  7 active torsions:
REMARK  status: ('A' for Active; 'I' for Inactive)
REMARK    1  A    between atoms: C_1  and  C_2
REMARK    2  A    between atoms: N_5  and  C_6
REMARK    3  A    between atoms: C_6  and  C_7
REMARK    4  A    between atoms: C_6  and  C_8
REMARK    5  A    between atoms: C_12  and  C_13
REMARK    6  A    between atoms: N_17  and  C_18
REMARK    7  A    between atoms: C_21  and  C_22
REMARK                            x       y       z     vdW  Elec       q    Type
REMARK                         _______ _______ _______ _____ _____    ______ ____
ROOT
ATOM      1  C   UNL     1       0.640   9.441  22.861  0.00  0.00    +0.000 C 
ATOM      2  C   UNL     1       0.867   9.207  21.400  0.00  0.00    +0.000 A 
ATOM      3  N   UNL     1       0.437  10.144  20.535  0.00  0.00    +0.000 NA
ATOM      4  C   UNL     1       0.733   9.966  19.241  0.00  0.00    +0.000 A 
ATOM      5  N   UNL     1       0.315  10.886  18.275  0.00  0.00    +0.000 N 
ATOM      6  C   UNL     1       1.447   8.868  18.807  0.00  0.00    +0.000 A 
ATOM      7  C   UNL     1       1.792   7.915  19.746  0.00  0.00    +0.000 A 
ATOM      8  N   UNL     1       1.513   8.082  21.054  0.00  0.00    +0.000 NA
ATOM      9  H   UNL     1       1.104  11.369  17.862  0.00  0.00    +0.000 HD
ENDROOT
BRANCH   7  10
ATOM     10  C   UNL     1       2.452   6.642  19.383  0.00  0.00    +0.000 A 
ATOM     11  C   UNL     1       3.262   6.559  18.238  0.00  0.00    +0.000 A 
ATOM     12  C   UNL     1       3.915   5.372  17.871  0.00  0.00    +0.000 A 
ATOM     13  C   UNL     1       3.758   4.220  18.660  0.00  0.00    +0.000 A 
ATOM     14  N   UNL     1       4.334   2.978  18.422  0.00  0.00    +0.000 NA
ATOM     15  C   UNL     1       3.964   2.140  19.362  0.00  0.00    +0.000 A 
ATOM     16  S   UNL     1       2.933   2.758  20.578  0.00  0.00    +0.000 S 
ATOM     17  C   UNL     1       2.954   4.297  19.798  0.00  0.00    +0.000 A 
ATOM     18  C   UNL     1       2.299   5.485  20.172  0.00  0.00    +0.000 A 
ENDBRANCH   7  10
BRANCH   5  19
ATOM     19  C   UNL     1      -0.818  11.745  18.598  0.00  0.00    +0.000 C 
ATOM     20  C   UNL     1      -0.550  13.224  18.304  0.00  0.00    +0.000 C 
BRANCH  19  21
ATOM     21  C   UNL     1      -2.025  11.263  17.798  0.00  0.00    +0.000 A 
ATOM     22  C   UNL     1      -1.898  10.325  16.765  0.00  0.00    +0.000 A 
ATOM     23  C   UNL     1      -2.996   9.993  15.977  0.00  0.00    +0.000 A 
ATOM     24  C   UNL     1      -4.237  10.588  16.214  0.00  0.00    +0.000 A 
ATOM     25  C   UNL     1      -4.422  11.477  17.278  0.00  0.00    +0.000 A 
ATOM     26  C   UNL     1      -3.300  11.799  18.065  0.00  0.00    +0.000 A 
BRANCH  25  27
ATOM     27  C   UNL     1      -5.715  12.129  17.557  0.00  0.00    +0.000 A 
ATOM     28  C   UNL     1      -6.241  13.282  16.990  0.00  0.00    +0.000 A 
ATOM     29  C   UNL     1      -7.494  13.474  17.589  0.00  0.00    +0.000 A 
ATOM     30  N   UNL     1      -7.771  12.529  18.481  0.00  0.00    +0.000 NA
ATOM     31  N   UNL     1      -6.678  11.735  18.469  0.00  0.00    +0.000 N 
ATOM     32  C   UNL     1      -6.648  10.634  19.402  0.00  0.00    +0.000 C 
ENDBRANCH  25  27
ENDBRANCH  19  21
ENDBRANCH   5  19
TORSDOF 4
ENDMDL
MODEL 3
REMARK VINA RESULT:      -9.3      1.645      2.174
REMARK  Name = 
REMARK  7 active torsions:
REMARK  status: ('A' for Active; 'I' for Inactive)
REMARK    1  A    between atoms: C_1  and  C_2
REMARK    2  A    between atoms: N_5  and  C_6
REMARK    3  A    between atoms: C_6  and  C_7
REMARK    4  A    between atoms: C_6  and  C_8
REMARK    5  A    between atoms: C_12  and  C_13
REMARK    6  A    between atoms: N_17  and  C_18
REMARK    7  A    between atoms: C_21  and  C_22
REMARK                            x       y       z     vdW  Elec       q    Type
REMARK                         _______ _______ _______ _____ _____    ______ ____
ROOT
ATOM      1  C   UNL     1       0.367   9.425  22.988  0.00  0.00    +0.000 C 
ATOM      2  C   UNL     1       0.691   9.283  21.534  0.00  0.00    +0.000 A 
ATOM      3  N   UNL     1       0.365  10.296  20.711  0.00  0.00    +0.000 NA
ATOM      4  C   UNL     1       0.749  10.194  19.432  0.00  0.00    +0.000 A 
ATOM      5  N   UNL     1       0.441  11.196  18.507  0.00  0.00    +0.000 N 
ATOM      6  C   UNL     1       1.449   9.098  18.972  0.00  0.00    +0.000 A 
ATOM      7  C   UNL     1       1.685   8.067  19.862  0.00  0.00    +0.000 A 
ATOM      8  N   UNL     1       1.317   8.157  21.155  0.00  0.00    +0.000 NA
ATOM      9  H   UNL     1       1.277  11.670  18.187  0.00  0.00    +0.000 HD
ENDROOT
BRANCH   7  10
ATOM     10  C   UNL     1       2.319   6.794  19.456  0.00  0.00    +0.000 A 
ATOM     11  C   UNL     1       3.068   6.715  18.270  0.00  0.00    +0.000 A 
ATOM     12  C   UNL     1       3.695   5.528  17.862  0.00  0.00    +0.000 A 
ATOM     13  C   UNL     1       3.573   4.371  18.650  0.00  0.00    +0.000 A 
ATOM     14  N   UNL     1       4.130   3.128  18.373  0.00  0.00    +0.000 NA
ATOM     15  C   UNL     1       3.806   2.285  19.326  0.00  0.00    +0.000 A 
ATOM     16  S   UNL     1       2.842   2.900  20.598  0.00  0.00    +0.000 S 
ATOM     17  C   UNL     1       2.831   4.444  19.829  0.00  0.00    +0.000 A 
ATOM     18  C   UNL     1       2.201   5.632  20.245  0.00  0.00    +0.000 A 
ENDBRANCH   7  10
BRANCH   5  19
ATOM     19  C   UNL     1      -0.678  12.081  18.809  0.00  0.00    +0.000 C 
ATOM     20  C   UNL     1      -0.460  13.512  18.311  0.00  0.00    +0.000 C 
BRANCH  19  21
ATOM     21  C   UNL     1      -1.936  11.492  18.176  0.00  0.00    +0.000 A 
ATOM     22  C   UNL     1      -1.876  10.679  17.036  0.00  0.00    +0.000 A 
ATOM     23  C   UNL     1      -3.045  10.253  16.413  0.00  0.00    +0.000 A 
ATOM     24  C   UNL     1      -4.290  10.629  16.923  0.00  0.00    +0.000 A 
ATOM     25  C   UNL     1      -4.394  11.383  18.097  0.00  0.00    +0.000 A 
ATOM     26  C   UNL     1      -3.200  11.802  18.713  0.00  0.00    +0.000 A 
BRANCH  25  27
ATOM     27  C   UNL     1      -5.689  11.803  18.662  0.00  0.00    +0.000 A 
ATOM     28  C   UNL     1      -6.301  11.377  19.832  0.00  0.00    +0.000 A 
ATOM     29  C   UNL     1      -7.510  12.080  19.921  0.00  0.00    +0.000 A 
ATOM     30  N   UNL     1      -7.686  12.902  18.890  0.00  0.00    +0.000 NA
ATOM     31  N   UNL     1      -6.589  12.707  18.126  0.00  0.00    +0.000 N 
ATOM     32  C   UNL     1      -6.519  13.424  16.874  0.00  0.00    +0.000 C 
ENDBRANCH  25  27
ENDBRANCH  19  21
ENDBRANCH   5  19
TORSDOF 4
ENDMDL
MODEL 4
REMARK VINA RESULT:      -9.3      0.596      1.133
REMARK  Name = 
REMARK  7 active torsions:
REMARK  status: ('A' for Active; 'I' for Inactive)
REMARK    1  A    between atoms: C_1  and  C_2
REMARK    2  A    between atoms: N_5  and  C_6
REMARK    3  A    between atoms: C_6  and  C_7
REMARK    4  A    between atoms: C_6  and  C_8
REMARK    5  A    between atoms: C_12  and  C_13
REMARK    6  A    between atoms: N_17  and  C_18
REMARK    7  A    between atoms: C_21  and  C_22
REMARK                            x       y       z     vdW  Elec       q    Type
REMARK                         _______ _______ _______ _____ _____    ______ ____
ROOT
ATOM      1  C   UNL     1       0.912   9.088  22.421  0.00  0.00    +0.000 C 
ATOM      2  C   UNL     1       1.087   9.085  20.934  0.00  0.00    +0.000 A 
ATOM      3  N   UNL     1       0.609  10.133  20.239  0.00  0.00    +0.000 NA
ATOM      4  C   UNL     1       0.860  10.161  18.923  0.00  0.00    +0.000 A 
ATOM      5  N   UNL     1       0.391  11.208  18.124  0.00  0.00    +0.000 N 
ATOM      6  C   UNL     1       1.576   9.158  18.302  0.00  0.00    +0.000 A 
ATOM      7  C   UNL     1       1.971   8.081  19.071  0.00  0.00    +0.000 A 
ATOM      8  N   UNL     1       1.739   8.041  20.398  0.00  0.00    +0.000 NA
ATOM      9  H   UNL     1       1.155  11.766  17.763  0.00  0.00    +0.000 HD
ENDROOT
BRANCH   7  10
ATOM     10  C   UNL     1       2.639   6.893  18.495  0.00  0.00    +0.000 A 
ATOM     11  C   UNL     1       2.187   5.599  18.806  0.00  0.00    +0.000 A 
ATOM     12  C   UNL     1       2.786   4.451  18.266  0.00  0.00    +0.000 A 
ATOM     13  C   UNL     1       3.878   4.582  17.392  0.00  0.00    +0.000 A 
ATOM     14  N   UNL     1       4.574   3.543  16.787  0.00  0.00    +0.000 NA
ATOM     15  C   UNL     1       5.533   4.039  16.039  0.00  0.00    +0.000 A 
ATOM     16  S   UNL     1       5.667   5.743  15.997  0.00  0.00    +0.000 S 
ATOM     17  C   UNL     1       4.331   5.865  17.080  0.00  0.00    +0.000 A 
ATOM     18  C   UNL     1       3.732   7.021  17.616  0.00  0.00    +0.000 A 
ENDBRANCH   7  10
BRANCH   5  19
ATOM     19  C   UNL     1      -0.744  11.982  18.614  0.00  0.00    +0.000 C 
ATOM     20  C   UNL     1      -0.578  13.488  18.397  0.00  0.00    +0.000 C 
BRANCH  19  21
ATOM     21  C   UNL     1      -2.001  11.486  17.904  0.00  0.00    +0.000 A 
ATOM     22  C   UNL     1      -1.940  10.838  16.663  0.00  0.00    +0.000 A 
ATOM     23  C   UNL     1      -3.109  10.502  15.986  0.00  0.00    +0.000 A 
ATOM     24  C   UNL     1      -4.354  10.804  16.542  0.00  0.00    +0.000 A 
ATOM     25  C   UNL     1      -4.459  11.389  17.809  0.00  0.00    +0.000 A 
ATOM     26  C   UNL     1      -3.266  11.719  18.478  0.00  0.00    +0.000 A 
BRANCH  25  27
ATOM     27  C   UNL     1      -5.755  11.727  18.425  0.00  0.00    +0.000 A 
ATOM     28  C   UNL     1      -6.383  11.122  19.506  0.00  0.00    +0.000 A 
ATOM     29  C   UNL     1      -7.585  11.816  19.699  0.00  0.00    +0.000 A 
ATOM     30  N   UNL     1      -7.741  12.798  18.815  0.00  0.00    +0.000 NA
ATOM     31  N   UNL     1      -6.640  12.717  18.038  0.00  0.00    +0.000 N 
ATOM     32  C   UNL     1      -6.550  13.628  16.920  0.00  0.00    +0.000 C 
ENDBRANCH  25  27
ENDBRANCH  19  21
ENDBRANCH   5  19
TORSDOF 4
ENDMDL
MODEL 5
REMARK VINA RESULT:      -8.9      1.344      1.530
REMARK  Name = 
REMARK  7 active torsions:
REMARK  status: ('A' for Active; 'I' for Inactive)
REMARK    1  A    between atoms: C_1  and  C_2
REMARK    2  A    between atoms: N_5  and  C_6
REMARK    3  A    between atoms: C_6  and  C_7
REMARK    4  A    between atoms: C_6  and  C_8
REMARK    5  A    between atoms: C_12  and  C_13
REMARK    6  A    between atoms: N_17  and  C_18
REMARK    7  A    between atoms: C_21  and  C_22
REMARK                            x       y       z     vdW  Elec       q    Type
REMARK                         _______ _______ _______ _____ _____    ______ ____
ROOT
ATOM      1  C   UNL     1       0.028   9.551  23.136  0.00  0.00    +0.000 C 
ATOM      2  C   UNL     1       0.458   9.383  21.712  0.00  0.00    +0.000 A 
ATOM      3  N   UNL     1       0.237  10.400  20.860  0.00  0.00    +0.000 NA
ATOM      4  C   UNL     1       0.714  10.270  19.615  0.00  0.00    +0.000 A 
ATOM      5  N   UNL     1       0.520  11.276  18.663  0.00  0.00    +0.000 N 
ATOM      6  C   UNL     1       1.402   9.143  19.218  0.00  0.00    +0.000 A 
ATOM      7  C   UNL     1       1.526   8.112  20.129  0.00  0.00    +0.000 A 
ATOM      8  N   UNL     1       1.064   8.228  21.390  0.00  0.00    +0.000 NA
ATOM      9  H   UNL     1       1.397  11.713  18.406  0.00  0.00    +0.000 HD
ENDROOT
BRANCH   7  10
ATOM     10  C   UNL     1       2.137   6.810  19.782  0.00  0.00    +0.000 A 
ATOM     11  C   UNL     1       1.919   5.681  20.590  0.00  0.00    +0.000 A 
ATOM     12  C   UNL     1       2.470   4.428  20.283  0.00  0.00    +0.000 A 
ATOM     13  C   UNL     1       3.272   4.282  19.139  0.00  0.00    +0.000 A 
ATOM     14  N   UNL     1       3.887   3.112  18.711  0.00  0.00    +0.000 NA
ATOM     15  C   UNL     1       4.558   3.351  17.608  0.00  0.00    +0.000 A 
ATOM     16  S   UNL     1       4.500   4.950  17.008  0.00  0.00    +0.000 S 
ATOM     17  C   UNL     1       3.492   5.400  18.333  0.00  0.00    +0.000 A 
ATOM     18  C   UNL     1       2.940   6.660  18.634  0.00  0.00    +0.000 A 
ENDBRANCH   7  10
BRANCH   5  19
ATOM     19  C   UNL     1      -0.582  12.208  18.873  0.00  0.00    +0.000 C 
ATOM     20  C   UNL     1      -0.334  13.578  18.237  0.00  0.00    +0.000 C 
BRANCH  19  21
ATOM     21  C   UNL     1      -1.850  11.585  18.296  0.00  0.00    +0.000 A 
ATOM     22  C   UNL     1      -1.807  10.692  17.216  0.00  0.00    +0.000 A 
ATOM     23  C   UNL     1      -2.985  10.231  16.637  0.00  0.00    +0.000 A 
ATOM     24  C   UNL     1      -4.222  10.651  17.131  0.00  0.00    +0.000 A 
ATOM     25  C   UNL     1      -4.309  11.488  18.249  0.00  0.00    +0.000 A 
ATOM     26  C   UNL     1      -3.106  11.942  18.822  0.00  0.00    +0.000 A 
BRANCH  25  27
ATOM     27  C   UNL     1      -5.596  11.957  18.795  0.00  0.00    +0.000 A 
ATOM     28  C   UNL     1      -6.013  13.261  19.026  0.00  0.00    +0.000 A 
ATOM     29  C   UNL     1      -7.312  13.170  19.545  0.00  0.00    +0.000 A 
ATOM     30  N   UNL     1      -7.718  11.908  19.653  0.00  0.00    +0.000 NA
ATOM     31  N   UNL     1      -6.663  11.185  19.218  0.00  0.00    +0.000 N 
ATOM     32  C   UNL     1      -6.775   9.747  19.280  0.00  0.00    +0.000 C 
ENDBRANCH  25  27
ENDBRANCH  19  21
ENDBRANCH   5  19
TORSDOF 4
ENDMDL
MODEL 6
REMARK VINA RESULT:      -8.6      1.986      3.791
REMARK  Name = 
REMARK  7 active torsions:
REMARK  status: ('A' for Active; 'I' for Inactive)
REMARK    1  A    between atoms: C_1  and  C_2
REMARK    2  A    between atoms: N_5  and  C_6
REMARK    3  A    between atoms: C_6  and  C_7
REMARK    4  A    between atoms: C_6  and  C_8
REMARK    5  A    between atoms: C_12  and  C_13
REMARK    6  A    between atoms: N_17  and  C_18
REMARK    7  A    between atoms: C_21  and  C_22
REMARK                            x       y       z     vdW  Elec       q    Type
REMARK                         _______ _______ _______ _____ _____    ______ ____
ROOT
ATOM      1  C   UNL     1       1.083   3.741  20.356  0.00  0.00    +0.000 C 
ATOM      2  C   UNL     1       1.774   4.993  19.915  0.00  0.00    +0.000 A 
ATOM      3  N   UNL     1       1.340   6.164  20.414  0.00  0.00    +0.000 NA
ATOM      4  C   UNL     1       2.030   7.264  20.084  0.00  0.00    +0.000 A 
ATOM      5  N   UNL     1       1.642   8.523  20.551  0.00  0.00    +0.000 N 
ATOM      6  C   UNL     1       3.139   7.204  19.265  0.00  0.00    +0.000 A 
ATOM      7  C   UNL     1       3.479   5.974  18.735  0.00  0.00    +0.000 A 
ATOM      8  N   UNL     1       2.805   4.855  19.065  0.00  0.00    +0.000 NA
ATOM      9  H   UNL     1       2.327   8.906  21.191  0.00  0.00    +0.000 HD
ENDROOT
BRANCH   7  10
ATOM     10  C   UNL     1       4.572   5.804  17.753  0.00  0.00    +0.000 A 
ATOM     11  C   UNL     1       5.823   6.408  17.966  0.00  0.00    +0.000 A 
ATOM     12  C   UNL     1       6.887   6.257  17.064  0.00  0.00    +0.000 A 
ATOM     13  C   UNL     1       6.709   5.487  15.902  0.00  0.00    +0.000 A 
ATOM     14  N   UNL     1       7.663   5.252  14.919  0.00  0.00    +0.000 NA
ATOM     15  C   UNL     1       7.144   4.493  13.982  0.00  0.00    +0.000 A 
ATOM     16  S   UNL     1       5.520   4.006  14.203  0.00  0.00    +0.000 S 
ATOM     17  C   UNL     1       5.469   4.885  15.686  0.00  0.00    +0.000 A 
ATOM     18  C   UNL     1       4.399   5.031  16.588  0.00  0.00    +0.000 A 
ENDBRANCH   7  10
BRANCH   5  19
ATOM     19  C   UNL     1       0.257   8.694  20.975  0.00  0.00    +0.000 C 
ATOM     20  C   UNL     1       0.094   8.700  22.497  0.00  0.00    +0.000 C 
BRANCH  19  21
ATOM     21  C   UNL     1      -0.263  10.004  20.388  0.00  0.00    +0.000 A 
ATOM     22  C   UNL     1       0.014  11.241  20.986  0.00  0.00    +0.000 A 
ATOM     23  C   UNL     1      -0.568  12.406  20.497  0.00  0.00    +0.000 A 
ATOM     24  C   UNL     1      -1.431  12.353  19.400  0.00  0.00    +0.000 A 
ATOM     25  C   UNL     1      -1.680  11.149  18.732  0.00  0.00    +0.000 A 
ATOM     26  C   UNL     1      -1.080   9.982  19.242  0.00  0.00    +0.000 A 
BRANCH  25  27
ATOM     27  C   UNL     1      -2.588  11.052  17.575  0.00  0.00    +0.000 A 
ATOM     28  C   UNL     1      -2.295  10.661  16.276  0.00  0.00    +0.000 A 
ATOM     29  C   UNL     1      -3.500  10.735  15.564  0.00  0.00    +0.000 A 
ATOM     30  N   UNL     1      -4.507  11.145  16.328  0.00  0.00    +0.000 NA
ATOM     31  N   UNL     1      -3.938  11.356  17.535  0.00  0.00    +0.000 N 
ATOM     32  C   UNL     1      -4.781  11.882  18.583  0.00  0.00    +0.000 C 
ENDBRANCH  25  27
ENDBRANCH  19  21
ENDBRANCH   5  19
TORSDOF 4
ENDMDL
MODEL 7
REMARK VINA RESULT:      -8.5      4.534      9.918
REMARK  Name = 
REMARK  7 active torsions:
REMARK  status: ('A' for Active; 'I' for Inactive)
REMARK    1  A    between atoms: C_1  and  C_2
REMARK    2  A    between atoms: N_5  and  C_6
REMARK    3  A    between atoms: C_6  and  C_7
REMARK    4  A    between atoms: C_6  and  C_8
REMARK    5  A    between atoms: C_12  and  C_13
REMARK    6  A    between atoms: N_17  and  C_18
REMARK    7  A    between atoms: C_21  and  C_22
REMARK                            x       y       z     vdW  Elec       q    Type
REMARK                         _______ _______ _______ _____ _____    ______ ____
ROOT
ATOM      1  C   UNL     1      -0.179   9.571  22.904  0.00  0.00    +0.000 C 
ATOM      2  C   UNL     1       0.492   9.802  21.586  0.00  0.00    +0.000 A 
ATOM      3  N   UNL     1       0.979   8.734  20.929  0.00  0.00    +0.000 NA
ATOM      4  C   UNL     1       1.489   8.946  19.708  0.00  0.00    +0.000 A 
ATOM      5  N   UNL     1       2.025   7.894  18.961  0.00  0.00    +0.000 N 
ATOM      6  C   UNL     1       1.517  10.205  19.145  0.00  0.00    +0.000 A 
ATOM      7  C   UNL     1       1.063  11.261  19.911  0.00  0.00    +0.000 A 
ATOM      8  N   UNL     1       0.536  11.066  21.136  0.00  0.00    +0.000 NA
ATOM      9  H   UNL     1       1.468   7.706  18.136  0.00  0.00    +0.000 HD
ENDROOT
BRANCH   7  10
ATOM     10  C   UNL     1       1.153  12.668  19.463  0.00  0.00    +0.000 A 
ATOM     11  C   UNL     1       0.062  13.539  19.620  0.00  0.00    +0.000 A 
ATOM     12  C   UNL     1       0.117  14.883  19.219  0.00  0.00    +0.000 A 
ATOM     13  C   UNL     1       1.291  15.386  18.635  0.00  0.00    +0.000 A 
ATOM     14  N   UNL     1       1.493  16.686  18.186  0.00  0.00    +0.000 NA
ATOM     15  C   UNL     1       2.706  16.794  17.696  0.00  0.00    +0.000 A 
ATOM     16  S   UNL     1       3.678  15.388  17.742  0.00  0.00    +0.000 S 
ATOM     17  C   UNL     1       2.378  14.525  18.476  0.00  0.00    +0.000 A 
ATOM     18  C   UNL     1       2.330  13.177  18.878  0.00  0.00    +0.000 A 
ENDBRANCH   7  10
BRANCH   5  19
ATOM     19  C   UNL     1       2.462   6.702  19.679  0.00  0.00    +0.000 C 
ATOM     20  C   UNL     1       1.446   6.227  20.721  0.00  0.00    +0.000 C 
BRANCH  19  21
ATOM     21  C   UNL     1       2.720   5.597  18.658  0.00  0.00    +0.000 A 
ATOM     22  C   UNL     1       1.890   4.472  18.563  0.00  0.00    +0.000 A 
ATOM     23  C   UNL     1       2.216   3.427  17.704  0.00  0.00    +0.000 A 
ATOM     24  C   UNL     1       3.372   3.495  16.923  0.00  0.00    +0.000 A 
ATOM     25  C   UNL     1       4.190   4.629  16.937  0.00  0.00    +0.000 A 
ATOM     26  C   UNL     1       3.843   5.676  17.811  0.00  0.00    +0.000 A 
BRANCH  25  27
ATOM     27  C   UNL     1       5.421   4.735  16.131  0.00  0.00    +0.000 A 
ATOM     28  C   UNL     1       5.548   4.781  14.750  0.00  0.00    +0.000 A 
ATOM     29  C   UNL     1       6.921   4.886  14.487  0.00  0.00    +0.000 A 
ATOM     30  N   UNL     1       7.643   4.904  15.604  0.00  0.00    +0.000 NA
ATOM     31  N   UNL     1       6.725   4.788  16.589  0.00  0.00    +0.000 N 
ATOM     32  C   UNL     1       7.216   4.708  17.945  0.00  0.00    +0.000 C 
ENDBRANCH  25  27
ENDBRANCH  19  21
ENDBRANCH   5  19
TORSDOF 4
ENDMDL
MODEL 8
REMARK VINA RESULT:      -8.2      1.860      3.674
REMARK  Name = 
REMARK  7 active torsions:
REMARK  status: ('A' for Active; 'I' for Inactive)
REMARK    1  A    between atoms: C_1  and  C_2
REMARK    2  A    between atoms: N_5  and  C_6
REMARK    3  A    between atoms: C_6  and  C_7
REMARK    4  A    between atoms: C_6  and  C_8
REMARK    5  A    between atoms: C_12  and  C_13
REMARK    6  A    between atoms: N_17  and  C_18
REMARK    7  A    between atoms: C_21  and  C_22
REMARK                            x       y       z     vdW  Elec       q    Type
REMARK                         _______ _______ _______ _____ _____    ______ ____
ROOT
ATOM      1  C   UNL     1       1.088   3.888  20.235  0.00  0.00    +0.000 C 
ATOM      2  C   UNL     1       1.801   5.115  19.760  0.00  0.00    +0.000 A 
ATOM      3  N   UNL     1       1.383   6.308  20.220  0.00  0.00    +0.000 NA
ATOM      4  C   UNL     1       2.092   7.386  19.861  0.00  0.00    +0.000 A 
ATOM      5  N   UNL     1       1.721   8.665  20.286  0.00  0.00    +0.000 N 
ATOM      6  C   UNL     1       3.205   7.283  19.052  0.00  0.00    +0.000 A 
ATOM      7  C   UNL     1       3.529   6.032  18.562  0.00  0.00    +0.000 A 
ATOM      8  N   UNL     1       2.835   4.935  18.922  0.00  0.00    +0.000 NA
ATOM      9  H   UNL     1       2.408   9.056  20.919  0.00  0.00    +0.000 HD
ENDROOT
BRANCH   7  10
ATOM     10  C   UNL     1       4.625   5.816  17.593  0.00  0.00    +0.000 A 
ATOM     11  C   UNL     1       5.899   6.363  17.823  0.00  0.00    +0.000 A 
ATOM     12  C   UNL     1       6.966   6.165  16.933  0.00  0.00    +0.000 A 
ATOM     13  C   UNL     1       6.768   5.406  15.768  0.00  0.00    +0.000 A 
ATOM     14  N   UNL     1       7.723   5.131  14.795  0.00  0.00    +0.000 NA
ATOM     15  C   UNL     1       7.182   4.397  13.851  0.00  0.00    +0.000 A 
ATOM     16  S   UNL     1       5.535   3.983  14.051  0.00  0.00    +0.000 S 
ATOM     17  C   UNL     1       5.505   4.861  15.535  0.00  0.00    +0.000 A 
ATOM     18  C   UNL     1       4.432   5.053  16.425  0.00  0.00    +0.000 A 
ENDBRANCH   7  10
BRANCH   5  19
ATOM     19  C   UNL     1       0.336   8.870  20.695  0.00  0.00    +0.000 C 
ATOM     20  C   UNL     1       0.152   8.846  22.215  0.00  0.00    +0.000 C 
BRANCH  19  21
ATOM     21  C   UNL     1      -0.133  10.209  20.133  0.00  0.00    +0.000 A 
ATOM     22  C   UNL     1       0.578  11.395  20.361  0.00  0.00    +0.000 A 
ATOM     23  C   UNL     1       0.065  12.617  19.935  0.00  0.00    +0.000 A 
ATOM     24  C   UNL     1      -1.162  12.670  19.271  0.00  0.00    +0.000 A 
ATOM     25  C   UNL     1      -1.871  11.504  18.963  0.00  0.00    +0.000 A 
ATOM     26  C   UNL     1      -1.334  10.278  19.401  0.00  0.00    +0.000 A 
BRANCH  25  27
ATOM     27  C   UNL     1      -3.171  11.521  18.269  0.00  0.00    +0.000 A 
ATOM     28  C   UNL     1      -4.420  11.849  18.779  0.00  0.00    +0.000 A 
ATOM     29  C   UNL     1      -5.324  11.713  17.717  0.00  0.00    +0.000 A 
ATOM     30  N   UNL     1      -4.723  11.322  16.597  0.00  0.00    +0.000 NA
ATOM     31  N   UNL     1      -3.427  11.188  16.950  0.00  0.00    +0.000 N 
ATOM     32  C   UNL     1      -2.513  10.700  15.944  0.00  0.00    +0.000 C 
ENDBRANCH  25  27
ENDBRANCH  19  21
ENDBRANCH   5  19
TORSDOF 4
ENDMDL
MODEL 9
REMARK VINA RESULT:      -8.2      3.649     10.176
REMARK  Name = 
REMARK  7 active torsions:
REMARK  status: ('A' for Active; 'I' for Inactive)
REMARK    1  A    between atoms: C_1  and  C_2
REMARK    2  A    between atoms: N_5  and  C_6
REMARK    3  A    between atoms: C_6  and  C_7
REMARK    4  A    between atoms: C_6  and  C_8
REMARK    5  A    between atoms: C_12  and  C_13
REMARK    6  A    between atoms: N_17  and  C_18
REMARK    7  A    between atoms: C_21  and  C_22
REMARK                            x       y       z     vdW  Elec       q    Type
REMARK                         _______ _______ _______ _____ _____    ______ ____
ROOT
ATOM      1  C   UNL     1      -3.336  11.015  15.581  0.00  0.00    +0.000 C 
ATOM      2  C   UNL     1      -2.912  11.263  16.995  0.00  0.00    +0.000 A 
ATOM      3  N   UNL     1      -1.597  11.223  17.277  0.00  0.00    +0.000 NA
ATOM      4  C   UNL     1      -1.229  11.541  18.524  0.00  0.00    +0.000 A 
ATOM      5  N   UNL     1       0.116  11.515  18.905  0.00  0.00    +0.000 N 
ATOM      6  C   UNL     1      -2.154  11.895  19.484  0.00  0.00    +0.000 A 
ATOM      7  C   UNL     1      -3.491  11.844  19.137  0.00  0.00    +0.000 A 
ATOM      8  N   UNL     1      -3.880  11.537  17.884  0.00  0.00    +0.000 NA
ATOM      9  H   UNL     1       0.458  12.446  19.113  0.00  0.00    +0.000 HD
ENDROOT
BRANCH   7  10
ATOM     10  C   UNL     1      -4.577  12.085  20.112  0.00  0.00    +0.000 A 
ATOM     11  C   UNL     1      -5.859  11.550  19.899  0.00  0.00    +0.000 A 
ATOM     12  C   UNL     1      -6.908  11.745  20.809  0.00  0.00    +0.000 A 
ATOM     13  C   UNL     1      -6.689  12.504  21.971  0.00  0.00    +0.000 A 
ATOM     14  N   UNL     1      -7.627  12.787  22.956  0.00  0.00    +0.000 NA
ATOM     15  C   UNL     1      -7.070  13.523  23.890  0.00  0.00    +0.000 A 
ATOM     16  S   UNL     1      -5.420  13.916  23.671  0.00  0.00    +0.000 S 
ATOM     17  C   UNL     1      -5.417  13.038  22.187  0.00  0.00    +0.000 A 
ATOM     18  C   UNL     1      -4.360  12.843  21.279  0.00  0.00    +0.000 A 
ENDBRANCH   7  10
BRANCH   5  19
ATOM     19  C   UNL     1       1.031  10.697  18.116  0.00  0.00    +0.000 C 
ATOM     20  C   UNL     1       2.349  11.409  17.802  0.00  0.00    +0.000 C 
BRANCH  19  21
ATOM     21  C   UNL     1       1.303   9.408  18.887  0.00  0.00    +0.000 A 
ATOM     22  C   UNL     1       0.894   9.244  20.217  0.00  0.00    +0.000 A 
ATOM     23  C   UNL     1       1.257   8.105  20.930  0.00  0.00    +0.000 A 
ATOM     24  C   UNL     1       2.029   7.112  20.323  0.00  0.00    +0.000 A 
ATOM     25  C   UNL     1       2.401   7.206  18.977  0.00  0.00    +0.000 A 
ATOM     26  C   UNL     1       2.022   8.364  18.273  0.00  0.00    +0.000 A 
BRANCH  25  27
ATOM     27  C   UNL     1       3.219   6.182  18.303  0.00  0.00    +0.000 A 
ATOM     28  C   UNL     1       4.563   6.238  17.959  0.00  0.00    +0.000 A 
ATOM     29  C   UNL     1       4.861   5.013  17.346  0.00  0.00    +0.000 A 
ATOM     30  N   UNL     1       3.800   4.215  17.285  0.00  0.00    +0.000 NA
ATOM     31  N   UNL     1       2.809   4.942  17.845  0.00  0.00    +0.000 N 
ATOM     32  C   UNL     1       1.488   4.359  17.864  0.00  0.00    +0.000 C 
ENDBRANCH  25  27
ENDBRANCH  19  21
ENDBRANCH   5  19
TORSDOF 4
ENDMDL
