MODEL 1
REMARK VINA RESULT:      -8.1      0.000      0.000
REMARK  Name = 
REMARK  9 active torsions:
REMARK  status: ('A' for Active; 'I' for Inactive)
REMARK    1  A    between atoms: C_1  and  O_2
REMARK    2  A    between atoms: O_2  and  C_3
REMARK    3  A    between atoms: C_3  and  C_5
REMARK    4  A    between atoms: C_5  and  S_6
REMARK    5  A    between atoms: S_6  and  C_7
REMARK    6  A    between atoms: C_20  and  C_21
REMARK    7  A    between atoms: C_23  and  C_24
REMARK    8  A    between atoms: C_28  and  C_29
REMARK    9  A    between atoms: C_28  and  C_30
REMARK                            x       y       z     vdW  Elec       q    Type
REMARK                         _______ _______ _______ _____ _____    ______ ____
ROOT
ATOM      1  C   UNL     1       1.633  10.598  18.567  0.00  0.00    +0.000 A 
ATOM      2  N   UNL     1       2.259  10.308  17.441  0.00  0.00    +0.000 NA
ATOM      3  N   UNL     1       2.566   8.973  17.451  0.00  0.00    +0.000 NA
ATOM      4  C   UNL     1       2.105   8.491  18.575  0.00  0.00    +0.000 A 
ATOM      5  C   UNL     1       2.254   7.139  19.131  0.00  0.00    +0.000 A 
ATOM      6  C   UNL     1       2.952   6.010  18.665  0.00  0.00    +0.000 A 
ATOM      7  C   UNL     1       2.722   4.925  19.488  0.00  0.00    +0.000 A 
ATOM      8  S   UNL     1       1.790   5.334  20.861  0.00  0.00    +0.000 S 
ATOM      9  C   UNL     1       1.628   6.958  20.345  0.00  0.00    +0.000 A 
ATOM     10  N   UNL     1       0.936   7.890  21.061  0.00  0.00    +0.000 NA
ATOM     11  C   UNL     1       0.798   9.089  20.527  0.00  0.00    +0.000 A 
ATOM     12  N   UNL     1      -0.017  10.004  21.208  0.00  0.00    +0.000 N 
ATOM     13  N   UNL     1      -0.845  10.798  20.488  0.00  0.00    +0.000 NA
ATOM     14  C   UNL     1      -1.480  11.554  21.387  0.00  0.00    +0.000 A 
ATOM     15  C   UNL     1      -2.332  12.684  20.953  0.00  0.00    +0.000 C 
ATOM     16  C   UNL     1      -1.202  11.132  22.700  0.00  0.00    +0.000 A 
ATOM     17  C   UNL     1      -0.261  10.132  22.572  0.00  0.00    +0.000 A 
ATOM     18  C   UNL     1       0.479   9.398  23.631  0.00  0.00    +0.000 C 
ATOM     19  N   UNL     1       1.407   9.440  19.295  0.00  0.00    +0.000 N 
ATOM     20  C   UNL     1       3.281   3.553  19.270  0.00  0.00    +0.000 C 
ATOM     21  O   UNL     1       3.937   3.483  17.984  0.00  0.00    +0.000 OA
ATOM     22  C   UNL     1       4.742   4.630  17.621  0.00  0.00    +0.000 C 
ATOM     23  C   UNL     1       5.886   4.839  18.629  0.00  0.00    +0.000 C 
ATOM     24  C   UNL     1       5.363   4.326  16.251  0.00  0.00    +0.000 C 
ATOM     25  C   UNL     1       3.832   5.878  17.471  0.00  0.00    +0.000 C 
ENDROOT
BRANCH   1  26
ATOM     26  S   UNL     1       1.414  12.220  19.124  0.00  0.00    +0.000 S 
BRANCH  26  27
ATOM     27  C   UNL     1       2.721  13.116  18.228  0.00  0.00    +0.000 C 
BRANCH  27  28
ATOM     28  C   UNL     1       2.484  14.613  18.300  0.00  0.00    +0.000 C 
ATOM     29  O   UNL     1       1.493  15.176  18.750  0.00  0.00    +0.000 OA
BRANCH  28  31
ATOM     30  C   UNL     1       4.811  14.659  18.038  0.00  0.00    +0.000 C 
ATOM     31  O   UNL     1       3.551  15.274  17.757  0.00  0.00    +0.000 OA
ENDBRANCH  28  31
ENDBRANCH  27  28
ENDBRANCH  26  27
ENDBRANCH   1  26
TORSDOF 4
ENDMDL
MODEL 2
REMARK VINA RESULT:      -7.6      1.264      1.592
REMARK  Name = 
REMARK  9 active torsions:
REMARK  status: ('A' for Active; 'I' for Inactive)
REMARK    1  A    between atoms: C_1  and  O_2
REMARK    2  A    between atoms: O_2  and  C_3
REMARK    3  A    between atoms: C_3  and  C_5
REMARK    4  A    between atoms: C_5  and  S_6
REMARK    5  A    between atoms: S_6  and  C_7
REMARK    6  A    between atoms: C_20  and  C_21
REMARK    7  A    between atoms: C_23  and  C_24
REMARK    8  A    between atoms: C_28  and  C_29
REMARK    9  A    between atoms: C_28  and  C_30
REMARK                            x       y       z     vdW  Elec       q    Type
REMARK                         _______ _______ _______ _____ _____    ______ ____
ROOT
ATOM      1  C   UNL     1       1.462  10.936  18.610  0.00  0.00    +0.000 A 
ATOM      2  N   UNL     1       2.133  10.688  17.500  0.00  0.00    +0.000 NA
ATOM      3  N   UNL     1       2.493   9.366  17.500  0.00  0.00    +0.000 NA
ATOM      4  C   UNL     1       2.018   8.849  18.603  0.00  0.00    +0.000 A 
ATOM      5  C   UNL     1       2.205   7.496  19.144  0.00  0.00    +0.000 A 
ATOM      6  C   UNL     1       2.960   6.403  18.684  0.00  0.00    +0.000 A 
ATOM      7  C   UNL     1       2.750   5.298  19.485  0.00  0.00    +0.000 A 
ATOM      8  S   UNL     1       1.761   5.648  20.834  0.00  0.00    +0.000 S 
ATOM      9  C   UNL     1       1.550   7.273  20.335  0.00  0.00    +0.000 A 
ATOM     10  N   UNL     1       0.800   8.165  21.043  0.00  0.00    +0.000 NA
ATOM     11  C   UNL     1       0.629   9.366  20.521  0.00  0.00    +0.000 A 
ATOM     12  N   UNL     1      -0.241  10.237  21.190  0.00  0.00    +0.000 N 
ATOM     13  N   UNL     1      -1.079  11.009  20.456  0.00  0.00    +0.000 NA
ATOM     14  C   UNL     1      -1.770  11.725  21.346  0.00  0.00    +0.000 A 
ATOM     15  C   UNL     1      -2.654  12.827  20.903  0.00  0.00    +0.000 C 
ATOM     16  C   UNL     1      -1.515  11.294  22.662  0.00  0.00    +0.000 A 
ATOM     17  C   UNL     1      -0.531  10.335  22.548  0.00  0.00    +0.000 A 
ATOM     18  C   UNL     1       0.206   9.615  23.619  0.00  0.00    +0.000 C 
ATOM     19  N   UNL     1       1.261   9.759  19.314  0.00  0.00    +0.000 N 
ATOM     20  C   UNL     1       3.370   3.952  19.264  0.00  0.00    +0.000 C 
ATOM     21  O   UNL     1       4.066   3.928  17.998  0.00  0.00    +0.000 OA
ATOM     22  C   UNL     1       4.835   5.111  17.675  0.00  0.00    +0.000 C 
ATOM     23  C   UNL     1       5.939   5.350  18.721  0.00  0.00    +0.000 C 
ATOM     24  C   UNL     1       5.508   4.853  16.321  0.00  0.00    +0.000 C 
ATOM     25  C   UNL     1       3.880   6.324  17.516  0.00  0.00    +0.000 C 
ENDROOT
BRANCH   1  26
ATOM     26  S   UNL     1       1.161  12.540  19.182  0.00  0.00    +0.000 S 
BRANCH  26  27
ATOM     27  C   UNL     1       2.216  12.625  20.663  0.00  0.00    +0.000 C 
BRANCH  27  28
ATOM     28  C   UNL     1       2.646  14.057  20.926  0.00  0.00    +0.000 C 
ATOM     29  O   UNL     1       3.384  14.739  20.226  0.00  0.00    +0.000 OA
BRANCH  28  31
ATOM     30  C   UNL     1       0.672  14.587  22.071  0.00  0.00    +0.000 C 
ATOM     31  O   UNL     1       2.099  14.492  22.102  0.00  0.00    +0.000 OA
ENDBRANCH  28  31
ENDBRANCH  27  28
ENDBRANCH  26  27
ENDBRANCH   1  26
TORSDOF 4
ENDMDL
MODEL 3
REMARK VINA RESULT:      -7.6      1.159      1.273
REMARK  Name = 
REMARK  9 active torsions:
REMARK  status: ('A' for Active; 'I' for Inactive)
REMARK    1  A    between atoms: C_1  and  O_2
REMARK    2  A    between atoms: O_2  and  C_3
REMARK    3  A    between atoms: C_3  and  C_5
REMARK    4  A    between atoms: C_5  and  S_6
REMARK    5  A    between atoms: S_6  and  C_7
REMARK    6  A    between atoms: C_20  and  C_21
REMARK    7  A    between atoms: C_23  and  C_24
REMARK    8  A    between atoms: C_28  and  C_29
REMARK    9  A    between atoms: C_28  and  C_30
REMARK                            x       y       z     vdW  Elec       q    Type
REMARK                         _______ _______ _______ _____ _____    ______ ____
ROOT
ATOM      1  C   UNL     1       1.461  11.295  18.978  0.00  0.00    +0.000 A 
ATOM      2  N   UNL     1       2.094  11.198  17.823  0.00  0.00    +0.000 NA
ATOM      3  N   UNL     1       2.448   9.888  17.635  0.00  0.00    +0.000 NA
ATOM      4  C   UNL     1       2.009   9.228  18.674  0.00  0.00    +0.000 A 
ATOM      5  C   UNL     1       2.209   7.816  19.024  0.00  0.00    +0.000 A 
ATOM      6  C   UNL     1       2.944   6.794  18.397  0.00  0.00    +0.000 A 
ATOM      7  C   UNL     1       2.757   5.591  19.050  0.00  0.00    +0.000 A 
ATOM      8  S   UNL     1       1.815   5.758  20.467  0.00  0.00    +0.000 S 
ATOM      9  C   UNL     1       1.594   7.434  20.196  0.00  0.00    +0.000 A 
ATOM     10  N   UNL     1       0.871   8.224  21.041  0.00  0.00    +0.000 NA
ATOM     11  C   UNL     1       0.688   9.483  20.690  0.00  0.00    +0.000 A 
ATOM     12  N   UNL     1      -0.157  10.257  21.498  0.00  0.00    +0.000 N 
ATOM     13  N   UNL     1      -1.016  11.119  20.902  0.00  0.00    +0.000 NA
ATOM     14  C   UNL     1      -1.674  11.710  21.903  0.00  0.00    +0.000 A 
ATOM     15  C   UNL     1      -2.568  12.860  21.640  0.00  0.00    +0.000 C 
ATOM     16  C   UNL     1      -1.377  11.108  23.139  0.00  0.00    +0.000 A 
ATOM     17  C   UNL     1      -0.400  10.173  22.866  0.00  0.00    +0.000 A 
ATOM     18  C   UNL     1       0.369   9.317  23.806  0.00  0.00    +0.000 C 
ATOM     19  N   UNL     1       1.280  10.034  19.525  0.00  0.00    +0.000 N 
ATOM     20  C   UNL     1       3.364   4.288  18.631  0.00  0.00    +0.000 C 
ATOM     21  O   UNL     1       4.018   4.433  17.351  0.00  0.00    +0.000 OA
ATOM     22  C   UNL     1       4.779   5.649  17.163  0.00  0.00    +0.000 C 
ATOM     23  C   UNL     1       5.918   5.747  18.193  0.00  0.00    +0.000 C 
ATOM     24  C   UNL     1       5.406   5.574  15.764  0.00  0.00    +0.000 C 
ATOM     25  C   UNL     1       3.824   6.872  17.199  0.00  0.00    +0.000 C 
ENDROOT
BRANCH   1  26
ATOM     26  S   UNL     1       1.186  12.808  19.768  0.00  0.00    +0.000 S 
BRANCH  26  27
ATOM     27  C   UNL     1       0.158  13.695  18.556  0.00  0.00    +0.000 C 
BRANCH  27  28
ATOM     28  C   UNL     1       0.300  15.196  18.737  0.00  0.00    +0.000 C 
ATOM     29  O   UNL     1      -0.578  16.036  18.588  0.00  0.00    +0.000 OA
BRANCH  28  31
ATOM     30  C   UNL     1       2.131  16.608  18.359  0.00  0.00    +0.000 C 
ATOM     31  O   UNL     1       1.590  15.497  19.079  0.00  0.00    +0.000 OA
ENDBRANCH  28  31
ENDBRANCH  27  28
ENDBRANCH  26  27
ENDBRANCH   1  26
TORSDOF 4
ENDMDL
MODEL 4
REMARK VINA RESULT:      -7.1      1.284      1.787
REMARK  Name = 
REMARK  9 active torsions:
REMARK  status: ('A' for Active; 'I' for Inactive)
REMARK    1  A    between atoms: C_1  and  O_2
REMARK    2  A    between atoms: O_2  and  C_3
REMARK    3  A    between atoms: C_3  and  C_5
REMARK    4  A    between atoms: C_5  and  S_6
REMARK    5  A    between atoms: S_6  and  C_7
REMARK    6  A    between atoms: C_20  and  C_21
REMARK    7  A    between atoms: C_23  and  C_24
REMARK    8  A    between atoms: C_28  and  C_29
REMARK    9  A    between atoms: C_28  and  C_30
REMARK                            x       y       z     vdW  Elec       q    Type
REMARK                         _______ _______ _______ _____ _____    ______ ____
ROOT
ATOM      1  C   UNL     1       1.644  10.495  18.823  0.00  0.00    +0.000 A 
ATOM      2  N   UNL     1       2.218  10.253  17.659  0.00  0.00    +0.000 NA
ATOM      3  N   UNL     1       2.510   8.917  17.592  0.00  0.00    +0.000 NA
ATOM      4  C   UNL     1       2.092   8.386  18.711  0.00  0.00    +0.000 A 
ATOM      5  C   UNL     1       2.251   7.008  19.195  0.00  0.00    +0.000 A 
ATOM      6  C   UNL     1       2.914   5.896  18.646  0.00  0.00    +0.000 A 
ATOM      7  C   UNL     1       2.708   4.775  19.426  0.00  0.00    +0.000 A 
ATOM      8  S   UNL     1       1.841   5.126  20.856  0.00  0.00    +0.000 S 
ATOM      9  C   UNL     1       1.675   6.775  20.425  0.00  0.00    +0.000 A 
ATOM     10  N   UNL     1       1.025   7.677  21.214  0.00  0.00    +0.000 NA
ATOM     11  C   UNL     1       0.877   8.902  20.744  0.00  0.00    +0.000 A 
ATOM     12  N   UNL     1       0.103   9.790  21.502  0.00  0.00    +0.000 N 
ATOM     13  N   UNL     1      -0.747  10.626  20.857  0.00  0.00    +0.000 NA
ATOM     14  C   UNL     1      -1.334  11.344  21.818  0.00  0.00    +0.000 A 
ATOM     15  C   UNL     1      -2.191  12.501  21.476  0.00  0.00    +0.000 C 
ATOM     16  C   UNL     1      -1.004  10.856  23.097  0.00  0.00    +0.000 A 
ATOM     17  C   UNL     1      -0.081   9.856  22.880  0.00  0.00    +0.000 A 
ATOM     18  C   UNL     1       0.696   9.065  23.870  0.00  0.00    +0.000 C 
ATOM     19  N   UNL     1       1.437   9.305  19.504  0.00  0.00    +0.000 N 
ATOM     20  C   UNL     1       3.242   3.410  19.119  0.00  0.00    +0.000 C 
ATOM     21  O   UNL     1       3.841   3.396  17.804  0.00  0.00    +0.000 OA
ATOM     22  C   UNL     1       4.642   4.551  17.460  0.00  0.00    +0.000 C 
ATOM     23  C   UNL     1       5.831   4.701  18.426  0.00  0.00    +0.000 C 
ATOM     24  C   UNL     1       5.200   4.307  16.052  0.00  0.00    +0.000 C 
ATOM     25  C   UNL     1       3.741   5.813  17.410  0.00  0.00    +0.000 C 
ENDROOT
BRANCH   1  26
ATOM     26  S   UNL     1       1.467  12.091  19.465  0.00  0.00    +0.000 S 
BRANCH  26  27
ATOM     27  C   UNL     1       0.821  13.013  18.035  0.00  0.00    +0.000 C 
BRANCH  27  28
ATOM     28  C   UNL     1      -0.407  13.812  18.430  0.00  0.00    +0.000 C 
ATOM     29  O   UNL     1      -0.466  15.023  18.604  0.00  0.00    +0.000 OA
BRANCH  28  31
ATOM     30  C   UNL     1      -1.618  12.019  17.532  0.00  0.00    +0.000 C 
ATOM     31  O   UNL     1      -1.472  12.968  18.592  0.00  0.00    +0.000 OA
ENDBRANCH  28  31
ENDBRANCH  27  28
ENDBRANCH  26  27
ENDBRANCH   1  26
TORSDOF 4
ENDMDL
MODEL 5
REMARK VINA RESULT:      -6.9      2.630      7.563
REMARK  Name = 
REMARK  9 active torsions:
REMARK  status: ('A' for Active; 'I' for Inactive)
REMARK    1  A    between atoms: C_1  and  O_2
REMARK    2  A    between atoms: O_2  and  C_3
REMARK    3  A    between atoms: C_3  and  C_5
REMARK    4  A    between atoms: C_5  and  S_6
REMARK    5  A    between atoms: S_6  and  C_7
REMARK    6  A    between atoms: C_20  and  C_21
REMARK    7  A    between atoms: C_23  and  C_24
REMARK    8  A    between atoms: C_28  and  C_29
REMARK    9  A    between atoms: C_28  and  C_30
REMARK                            x       y       z     vdW  Elec       q    Type
REMARK                         _______ _______ _______ _____ _____    ______ ____
ROOT
ATOM      1  C   UNL     1       3.705   6.120  17.730  0.00  0.00    +0.000 A 
ATOM      2  N   UNL     1       4.003   7.259  17.131  0.00  0.00    +0.000 NA
ATOM      3  N   UNL     1       3.323   8.268  17.760  0.00  0.00    +0.000 NA
ATOM      4  C   UNL     1       2.646   7.714  18.731  0.00  0.00    +0.000 A 
ATOM      5  C   UNL     1       1.675   8.328  19.647  0.00  0.00    +0.000 A 
ATOM      6  C   UNL     1       1.163   9.636  19.726  0.00  0.00    +0.000 A 
ATOM      7  C   UNL     1       0.335   9.767  20.823  0.00  0.00    +0.000 A 
ATOM      8  S   UNL     1       0.096   8.285  21.640  0.00  0.00    +0.000 S 
ATOM      9  C   UNL     1       1.145   7.455  20.572  0.00  0.00    +0.000 A 
ATOM     10  N   UNL     1       1.407   6.123  20.690  0.00  0.00    +0.000 NA
ATOM     11  C   UNL     1       2.300   5.602  19.869  0.00  0.00    +0.000 A 
ATOM     12  N   UNL     1       2.656   4.262  20.075  0.00  0.00    +0.000 N 
ATOM     13  N   UNL     1       3.958   3.908  19.947  0.00  0.00    +0.000 NA
ATOM     14  C   UNL     1       3.992   2.595  20.190  0.00  0.00    +0.000 A 
ATOM     15  C   UNL     1       5.229   1.818  19.952  0.00  0.00    +0.000 C 
ATOM     16  C   UNL     1       2.749   2.126  20.652  0.00  0.00    +0.000 A 
ATOM     17  C   UNL     1       1.897   3.208  20.576  0.00  0.00    +0.000 A 
ATOM     18  C   UNL     1       0.435   3.271  20.830  0.00  0.00    +0.000 C 
ATOM     19  N   UNL     1       2.915   6.365  18.843  0.00  0.00    +0.000 N 
ATOM     20  C   UNL     1      -0.353  11.034  21.228  0.00  0.00    +0.000 C 
ATOM     21  O   UNL     1       0.119  12.135  20.419  0.00  0.00    +0.000 OA
ATOM     22  C   UNL     1       0.293  11.857  19.010  0.00  0.00    +0.000 C 
ATOM     23  C   UNL     1      -1.041  11.444  18.363  0.00  0.00    +0.000 C 
ATOM     24  C   UNL     1       0.760  13.161  18.350  0.00  0.00    +0.000 C 
ATOM     25  C   UNL     1       1.410  10.795  18.824  0.00  0.00    +0.000 C 
ENDROOT
BRANCH   1  26
ATOM     26  S   UNL     1       4.037   4.577  17.026  0.00  0.00    +0.000 S 
BRANCH  26  27
ATOM     27  C   UNL     1       5.567   4.900  16.094  0.00  0.00    +0.000 C 
BRANCH  27  28
ATOM     28  C   UNL     1       6.734   5.105  17.044  0.00  0.00    +0.000 C 
ATOM     29  O   UNL     1       6.979   4.455  18.052  0.00  0.00    +0.000 OA
BRANCH  28  31
ATOM     30  C   UNL     1       7.518   7.255  17.545  0.00  0.00    +0.000 C 
ATOM     31  O   UNL     1       7.489   6.165  16.620  0.00  0.00    +0.000 OA
ENDBRANCH  28  31
ENDBRANCH  27  28
ENDBRANCH  26  27
ENDBRANCH   1  26
TORSDOF 4
ENDMDL
MODEL 6
REMARK VINA RESULT:      -6.9      1.950      2.467
REMARK  Name = 
REMARK  9 active torsions:
REMARK  status: ('A' for Active; 'I' for Inactive)
REMARK    1  A    between atoms: C_1  and  O_2
REMARK    2  A    between atoms: O_2  and  C_3
REMARK    3  A    between atoms: C_3  and  C_5
REMARK    4  A    between atoms: C_5  and  S_6
REMARK    5  A    between atoms: S_6  and  C_7
REMARK    6  A    between atoms: C_20  and  C_21
REMARK    7  A    between atoms: C_23  and  C_24
REMARK    8  A    between atoms: C_28  and  C_29
REMARK    9  A    between atoms: C_28  and  C_30
REMARK                            x       y       z     vdW  Elec       q    Type
REMARK                         _______ _______ _______ _____ _____    ______ ____
ROOT
ATOM      1  C   UNL     1       1.382  10.502  18.736  0.00  0.00    +0.000 A 
ATOM      2  N   UNL     1       1.909  10.266  17.548  0.00  0.00    +0.000 NA
ATOM      3  N   UNL     1       2.308   8.956  17.507  0.00  0.00    +0.000 NA
ATOM      4  C   UNL     1       1.999   8.434  18.665  0.00  0.00    +0.000 A 
ATOM      5  C   UNL     1       2.300   7.092  19.183  0.00  0.00    +0.000 A 
ATOM      6  C   UNL     1       3.023   6.020  18.632  0.00  0.00    +0.000 A 
ATOM      7  C   UNL     1       2.956   4.915  19.458  0.00  0.00    +0.000 A 
ATOM      8  S   UNL     1       2.143   5.246  20.925  0.00  0.00    +0.000 S 
ATOM      9  C   UNL     1       1.815   6.858  20.451  0.00  0.00    +0.000 A 
ATOM     10  N   UNL     1       1.136   7.732  21.247  0.00  0.00    +0.000 NA
ATOM     11  C   UNL     1       0.860   8.923  20.748  0.00  0.00    +0.000 A 
ATOM     12  N   UNL     1       0.057   9.772  21.521  0.00  0.00    +0.000 N 
ATOM     13  N   UNL     1      -0.895  10.511  20.901  0.00  0.00    +0.000 NA
ATOM     14  C   UNL     1      -1.486  11.212  21.871  0.00  0.00    +0.000 A 
ATOM     15  C   UNL     1      -2.455  12.282  21.542  0.00  0.00    +0.000 C 
ATOM     16  C   UNL     1      -1.046  10.801  23.143  0.00  0.00    +0.000 A 
ATOM     17  C   UNL     1      -0.054   9.873  22.905  0.00  0.00    +0.000 A 
ATOM     18  C   UNL     1       0.839   9.186  23.873  0.00  0.00    +0.000 C 
ATOM     19  N   UNL     1       1.314   9.325  19.465  0.00  0.00    +0.000 N 
ATOM     20  C   UNL     1       3.585   3.588  19.164  0.00  0.00    +0.000 C 
ATOM     21  O   UNL     1       4.109   3.575  17.818  0.00  0.00    +0.000 OA
ATOM     22  C   UNL     1       4.790   4.779  17.391  0.00  0.00    +0.000 C 
ATOM     23  C   UNL     1       6.013   5.061  18.281  0.00  0.00    +0.000 C 
ATOM     24  C   UNL     1       5.287   4.530  15.961  0.00  0.00    +0.000 C 
ATOM     25  C   UNL     1       3.784   5.960  17.353  0.00  0.00    +0.000 C 
ENDROOT
BRANCH   1  26
ATOM     26  S   UNL     1       1.107  12.101  19.335  0.00  0.00    +0.000 S 
BRANCH  26  27
ATOM     27  C   UNL     1      -0.125  12.746  18.161  0.00  0.00    +0.000 C 
BRANCH  27  28
ATOM     28  C   UNL     1      -1.265  11.759  17.992  0.00  0.00    +0.000 C 
ATOM     29  O   UNL     1      -1.205  10.657  17.460  0.00  0.00    +0.000 OA
BRANCH  28  31
ATOM     30  C   UNL     1      -3.601  11.613  18.089  0.00  0.00    +0.000 C 
ATOM     31  O   UNL     1      -2.414  12.290  18.510  0.00  0.00    +0.000 OA
ENDBRANCH  28  31
ENDBRANCH  27  28
ENDBRANCH  26  27
ENDBRANCH   1  26
TORSDOF 4
ENDMDL
MODEL 7
REMARK VINA RESULT:      -6.9      2.644      7.848
REMARK  Name = 
REMARK  9 active torsions:
REMARK  status: ('A' for Active; 'I' for Inactive)
REMARK    1  A    between atoms: C_1  and  O_2
REMARK    2  A    between atoms: O_2  and  C_3
REMARK    3  A    between atoms: C_3  and  C_5
REMARK    4  A    between atoms: C_5  and  S_6
REMARK    5  A    between atoms: S_6  and  C_7
REMARK    6  A    between atoms: C_20  and  C_21
REMARK    7  A    between atoms: C_23  and  C_24
REMARK    8  A    between atoms: C_28  and  C_29
REMARK    9  A    between atoms: C_28  and  C_30
REMARK                            x       y       z     vdW  Elec       q    Type
REMARK                         _______ _______ _______ _____ _____    ______ ____
ROOT
ATOM      1  C   UNL     1       3.746   6.138  17.756  0.00  0.00    +0.000 A 
ATOM      2  N   UNL     1       4.065   7.285  17.184  0.00  0.00    +0.000 NA
ATOM      3  N   UNL     1       3.364   8.285  17.805  0.00  0.00    +0.000 NA
ATOM      4  C   UNL     1       2.653   7.718  18.743  0.00  0.00    +0.000 A 
ATOM      5  C   UNL     1       1.651   8.318  19.634  0.00  0.00    +0.000 A 
ATOM      6  C   UNL     1       1.137   9.625  19.714  0.00  0.00    +0.000 A 
ATOM      7  C   UNL     1       0.271   9.740  20.784  0.00  0.00    +0.000 A 
ATOM      8  S   UNL     1       0.003   8.247  21.570  0.00  0.00    +0.000 S 
ATOM      9  C   UNL     1       1.089   7.432  20.526  0.00  0.00    +0.000 A 
ATOM     10  N   UNL     1       1.346   6.097  20.634  0.00  0.00    +0.000 NA
ATOM     11  C   UNL     1       2.268   5.589  19.837  0.00  0.00    +0.000 A 
ATOM     12  N   UNL     1       2.615   4.245  20.034  0.00  0.00    +0.000 N 
ATOM     13  N   UNL     1       3.921   3.892  19.947  0.00  0.00    +0.000 NA
ATOM     14  C   UNL     1       3.947   2.576  20.171  0.00  0.00    +0.000 A 
ATOM     15  C   UNL     1       5.191   1.802  19.965  0.00  0.00    +0.000 C 
ATOM     16  C   UNL     1       2.688   2.101  20.583  0.00  0.00    +0.000 A 
ATOM     17  C   UNL     1       1.840   3.185  20.493  0.00  0.00    +0.000 A 
ATOM     18  C   UNL     1       0.369   3.245  20.697  0.00  0.00    +0.000 C 
ATOM     19  N   UNL     1       2.918   6.367  18.844  0.00  0.00    +0.000 N 
ATOM     20  C   UNL     1      -0.430  11.002  21.184  0.00  0.00    +0.000 C 
ATOM     21  O   UNL     1       0.069  12.115  20.408  0.00  0.00    +0.000 OA
ATOM     22  C   UNL     1       0.293  11.857  19.002  0.00  0.00    +0.000 C 
ATOM     23  C   UNL     1      -1.018  11.455  18.303  0.00  0.00    +0.000 C 
ATOM     24  C   UNL     1       0.783  13.171  18.378  0.00  0.00    +0.000 C 
ATOM     25  C   UNL     1       1.415  10.797  18.839  0.00  0.00    +0.000 C 
ENDROOT
BRANCH   1  26
ATOM     26  S   UNL     1       4.103   4.605  17.040  0.00  0.00    +0.000 S 
BRANCH  26  27
ATOM     27  C   UNL     1       5.913   4.514  17.207  0.00  0.00    +0.000 C 
BRANCH  27  28
ATOM     28  C   UNL     1       6.577   4.633  15.847  0.00  0.00    +0.000 C 
ATOM     29  O   UNL     1       7.336   5.521  15.479  0.00  0.00    +0.000 OA
BRANCH  28  31
ATOM     30  C   UNL     1       6.172   3.905  13.657  0.00  0.00    +0.000 C 
ATOM     31  O   UNL     1       6.186   3.590  15.052  0.00  0.00    +0.000 OA
ENDBRANCH  28  31
ENDBRANCH  27  28
ENDBRANCH  26  27
ENDBRANCH   1  26
TORSDOF 4
ENDMDL
MODEL 8
REMARK VINA RESULT:      -6.7      3.123      5.275
REMARK  Name = 
REMARK  9 active torsions:
REMARK  status: ('A' for Active; 'I' for Inactive)
REMARK    1  A    between atoms: C_1  and  O_2
REMARK    2  A    between atoms: O_2  and  C_3
REMARK    3  A    between atoms: C_3  and  C_5
REMARK    4  A    between atoms: C_5  and  S_6
REMARK    5  A    between atoms: S_6  and  C_7
REMARK    6  A    between atoms: C_20  and  C_21
REMARK    7  A    between atoms: C_23  and  C_24
REMARK    8  A    between atoms: C_28  and  C_29
REMARK    9  A    between atoms: C_28  and  C_30
REMARK                            x       y       z     vdW  Elec       q    Type
REMARK                         _______ _______ _______ _____ _____    ______ ____
ROOT
ATOM      1  C   UNL     1      -0.105  11.021  22.452  0.00  0.00    +0.000 A 
ATOM      2  N   UNL     1       0.155  10.064  23.325  0.00  0.00    +0.000 NA
ATOM      3  N   UNL     1       0.788   9.042  22.668  0.00  0.00    +0.000 NA
ATOM      4  C   UNL     1       0.906   9.415  21.420  0.00  0.00    +0.000 A 
ATOM      5  C   UNL     1       1.416   8.653  20.273  0.00  0.00    +0.000 A 
ATOM      6  C   UNL     1       1.871   7.327  20.160  0.00  0.00    +0.000 A 
ATOM      7  C   UNL     1       2.346   7.084  18.886  0.00  0.00    +0.000 A 
ATOM      8  S   UNL     1       2.104   8.410  17.836  0.00  0.00    +0.000 S 
ATOM      9  C   UNL     1       1.413   9.354  19.087  0.00  0.00    +0.000 A 
ATOM     10  N   UNL     1       0.971  10.628  18.884  0.00  0.00    +0.000 NA
ATOM     11  C   UNL     1       0.539  11.297  19.937  0.00  0.00    +0.000 A 
ATOM     12  N   UNL     1       0.202  12.644  19.746  0.00  0.00    +0.000 N 
ATOM     13  N   UNL     1       0.552  13.543  20.698  0.00  0.00    +0.000 NA
ATOM     14  C   UNL     1       0.104  14.720  20.254  0.00  0.00    +0.000 A 
ATOM     15  C   UNL     1       0.136  15.915  21.127  0.00  0.00    +0.000 C 
ATOM     16  C   UNL     1      -0.378  14.622  18.936  0.00  0.00    +0.000 A 
ATOM     17  C   UNL     1      -0.308  13.281  18.619  0.00  0.00    +0.000 A 
ATOM     18  C   UNL     1      -0.785  12.579  17.400  0.00  0.00    +0.000 C 
ATOM     19  N   UNL     1       0.454  10.705  21.223  0.00  0.00    +0.000 N 
ATOM     20  C   UNL     1       2.937   5.786  18.428  0.00  0.00    +0.000 C 
ATOM     21  O   UNL     1       3.108   4.894  19.552  0.00  0.00    +0.000 OA
ATOM     22  C   UNL     1       2.023   4.866  20.509  0.00  0.00    +0.000 C 
ATOM     23  C   UNL     1       0.715   4.404  19.843  0.00  0.00    +0.000 C 
ATOM     24  C   UNL     1       2.400   3.838  21.584  0.00  0.00    +0.000 C 
ATOM     25  C   UNL     1       1.896   6.254  21.192  0.00  0.00    +0.000 C 
ENDROOT
BRANCH   1  26
ATOM     26  S   UNL     1      -1.219  12.303  22.775  0.00  0.00    +0.000 S 
BRANCH  26  27
ATOM     27  C   UNL     1      -2.636  11.413  23.490  0.00  0.00    +0.000 C 
BRANCH  27  28
ATOM     28  C   UNL     1      -3.631  12.391  24.088  0.00  0.00    +0.000 C 
ATOM     29  O   UNL     1      -4.708  12.117  24.602  0.00  0.00    +0.000 OA
BRANCH  28  31
ATOM     30  C   UNL     1      -4.186  14.649  23.799  0.00  0.00    +0.000 C 
ATOM     31  O   UNL     1      -3.157  13.668  23.952  0.00  0.00    +0.000 OA
ENDBRANCH  28  31
ENDBRANCH  27  28
ENDBRANCH  26  27
ENDBRANCH   1  26
TORSDOF 4
ENDMDL
MODEL 9
REMARK VINA RESULT:      -6.7      2.867      5.072
REMARK  Name = 
REMARK  9 active torsions:
REMARK  status: ('A' for Active; 'I' for Inactive)
REMARK    1  A    between atoms: C_1  and  O_2
REMARK    2  A    between atoms: O_2  and  C_3
REMARK    3  A    between atoms: C_3  and  C_5
REMARK    4  A    between atoms: C_5  and  S_6
REMARK    5  A    between atoms: S_6  and  C_7
REMARK    6  A    between atoms: C_20  and  C_21
REMARK    7  A    between atoms: C_23  and  C_24
REMARK    8  A    between atoms: C_28  and  C_29
REMARK    9  A    between atoms: C_28  and  C_30
REMARK                            x       y       z     vdW  Elec       q    Type
REMARK                         _______ _______ _______ _____ _____    ______ ____
ROOT
ATOM      1  C   UNL     1      -0.227  10.898  22.596  0.00  0.00    +0.000 A 
ATOM      2  N   UNL     1       0.029   9.908  23.432  0.00  0.00    +0.000 NA
ATOM      3  N   UNL     1       0.695   8.927  22.747  0.00  0.00    +0.000 NA
ATOM      4  C   UNL     1       0.836   9.356  21.520  0.00  0.00    +0.000 A 
ATOM      5  C   UNL     1       1.387   8.654  20.354  0.00  0.00    +0.000 A 
ATOM      6  C   UNL     1       1.868   7.343  20.195  0.00  0.00    +0.000 A 
ATOM      7  C   UNL     1       2.377   7.164  18.924  0.00  0.00    +0.000 A 
ATOM      8  S   UNL     1       2.138   8.531  17.927  0.00  0.00    +0.000 S 
ATOM      9  C   UNL     1       1.401   9.407  19.200  0.00  0.00    +0.000 A 
ATOM     10  N   UNL     1       0.942  10.681  19.043  0.00  0.00    +0.000 NA
ATOM     11  C   UNL     1       0.473  11.296  20.113  0.00  0.00    +0.000 A 
ATOM     12  N   UNL     1       0.117  12.644  19.973  0.00  0.00    +0.000 N 
ATOM     13  N   UNL     1       0.428  13.506  20.971  0.00  0.00    +0.000 NA
ATOM     14  C   UNL     1      -0.030  14.694  20.568  0.00  0.00    +0.000 A 
ATOM     15  C   UNL     1      -0.040  15.850  21.493  0.00  0.00    +0.000 C 
ATOM     16  C   UNL     1      -0.478  14.646  19.235  0.00  0.00    +0.000 A 
ATOM     17  C   UNL     1      -0.377  13.322  18.862  0.00  0.00    +0.000 A 
ATOM     18  C   UNL     1      -0.812  12.667  17.602  0.00  0.00    +0.000 C 
ATOM     19  N   UNL     1       0.367  10.646  21.369  0.00  0.00    +0.000 N 
ATOM     20  C   UNL     1       3.002   5.897  18.423  0.00  0.00    +0.000 C 
ATOM     21  O   UNL     1       3.161   4.959  19.511  0.00  0.00    +0.000 OA
ATOM     22  C   UNL     1       2.055   4.871  20.439  0.00  0.00    +0.000 C 
ATOM     23  C   UNL     1       0.771   4.418  19.721  0.00  0.00    +0.000 C 
ATOM     24  C   UNL     1       2.424   3.803  21.477  0.00  0.00    +0.000 C 
ATOM     25  C   UNL     1       1.887   6.225  21.179  0.00  0.00    +0.000 C 
ENDROOT
BRANCH   1  26
ATOM     26  S   UNL     1      -1.371  12.147  22.947  0.00  0.00    +0.000 S 
BRANCH  26  27
ATOM     27  C   UNL     1      -2.615  11.908  21.640  0.00  0.00    +0.000 C 
BRANCH  27  28
ATOM     28  C   UNL     1      -3.665  13.003  21.701  0.00  0.00    +0.000 C 
ATOM     29  O   UNL     1      -3.528  14.168  21.350  0.00  0.00    +0.000 OA
BRANCH  28  31
ATOM     30  C   UNL     1      -5.897  12.410  21.304  0.00  0.00    +0.000 C 
ATOM     31  O   UNL     1      -4.819  12.502  22.239  0.00  0.00    +0.000 OA
ENDBRANCH  28  31
ENDBRANCH  27  28
ENDBRANCH  26  27
ENDBRANCH   1  26
TORSDOF 4
ENDMDL
