MODEL 1
REMARK VINA RESULT:      -8.0      0.000      0.000
REMARK  Name = 
REMARK  8 active torsions:
REMARK  status: ('A' for Active; 'I' for Inactive)
REMARK    1  A    between atoms: C_1  and  C_2
REMARK    2  A    between atoms: C_2  and  O_3
REMARK    3  A    between atoms: O_3  and  C_4
REMARK    4  A    between atoms: C_4  and  C_6
REMARK    5  A    between atoms: N_8  and  C_9
REMARK    6  A    between atoms: C_18  and  C_19
REMARK    7  A    between atoms: C_19  and  C_20
REMARK    8  A    between atoms: C_21  and  C_22
REMARK                            x       y       z     vdW  Elec       q    Type
REMARK                         _______ _______ _______ _____ _____    ______ ____
ROOT
ATOM      1  C   UNL     1       4.569   6.527  17.514  0.00  0.00    +0.000 A 
ATOM      2  N   UNL     1       3.780   7.561  17.472  0.00  0.00    +0.000 NA
ATOM      3  N   UNL     1       2.882   7.301  18.497  0.00  0.00    +0.000 N 
ATOM      4  C   UNL     1       3.152   6.084  19.105  0.00  0.00    +0.000 A 
ATOM      5  N   UNL     1       2.569   5.440  20.064  0.00  0.00    +0.000 NA
ATOM      6  C   UNL     1       3.056   4.186  20.405  0.00  0.00    +0.000 A 
ATOM      7  C   UNL     1       4.149   3.646  19.829  0.00  0.00    +0.000 A 
ATOM      8  C   UNL     1       4.933   4.482  18.885  0.00  0.00    +0.000 A 
ATOM      9  O   UNL     1       6.108   4.240  18.652  0.00  0.00    +0.000 OA
ATOM     10  N   UNL     1       4.256   5.603  18.471  0.00  0.00    +0.000 N 
ENDROOT
BRANCH   3  11
ATOM     11  C   UNL     1       1.911   8.279  18.827  0.00  0.00    +0.000 A 
ATOM     12  C   UNL     1       1.337   9.079  17.817  0.00  0.00    +0.000 A 
ATOM     13  C   UNL     1       0.380  10.057  18.110  0.00  0.00    +0.000 A 
ATOM     14  C   UNL     1      -0.020  10.255  19.425  0.00  0.00    +0.000 A 
ATOM     15 CL   UNL     1      -1.196  11.454  19.794  0.00  0.00    +0.000 Cl
ATOM     16  C   UNL     1       0.529   9.484  20.443  0.00  0.00    +0.000 A 
ATOM     17  C   UNL     1       1.488   8.506  20.144  0.00  0.00    +0.000 A 
ENDBRANCH   3  11
BRANCH   1  18
ATOM     18  C   UNL     1       5.738   6.319  16.595  0.00  0.00    +0.000 C 
ATOM     19  O   UNL     1       6.777   6.937  16.705  0.00  0.00    +0.000 OA
BRANCH  18  20
ATOM     20  O   UNL     1       5.389   5.406  15.666  0.00  0.00    +0.000 OA
BRANCH  20  22
ATOM     21  C   UNL     1       5.977   3.996  13.867  0.00  0.00    +0.000 C 
ATOM     22  C   UNL     1       6.440   4.553  15.198  0.00  0.00    +0.000 C 
ENDBRANCH  20  22
ENDBRANCH  18  20
ENDBRANCH   1  18
BRANCH   6  23
ATOM     23  C   UNL     1       2.222   3.449  21.443  0.00  0.00    +0.000 C 
ATOM     24  C   UNL     1       0.982   2.764  20.874  0.00  0.00    +0.000 C 
ENDBRANCH   6  23
BRANCH   7  25
ATOM     25  C   UNL     1       4.707   2.273  20.160  0.00  0.00    +0.000 C 
ATOM     26  N   UNL     1       5.171   1.132  20.435  0.00  0.00    +0.000 NA
ENDBRANCH   7  25
TORSDOF 6
ENDMDL
MODEL 2
REMARK VINA RESULT:      -7.9      0.864      1.842
REMARK  Name = 
REMARK  8 active torsions:
REMARK  status: ('A' for Active; 'I' for Inactive)
REMARK    1  A    between atoms: C_1  and  C_2
REMARK    2  A    between atoms: C_2  and  O_3
REMARK    3  A    between atoms: O_3  and  C_4
REMARK    4  A    between atoms: C_4  and  C_6
REMARK    5  A    between atoms: N_8  and  C_9
REMARK    6  A    between atoms: C_18  and  C_19
REMARK    7  A    between atoms: C_19  and  C_20
REMARK    8  A    between atoms: C_21  and  C_22
REMARK                            x       y       z     vdW  Elec       q    Type
REMARK                         _______ _______ _______ _____ _____    ______ ____
ROOT
ATOM      1  C   UNL     1       4.396   6.576  17.459  0.00  0.00    +0.000 A 
ATOM      2  N   UNL     1       3.614   7.617  17.447  0.00  0.00    +0.000 NA
ATOM      3  N   UNL     1       2.768   7.375  18.519  0.00  0.00    +0.000 N 
ATOM      4  C   UNL     1       3.058   6.162  19.125  0.00  0.00    +0.000 A 
ATOM      5  N   UNL     1       2.519   5.533  20.119  0.00  0.00    +0.000 NA
ATOM      6  C   UNL     1       3.011   4.278  20.448  0.00  0.00    +0.000 A 
ATOM      7  C   UNL     1       4.068   3.722  19.822  0.00  0.00    +0.000 A 
ATOM      8  C   UNL     1       4.811   4.540  18.831  0.00  0.00    +0.000 A 
ATOM      9  O   UNL     1       5.971   4.285  18.541  0.00  0.00    +0.000 OA
ATOM     10  N   UNL     1       4.123   5.664  18.440  0.00  0.00    +0.000 N 
ENDROOT
BRANCH   3  11
ATOM     11  C   UNL     1       1.824   8.365  18.888  0.00  0.00    +0.000 A 
ATOM     12  C   UNL     1       1.448   8.519  20.239  0.00  0.00    +0.000 A 
ATOM     13  C   UNL     1       0.515   9.482  20.637  0.00  0.00    +0.000 A 
ATOM     14  C   UNL     1      -0.062  10.313  19.686  0.00  0.00    +0.000 A 
ATOM     15 CL   UNL     1      -1.209  11.502  20.166  0.00  0.00    +0.000 Cl
ATOM     16  C   UNL     1       0.285  10.185  18.346  0.00  0.00    +0.000 A 
ATOM     17  C   UNL     1       1.219   9.217  17.953  0.00  0.00    +0.000 A 
ENDBRANCH   3  11
BRANCH   1  18
ATOM     18  C   UNL     1       5.514   6.348  16.483  0.00  0.00    +0.000 C 
ATOM     19  O   UNL     1       5.553   5.386  15.743  0.00  0.00    +0.000 OA
BRANCH  18  20
ATOM     20  O   UNL     1       6.415   7.340  16.632  0.00  0.00    +0.000 OA
BRANCH  20  22
ATOM     21  C   UNL     1       8.079   8.465  17.872  0.00  0.00    +0.000 C 
ATOM     22  C   UNL     1       7.439   7.117  17.608  0.00  0.00    +0.000 C 
ENDBRANCH  20  22
ENDBRANCH  18  20
ENDBRANCH   1  18
BRANCH   6  23
ATOM     23  C   UNL     1       2.225   3.558  21.534  0.00  0.00    +0.000 C 
ATOM     24  C   UNL     1       1.033   2.757  21.015  0.00  0.00    +0.000 C 
ENDBRANCH   6  23
BRANCH   7  25
ATOM     25  C   UNL     1       4.631   2.346  20.138  0.00  0.00    +0.000 C 
ATOM     26  N   UNL     1       5.098   1.204  20.400  0.00  0.00    +0.000 NA
ENDBRANCH   7  25
TORSDOF 6
ENDMDL
MODEL 3
REMARK VINA RESULT:      -7.8      1.386      1.758
REMARK  Name = 
REMARK  8 active torsions:
REMARK  status: ('A' for Active; 'I' for Inactive)
REMARK    1  A    between atoms: C_1  and  C_2
REMARK    2  A    between atoms: C_2  and  O_3
REMARK    3  A    between atoms: O_3  and  C_4
REMARK    4  A    between atoms: C_4  and  C_6
REMARK    5  A    between atoms: N_8  and  C_9
REMARK    6  A    between atoms: C_18  and  C_19
REMARK    7  A    between atoms: C_19  and  C_20
REMARK    8  A    between atoms: C_21  and  C_22
REMARK                            x       y       z     vdW  Elec       q    Type
REMARK                         _______ _______ _______ _____ _____    ______ ____
ROOT
ATOM      1  C   UNL     1       4.096   6.931  17.369  0.00  0.00    +0.000 A 
ATOM      2  N   UNL     1       3.446   8.031  17.620  0.00  0.00    +0.000 NA
ATOM      3  N   UNL     1       2.459   7.608  18.498  0.00  0.00    +0.000 N 
ATOM      4  C   UNL     1       2.536   6.241  18.720  0.00  0.00    +0.000 A 
ATOM      5  N   UNL     1       1.816   5.431  19.428  0.00  0.00    +0.000 NA
ATOM      6  C   UNL     1       2.119   4.078  19.389  0.00  0.00    +0.000 A 
ATOM      7  C   UNL     1       3.170   3.584  18.703  0.00  0.00    +0.000 A 
ATOM      8  C   UNL     1       4.112   4.543  18.072  0.00  0.00    +0.000 A 
ATOM      9  O   UNL     1       5.260   4.220  17.806  0.00  0.00    +0.000 OA
ATOM     10  N   UNL     1       3.608   5.819  17.997  0.00  0.00    +0.000 N 
ENDROOT
BRANCH   3  11
ATOM     11  C   UNL     1       1.600   8.570  19.083  0.00  0.00    +0.000 A 
ATOM     12  C   UNL     1       0.975   9.546  18.280  0.00  0.00    +0.000 A 
ATOM     13  C   UNL     1       0.125  10.515  18.826  0.00  0.00    +0.000 A 
ATOM     14  C   UNL     1      -0.115  10.524  20.194  0.00  0.00    +0.000 A 
ATOM     15 CL   UNL     1      -1.159  11.709  20.875  0.00  0.00    +0.000 Cl
ATOM     16  C   UNL     1       0.488   9.577  21.013  0.00  0.00    +0.000 A 
ATOM     17  C   UNL     1       1.339   8.610  20.461  0.00  0.00    +0.000 A 
ENDBRANCH   3  11
BRANCH   1  18
ATOM     18  C   UNL     1       5.286   6.842  16.458  0.00  0.00    +0.000 C 
ATOM     19  O   UNL     1       5.236   6.321  15.362  0.00  0.00    +0.000 OA
BRANCH  18  20
ATOM     20  O   UNL     1       6.346   7.382  17.092  0.00  0.00    +0.000 OA
BRANCH  20  22
ATOM     21  C   UNL     1       7.809   6.408  18.668  0.00  0.00    +0.000 C 
ATOM     22  C   UNL     1       7.508   6.551  17.190  0.00  0.00    +0.000 C 
ENDBRANCH  20  22
ENDBRANCH  18  20
ENDBRANCH   1  18
BRANCH   6  23
ATOM     23  C   UNL     1       1.135   3.191  20.138  0.00  0.00    +0.000 C 
ATOM     24  C   UNL     1       1.562   2.849  21.563  0.00  0.00    +0.000 C 
ENDBRANCH   6  23
BRANCH   7  25
ATOM     25  C   UNL     1       3.530   2.110  18.620  0.00  0.00    +0.000 C 
ATOM     26  N   UNL     1       3.829   0.887  18.551  0.00  0.00    +0.000 NA
ENDBRANCH   7  25
TORSDOF 6
ENDMDL
MODEL 4
REMARK VINA RESULT:      -6.9      0.988      1.102
REMARK  Name = 
REMARK  8 active torsions:
REMARK  status: ('A' for Active; 'I' for Inactive)
REMARK    1  A    between atoms: C_1  and  C_2
REMARK    2  A    between atoms: C_2  and  O_3
REMARK    3  A    between atoms: O_3  and  C_4
REMARK    4  A    between atoms: C_4  and  C_6
REMARK    5  A    between atoms: N_8  and  C_9
REMARK    6  A    between atoms: C_18  and  C_19
REMARK    7  A    between atoms: C_19  and  C_20
REMARK    8  A    between atoms: C_21  and  C_22
REMARK                            x       y       z     vdW  Elec       q    Type
REMARK                         _______ _______ _______ _____ _____    ______ ____
ROOT
ATOM      1  C   UNL     1       4.760   6.938  17.152  0.00  0.00    +0.000 A 
ATOM      2  N   UNL     1       4.009   7.982  16.952  0.00  0.00    +0.000 NA
ATOM      3  N   UNL     1       2.980   7.797  17.862  0.00  0.00    +0.000 N 
ATOM      4  C   UNL     1       3.138   6.613  18.565  0.00  0.00    +0.000 A 
ATOM      5  N   UNL     1       2.419   6.035  19.474  0.00  0.00    +0.000 NA
ATOM      6  C   UNL     1       2.825   4.794  19.942  0.00  0.00    +0.000 A 
ATOM      7  C   UNL     1       3.969   4.201  19.544  0.00  0.00    +0.000 A 
ATOM      8  C   UNL     1       4.890   4.967  18.667  0.00  0.00    +0.000 A 
ATOM      9  O   UNL     1       6.079   4.691  18.603  0.00  0.00    +0.000 OA
ATOM     10  N   UNL     1       4.301   6.076  18.108  0.00  0.00    +0.000 N 
ENDROOT
BRANCH   3  11
ATOM     11  C   UNL     1       2.000   8.810  18.010  0.00  0.00    +0.000 A 
ATOM     12  C   UNL     1       2.366  10.089  18.479  0.00  0.00    +0.000 A 
ATOM     13  C   UNL     1       1.423  11.110  18.642  0.00  0.00    +0.000 A 
ATOM     14  C   UNL     1       0.090  10.868  18.338  0.00  0.00    +0.000 A 
ATOM     15 CL   UNL     1      -1.076  12.117  18.533  0.00  0.00    +0.000 Cl
ATOM     16  C   UNL     1      -0.303   9.618  17.876  0.00  0.00    +0.000 A 
ATOM     17  C   UNL     1       0.646   8.599  17.716  0.00  0.00    +0.000 A 
ENDBRANCH   3  11
BRANCH   1  18
ATOM     18  C   UNL     1       6.032   6.656  16.406  0.00  0.00    +0.000 C 
ATOM     19  O   UNL     1       7.102   7.124  16.734  0.00  0.00    +0.000 OA
BRANCH  18  20
ATOM     20  O   UNL     1       5.737   5.872  15.349  0.00  0.00    +0.000 OA
BRANCH  20  22
ATOM     21  C   UNL     1       6.078   4.028  13.915  0.00  0.00    +0.000 C 
ATOM     22  C   UNL     1       6.607   4.755  15.135  0.00  0.00    +0.000 C 
ENDBRANCH  20  22
ENDBRANCH  18  20
ENDBRANCH   1  18
BRANCH   6  23
ATOM     23  C   UNL     1       1.845   4.132  20.901  0.00  0.00    +0.000 C 
ATOM     24  C   UNL     1       0.775   3.287  20.214  0.00  0.00    +0.000 C 
ENDBRANCH   6  23
BRANCH   7  25
ATOM     25  C   UNL     1       4.444   2.839  20.019  0.00  0.00    +0.000 C 
ATOM     26  N   UNL     1       4.838   1.707  20.414  0.00  0.00    +0.000 NA
ENDBRANCH   7  25
TORSDOF 6
ENDMDL
MODEL 5
REMARK VINA RESULT:      -6.9      2.045      4.590
REMARK  Name = 
REMARK  8 active torsions:
REMARK  status: ('A' for Active; 'I' for Inactive)
REMARK    1  A    between atoms: C_1  and  C_2
REMARK    2  A    between atoms: C_2  and  O_3
REMARK    3  A    between atoms: O_3  and  C_4
REMARK    4  A    between atoms: C_4  and  C_6
REMARK    5  A    between atoms: N_8  and  C_9
REMARK    6  A    between atoms: C_18  and  C_19
REMARK    7  A    between atoms: C_19  and  C_20
REMARK    8  A    between atoms: C_21  and  C_22
REMARK                            x       y       z     vdW  Elec       q    Type
REMARK                         _______ _______ _______ _____ _____    ______ ____
ROOT
ATOM      1  C   UNL     1       2.398   4.605  18.870  0.00  0.00    +0.000 A 
ATOM      2  N   UNL     1       1.665   5.514  19.445  0.00  0.00    +0.000 NA
ATOM      3  N   UNL     1       2.370   6.681  19.190  0.00  0.00    +0.000 N 
ATOM      4  C   UNL     1       3.535   6.420  18.485  0.00  0.00    +0.000 A 
ATOM      5  N   UNL     1       4.491   7.185  18.066  0.00  0.00    +0.000 NA
ATOM      6  C   UNL     1       5.577   6.596  17.434  0.00  0.00    +0.000 A 
ATOM      7  C   UNL     1       5.642   5.274  17.178  0.00  0.00    +0.000 A 
ATOM      8  C   UNL     1       4.449   4.440  17.470  0.00  0.00    +0.000 A 
ATOM      9  O   UNL     1       4.274   3.368  16.909  0.00  0.00    +0.000 OA
ATOM     10  N   UNL     1       3.532   5.076  18.270  0.00  0.00    +0.000 N 
ENDROOT
BRANCH   3  11
ATOM     11  C   UNL     1       1.813   7.923  19.584  0.00  0.00    +0.000 A 
ATOM     12  C   UNL     1       1.427   8.135  20.924  0.00  0.00    +0.000 A 
ATOM     13  C   UNL     1       0.868   9.346  21.345  0.00  0.00    +0.000 A 
ATOM     14  C   UNL     1       0.684  10.373  20.429  0.00  0.00    +0.000 A 
ATOM     15 CL   UNL     1       0.000  11.867  20.937  0.00  0.00    +0.000 Cl
ATOM     16  C   UNL     1       1.052  10.194  19.100  0.00  0.00    +0.000 A 
ATOM     17  C   UNL     1       1.610   8.978  18.683  0.00  0.00    +0.000 A 
ENDBRANCH   3  11
BRANCH   1  18
ATOM     18  C   UNL     1       2.067   3.141  18.851  0.00  0.00    +0.000 C 
ATOM     19  O   UNL     1       1.199   2.673  18.143  0.00  0.00    +0.000 OA
BRANCH  18  20
ATOM     20  O   UNL     1       2.850   2.519  19.756  0.00  0.00    +0.000 OA
BRANCH  20  22
ATOM     21  C   UNL     1       1.417   2.553  21.632  0.00  0.00    +0.000 C 
ATOM     22  C   UNL     1       2.763   3.005  21.100  0.00  0.00    +0.000 C 
ENDBRANCH  20  22
ENDBRANCH  18  20
ENDBRANCH   1  18
BRANCH   6  23
ATOM     23  C   UNL     1       6.711   7.556  17.105  0.00  0.00    +0.000 C 
ATOM     24  C   UNL     1       7.878   7.504  18.088  0.00  0.00    +0.000 C 
ENDBRANCH   6  23
BRANCH   7  25
ATOM     25  C   UNL     1       6.816   4.584  16.504  0.00  0.00    +0.000 C 
ATOM     26  N   UNL     1       7.790   4.011  15.943  0.00  0.00    +0.000 NA
ENDBRANCH   7  25
TORSDOF 6
ENDMDL
MODEL 6
REMARK VINA RESULT:      -6.8      3.544      6.572
REMARK  Name = 
REMARK  8 active torsions:
REMARK  status: ('A' for Active; 'I' for Inactive)
REMARK    1  A    between atoms: C_1  and  C_2
REMARK    2  A    between atoms: C_2  and  O_3
REMARK    3  A    between atoms: O_3  and  C_4
REMARK    4  A    between atoms: C_4  and  C_6
REMARK    5  A    between atoms: N_8  and  C_9
REMARK    6  A    between atoms: C_18  and  C_19
REMARK    7  A    between atoms: C_19  and  C_20
REMARK    8  A    between atoms: C_21  and  C_22
REMARK                            x       y       z     vdW  Elec       q    Type
REMARK                         _______ _______ _______ _____ _____    ______ ____
ROOT
ATOM      1  C   UNL     1       3.788   3.631  19.241  0.00  0.00    +0.000 A 
ATOM      2  N   UNL     1       4.514   3.337  18.201  0.00  0.00    +0.000 NA
ATOM      3  N   UNL     1       4.555   4.537  17.507  0.00  0.00    +0.000 N 
ATOM      4  C   UNL     1       3.814   5.515  18.153  0.00  0.00    +0.000 A 
ATOM      5  N   UNL     1       3.554   6.749  17.859  0.00  0.00    +0.000 NA
ATOM      6  C   UNL     1       2.706   7.460  18.695  0.00  0.00    +0.000 A 
ATOM      7  C   UNL     1       2.202   6.943  19.834  0.00  0.00    +0.000 A 
ATOM      8  C   UNL     1       2.676   5.605  20.271  0.00  0.00    +0.000 A 
ATOM      9  O   UNL     1       2.601   5.258  21.440  0.00  0.00    +0.000 OA
ATOM     10  N   UNL     1       3.338   4.921  19.280  0.00  0.00    +0.000 N 
ENDROOT
BRANCH   3  11
ATOM     11  C   UNL     1       5.359   4.634  16.345  0.00  0.00    +0.000 A 
ATOM     12  C   UNL     1       4.878   4.158  15.107  0.00  0.00    +0.000 A 
ATOM     13  C   UNL     1       5.647   4.233  13.941  0.00  0.00    +0.000 A 
ATOM     14  C   UNL     1       6.920   4.787  13.993  0.00  0.00    +0.000 A 
ATOM     15 CL   UNL     1       7.873   4.885  12.565  0.00  0.00    +0.000 Cl
ATOM     16  C   UNL     1       7.423   5.263  15.198  0.00  0.00    +0.000 A 
ATOM     17  C   UNL     1       6.648   5.184  16.363  0.00  0.00    +0.000 A 
ENDBRANCH   3  11
BRANCH   1  18
ATOM     18  C   UNL     1       3.439   2.658  20.330  0.00  0.00    +0.000 C 
ATOM     19  O   UNL     1       4.269   2.188  21.080  0.00  0.00    +0.000 OA
BRANCH  18  20
ATOM     20  O   UNL     1       2.116   2.407  20.264  0.00  0.00    +0.000 OA
BRANCH  20  22
ATOM     21  C   UNL     1       0.386   2.716  18.687  0.00  0.00    +0.000 C 
ATOM     22  C   UNL     1       1.632   1.915  19.010  0.00  0.00    +0.000 C 
ENDBRANCH  20  22
ENDBRANCH  18  20
ENDBRANCH   1  18
BRANCH   6  23
ATOM     23  C   UNL     1       2.349   8.852  18.194  0.00  0.00    +0.000 C 
ATOM     24  C   UNL     1       0.957   8.953  17.573  0.00  0.00    +0.000 C 
ENDBRANCH   6  23
BRANCH   7  25
ATOM     25  C   UNL     1       1.260   7.679  20.771  0.00  0.00    +0.000 C 
ATOM     26  N   UNL     1       0.478   8.290  21.550  0.00  0.00    +0.000 NA
ENDBRANCH   7  25
TORSDOF 6
ENDMDL
MODEL 7
REMARK VINA RESULT:      -6.7      3.524      6.658
REMARK  Name = 
REMARK  8 active torsions:
REMARK  status: ('A' for Active; 'I' for Inactive)
REMARK    1  A    between atoms: C_1  and  C_2
REMARK    2  A    between atoms: C_2  and  O_3
REMARK    3  A    between atoms: O_3  and  C_4
REMARK    4  A    between atoms: C_4  and  C_6
REMARK    5  A    between atoms: N_8  and  C_9
REMARK    6  A    between atoms: C_18  and  C_19
REMARK    7  A    between atoms: C_19  and  C_20
REMARK    8  A    between atoms: C_21  and  C_22
REMARK                            x       y       z     vdW  Elec       q    Type
REMARK                         _______ _______ _______ _____ _____    ______ ____
ROOT
ATOM      1  C   UNL     1       3.767   3.548  19.003  0.00  0.00    +0.000 A 
ATOM      2  N   UNL     1       4.475   3.259  17.949  0.00  0.00    +0.000 NA
ATOM      3  N   UNL     1       4.552   4.478  17.291  0.00  0.00    +0.000 N 
ATOM      4  C   UNL     1       3.849   5.461  17.970  0.00  0.00    +0.000 A 
ATOM      5  N   UNL     1       3.629   6.711  17.714  0.00  0.00    +0.000 NA
ATOM      6  C   UNL     1       2.812   7.425  18.578  0.00  0.00    +0.000 A 
ATOM      7  C   UNL     1       2.298   6.892  19.705  0.00  0.00    +0.000 A 
ATOM      8  C   UNL     1       2.730   5.527  20.099  0.00  0.00    +0.000 A 
ATOM      9  O   UNL     1       2.651   5.149  21.258  0.00  0.00    +0.000 OA
ATOM     10  N   UNL     1       3.361   4.850  19.083  0.00  0.00    +0.000 N 
ENDROOT
BRANCH   3  11
ATOM     11  C   UNL     1       5.350   4.581  16.125  0.00  0.00    +0.000 A 
ATOM     12  C   UNL     1       6.609   5.215  16.181  0.00  0.00    +0.000 A 
ATOM     13  C   UNL     1       7.420   5.340  15.047  0.00  0.00    +0.000 A 
ATOM     14  C   UNL     1       6.984   4.831  13.831  0.00  0.00    +0.000 A 
ATOM     15 CL   UNL     1       7.974   4.978  12.433  0.00  0.00    +0.000 Cl
ATOM     16  C   UNL     1       5.747   4.203  13.743  0.00  0.00    +0.000 A 
ATOM     17  C   UNL     1       4.938   4.082  14.881  0.00  0.00    +0.000 A 
ENDBRANCH   3  11
BRANCH   1  18
ATOM     18  C   UNL     1       3.392   2.556  20.066  0.00  0.00    +0.000 C 
ATOM     19  O   UNL     1       4.027   2.422  21.092  0.00  0.00    +0.000 OA
BRANCH  18  20
ATOM     20  O   UNL     1       2.312   1.869  19.642  0.00  0.00    +0.000 OA
BRANCH  20  22
ATOM     21  C   UNL     1       0.328   2.808  18.775  0.00  0.00    +0.000 C 
ATOM     22  C   UNL     1       1.040   2.389  20.045  0.00  0.00    +0.000 C 
ENDBRANCH  20  22
ENDBRANCH  18  20
ENDBRANCH   1  18
BRANCH   6  23
ATOM     23  C   UNL     1       2.498   8.842  18.119  0.00  0.00    +0.000 C 
ATOM     24  C   UNL     1       1.072   9.031  17.608  0.00  0.00    +0.000 C 
ENDBRANCH   6  23
BRANCH   7  25
ATOM     25  C   UNL     1       1.388   7.632  20.670  0.00  0.00    +0.000 C 
ATOM     26  N   UNL     1       0.632   8.246  21.473  0.00  0.00    +0.000 NA
ENDBRANCH   7  25
TORSDOF 6
ENDMDL
MODEL 8
REMARK VINA RESULT:      -6.5      5.534      9.291
REMARK  Name = 
REMARK  8 active torsions:
REMARK  status: ('A' for Active; 'I' for Inactive)
REMARK    1  A    between atoms: C_1  and  C_2
REMARK    2  A    between atoms: C_2  and  O_3
REMARK    3  A    between atoms: O_3  and  C_4
REMARK    4  A    between atoms: C_4  and  C_6
REMARK    5  A    between atoms: N_8  and  C_9
REMARK    6  A    between atoms: C_18  and  C_19
REMARK    7  A    between atoms: C_19  and  C_20
REMARK    8  A    between atoms: C_21  and  C_22
REMARK                            x       y       z     vdW  Elec       q    Type
REMARK                         _______ _______ _______ _____ _____    ______ ____
ROOT
ATOM      1  C   UNL     1      -0.161  11.332  20.860  0.00  0.00    +0.000 A 
ATOM      2  N   UNL     1       0.831  10.491  20.801  0.00  0.00    +0.000 NA
ATOM      3  N   UNL     1       0.546   9.762  19.656  0.00  0.00    +0.000 N 
ATOM      4  C   UNL     1      -0.643  10.180  19.078  0.00  0.00    +0.000 A 
ATOM      5  N   UNL     1      -1.296   9.774  18.037  0.00  0.00    +0.000 NA
ATOM      6  C   UNL     1      -2.517  10.369  17.753  0.00  0.00    +0.000 A 
ATOM      7  C   UNL     1      -3.013  11.395  18.473  0.00  0.00    +0.000 A 
ATOM      8  C   UNL     1      -2.158  11.993  19.530  0.00  0.00    +0.000 A 
ATOM      9  O   UNL     1      -2.345  13.134  19.925  0.00  0.00    +0.000 OA
ATOM     10  N   UNL     1      -1.080  11.206  19.856  0.00  0.00    +0.000 N 
ENDROOT
BRANCH   3  11
ATOM     11  C   UNL     1       1.481   8.799  19.202  0.00  0.00    +0.000 A 
ATOM     12  C   UNL     1       2.090   8.940  17.938  0.00  0.00    +0.000 A 
ATOM     13  C   UNL     1       3.012   8.004  17.458  0.00  0.00    +0.000 A 
ATOM     14  C   UNL     1       3.342   6.903  18.237  0.00  0.00    +0.000 A 
ATOM     15 CL   UNL     1       4.476   5.748  17.655  0.00  0.00    +0.000 Cl
ATOM     16  C   UNL     1       2.757   6.734  19.486  0.00  0.00    +0.000 A 
ATOM     17  C   UNL     1       1.833   7.674  19.962  0.00  0.00    +0.000 A 
ENDBRANCH   3  11
BRANCH   1  18
ATOM     18  C   UNL     1      -0.328  12.367  21.934  0.00  0.00    +0.000 C 
ATOM     19  O   UNL     1       0.363  13.363  21.999  0.00  0.00    +0.000 OA
BRANCH  18  20
ATOM     20  O   UNL     1      -1.304  11.956  22.769  0.00  0.00    +0.000 OA
BRANCH  20  22
ATOM     21  C   UNL     1      -3.406  12.342  23.772  0.00  0.00    +0.000 C 
ATOM     22  C   UNL     1      -2.098  12.990  23.363  0.00  0.00    +0.000 C 
ENDBRANCH  20  22
ENDBRANCH  18  20
ENDBRANCH   1  18
BRANCH   6  23
ATOM     23  C   UNL     1      -3.275   9.730  16.598  0.00  0.00    +0.000 C 
ATOM     24  C   UNL     1      -2.899  10.282  15.225  0.00  0.00    +0.000 C 
ENDBRANCH   6  23
BRANCH   7  25
ATOM     25  C   UNL     1      -4.350  12.067  18.208  0.00  0.00    +0.000 C 
ATOM     26  N   UNL     1      -5.461  12.623  17.989  0.00  0.00    +0.000 NA
ENDBRANCH   7  25
TORSDOF 6
ENDMDL
MODEL 9
REMARK VINA RESULT:      -6.4      5.427      9.200
REMARK  Name = 
REMARK  8 active torsions:
REMARK  status: ('A' for Active; 'I' for Inactive)
REMARK    1  A    between atoms: C_1  and  C_2
REMARK    2  A    between atoms: C_2  and  O_3
REMARK    3  A    between atoms: O_3  and  C_4
REMARK    4  A    between atoms: C_4  and  C_6
REMARK    5  A    between atoms: N_8  and  C_9
REMARK    6  A    between atoms: C_18  and  C_19
REMARK    7  A    between atoms: C_19  and  C_20
REMARK    8  A    between atoms: C_21  and  C_22
REMARK                            x       y       z     vdW  Elec       q    Type
REMARK                         _______ _______ _______ _____ _____    ______ ____
ROOT
ATOM      1  C   UNL     1       0.030  11.246  20.888  0.00  0.00    +0.000 A 
ATOM      2  N   UNL     1       1.007  10.391  20.789  0.00  0.00    +0.000 NA
ATOM      3  N   UNL     1       0.680   9.685  19.641  0.00  0.00    +0.000 N 
ATOM      4  C   UNL     1      -0.518  10.131  19.102  0.00  0.00    +0.000 A 
ATOM      5  N   UNL     1      -1.206   9.751  18.073  0.00  0.00    +0.000 NA
ATOM      6  C   UNL     1      -2.424  10.369  17.832  0.00  0.00    +0.000 A 
ATOM      7  C   UNL     1      -2.884  11.392  18.581  0.00  0.00    +0.000 A 
ATOM      8  C   UNL     1      -1.992  11.959  19.623  0.00  0.00    +0.000 A 
ATOM      9  O   UNL     1      -2.150  13.097  20.041  0.00  0.00    +0.000 OA
ATOM     10  N   UNL     1      -0.918  11.150  19.908  0.00  0.00    +0.000 N 
ENDROOT
BRANCH   3  11
ATOM     11  C   UNL     1       1.586   8.715  19.147  0.00  0.00    +0.000 A 
ATOM     12  C   UNL     1       1.917   7.589  19.930  0.00  0.00    +0.000 A 
ATOM     13  C   UNL     1       2.813   6.615  19.475  0.00  0.00    +0.000 A 
ATOM     14  C   UNL     1       3.397   6.751  18.223  0.00  0.00    +0.000 A 
ATOM     15 CL   UNL     1       4.498   5.559  17.654  0.00  0.00    +0.000 Cl
ATOM     16  C   UNL     1       3.093   7.850  17.428  0.00  0.00    +0.000 A 
ATOM     17  C   UNL     1       2.196   8.823  17.890  0.00  0.00    +0.000 A 
ENDBRANCH   3  11
BRANCH   1  18
ATOM     18  C   UNL     1      -0.092  12.266  21.982  0.00  0.00    +0.000 C 
ATOM     19  O   UNL     1       0.283  13.414  21.854  0.00  0.00    +0.000 OA
BRANCH  18  20
ATOM     20  O   UNL     1      -0.622  11.663  23.066  0.00  0.00    +0.000 OA
BRANCH  20  22
ATOM     21  C   UNL     1      -2.494  13.028  23.520  0.00  0.00    +0.000 C 
ATOM     22  C   UNL     1      -2.051  11.631  23.130  0.00  0.00    +0.000 C 
ENDBRANCH  20  22
ENDBRANCH  18  20
ENDBRANCH   1  18
BRANCH   6  23
ATOM     23  C   UNL     1      -3.223   9.761  16.688  0.00  0.00    +0.000 C 
ATOM     24  C   UNL     1      -2.943  10.393  15.327  0.00  0.00    +0.000 C 
ENDBRANCH   6  23
BRANCH   7  25
ATOM     25  C   UNL     1      -4.217  12.088  18.364  0.00  0.00    +0.000 C 
ATOM     26  N   UNL     1      -5.324  12.666  18.183  0.00  0.00    +0.000 NA
ENDBRANCH   7  25
TORSDOF 6
ENDMDL
