MODEL 1
REMARK VINA RESULT:      -9.4      0.000      0.000
REMARK  Name = 
REMARK  7 active torsions:
REMARK  status: ('A' for Active; 'I' for Inactive)
REMARK    1  A    between atoms: C_2  and  O_3
REMARK    2  A    between atoms: C_2  and  C_4
REMARK    3  A    between atoms: C_9  and  C_11
REMARK    4  A    between atoms: C_15  and  C_16
REMARK    5  A    between atoms: C_16  and  O_17
REMARK    6  A    between atoms: O_17  and  C_18
REMARK    7  A    between atoms: C_21  and  C_22
REMARK                            x       y       z     vdW  Elec       q    Type
REMARK                         _______ _______ _______ _____ _____    ______ ____
ROOT
ATOM      1  C   UNL     1       8.204   9.525  17.495  0.00  0.00    +0.000 C 
ENDROOT
BRANCH   1   6
ATOM      2  C   UNL     1       9.912  12.760  18.675  0.00  0.00    +0.000 A 
ATOM      3  C   UNL     1      10.359  12.342  19.932  0.00  0.00    +0.000 A 
ATOM      4  C   UNL     1      10.016  11.088  20.440  0.00  0.00    +0.000 A 
ATOM      5  C   UNL     1       9.289  10.199  19.658  0.00  0.00    +0.000 A 
ATOM      6  C   UNL     1       8.910  10.547  18.355  0.00  0.00    +0.000 A 
ATOM      7  C   UNL     1       9.215  11.835  17.876  0.00  0.00    +0.000 A 
BRANCH   2  13
ATOM      8  C   UNL     1       9.739  16.528  17.779  0.00  0.00    +0.000 C 
ATOM      9  C   UNL     1       8.597  17.377  18.257  0.00  0.00    +0.000 C 
ATOM     10  C   UNL     1       7.762  16.690  19.039  0.00  0.00    +0.000 C 
ATOM     11  C   UNL     1       8.223  15.291  19.212  0.00  0.00    +0.000 C 
ATOM     12  N   UNL     1       9.478  15.250  18.468  0.00  0.00    +0.000 N 
ATOM     13  C   UNL     1      10.191  14.116  18.095  0.00  0.00    +0.000 C 
ATOM     14  O   UNL     1      11.088  14.217  17.254  0.00  0.00    +0.000 OA
BRANCH   8  16
ATOM     15  O   UNL     1      11.316  17.928  19.058  0.00  0.00    +0.000 OA
ATOM     16  C   UNL     1      11.104  17.189  18.103  0.00  0.00    +0.000 C 
BRANCH  16  17
ATOM     17  O   UNL     1      12.056  16.973  17.161  0.00  0.00    +0.000 OA
ATOM     18  H   UNL     1      11.681  16.941  16.245  0.00  0.00    +0.000 HD
ENDBRANCH  16  17
ENDBRANCH   8  16
ENDBRANCH   2  13
ENDBRANCH   1   6
BRANCH   1  19
ATOM     19  O   UNL     1       8.528   8.239  18.021  0.00  0.00    +0.000 OA
BRANCH  19  20
ATOM     20  C   UNL     1       7.520   7.322  18.071  0.00  0.00    +0.000 A 
ATOM     21  C   UNL     1       7.694   6.320  19.019  0.00  0.00    +0.000 A 
ATOM     22  C   UNL     1       6.717   5.338  19.198  0.00  0.00    +0.000 A 
ATOM     23  C   UNL     1       5.515   5.347  18.467  0.00  0.00    +0.000 A 
ATOM     24  C   UNL     1       5.362   6.369  17.514  0.00  0.00    +0.000 A 
ATOM     25  C   UNL     1       6.353   7.345  17.313  0.00  0.00    +0.000 A 
BRANCH  23  26
ATOM     26  C   UNL     1       4.465   4.348  18.750  0.00  0.00    +0.000 A 
ATOM     27  C   UNL     1       4.585   3.006  18.314  0.00  0.00    +0.000 A 
ATOM     28  C   UNL     1       3.593   2.058  18.540  0.00  0.00    +0.000 A 
ATOM     29  F   UNL     1       3.770   0.813  18.077  0.00  0.00    +0.000 F 
ATOM     30  C   UNL     1       2.433   2.383  19.231  0.00  0.00    +0.000 A 
ATOM     31  F   UNL     1       1.487   1.457  19.435  0.00  0.00    +0.000 F 
ATOM     32  C   UNL     1       2.271   3.689  19.713  0.00  0.00    +0.000 A 
ATOM     33  C   UNL     1       1.264   4.370  20.448  0.00  0.00    +0.000 A 
ATOM     34  C   UNL     1       1.706   5.661  20.600  0.00  0.00    +0.000 A 
ATOM     35  O   UNL     1       2.912   5.829  20.000  0.00  0.00    +0.000 OA
ATOM     36  C   UNL     1       3.278   4.624  19.461  0.00  0.00    +0.000 A 
ENDBRANCH  23  26
ENDBRANCH  19  20
ENDBRANCH   1  19
TORSDOF 7
ENDMDL
MODEL 2
REMARK VINA RESULT:      -9.2      7.318     11.264
REMARK  Name = 
REMARK  7 active torsions:
REMARK  status: ('A' for Active; 'I' for Inactive)
REMARK    1  A    between atoms: C_2  and  O_3
REMARK    2  A    between atoms: C_2  and  C_4
REMARK    3  A    between atoms: C_9  and  C_11
REMARK    4  A    between atoms: C_15  and  C_16
REMARK    5  A    between atoms: C_16  and  O_17
REMARK    6  A    between atoms: O_17  and  C_18
REMARK    7  A    between atoms: C_21  and  C_22
REMARK                            x       y       z     vdW  Elec       q    Type
REMARK                         _______ _______ _______ _____ _____    ______ ____
ROOT
ATOM      1  C   UNL     1       1.236   7.137  21.322  0.00  0.00    +0.000 C 
ENDROOT
BRANCH   1   6
ATOM      2  C   UNL     1       3.244   5.267  18.630  0.00  0.00    +0.000 A 
ATOM      3  C   UNL     1       2.545   4.057  18.618  0.00  0.00    +0.000 A 
ATOM      4  C   UNL     1       1.527   3.801  19.538  0.00  0.00    +0.000 A 
ATOM      5  C   UNL     1       1.136   4.791  20.431  0.00  0.00    +0.000 A 
ATOM      6  C   UNL     1       1.747   6.051  20.405  0.00  0.00    +0.000 A 
ATOM      7  C   UNL     1       2.809   6.276  19.509  0.00  0.00    +0.000 A 
BRANCH   2  13
ATOM      8  C   UNL     1       6.784   5.926  17.191  0.00  0.00    +0.000 C 
ATOM      9  C   UNL     1       7.984   5.957  18.093  0.00  0.00    +0.000 C 
ATOM     10  C   UNL     1       7.662   5.669  19.356  0.00  0.00    +0.000 C 
ATOM     11  C   UNL     1       6.210   5.390  19.487  0.00  0.00    +0.000 C 
ATOM     12  N   UNL     1       5.717   5.500  18.117  0.00  0.00    +0.000 N 
ATOM     13  C   UNL     1       4.389   5.583  17.713  0.00  0.00    +0.000 C 
ATOM     14  O   UNL     1       4.131   5.930  16.558  0.00  0.00    +0.000 OA
BRANCH   8  16
ATOM     15  O   UNL     1       7.566   5.322  14.932  0.00  0.00    +0.000 OA
ATOM     16  C   UNL     1       7.019   4.990  15.977  0.00  0.00    +0.000 C 
BRANCH  16  17
ATOM     17  O   UNL     1       6.457   3.762  16.113  0.00  0.00    +0.000 OA
ATOM     18  H   UNL     1       5.718   3.756  16.773  0.00  0.00    +0.000 HD
ENDBRANCH  16  17
ENDBRANCH   8  16
ENDBRANCH   2  13
ENDBRANCH   1   6
BRANCH   1  19
ATOM     19  O   UNL     1       1.175   8.339  20.555  0.00  0.00    +0.000 OA
BRANCH  19  20
ATOM     20  C   UNL     1       0.382   9.338  21.038  0.00  0.00    +0.000 A 
ATOM     21  C   UNL     1       0.112   9.257  22.400  0.00  0.00    +0.000 A 
ATOM     22  C   UNL     1      -0.658  10.238  23.028  0.00  0.00    +0.000 A 
ATOM     23  C   UNL     1      -1.149  11.356  22.328  0.00  0.00    +0.000 A 
ATOM     24  C   UNL     1      -0.862  11.416  20.953  0.00  0.00    +0.000 A 
ATOM     25  C   UNL     1      -0.109  10.417  20.311  0.00  0.00    +0.000 A 
BRANCH  23  26
ATOM     26  C   UNL     1      -1.878  12.421  23.044  0.00  0.00    +0.000 A 
ATOM     27  C   UNL     1      -3.162  12.194  23.597  0.00  0.00    +0.000 A 
ATOM     28  C   UNL     1      -3.881  13.192  24.246  0.00  0.00    +0.000 A 
ATOM     29  F   UNL     1      -5.099  12.905  24.723  0.00  0.00    +0.000 F 
ATOM     30  C   UNL     1      -3.356  14.469  24.402  0.00  0.00    +0.000 A 
ATOM     31  F   UNL     1      -4.066  15.418  25.026  0.00  0.00    +0.000 F 
ATOM     32  C   UNL     1      -2.077  14.745  23.901  0.00  0.00    +0.000 A 
ATOM     33  C   UNL     1      -1.232  15.887  23.881  0.00  0.00    +0.000 A 
ATOM     34  C   UNL     1      -0.088  15.507  23.222  0.00  0.00    +0.000 A 
ATOM     35  O   UNL     1      -0.173  14.212  22.824  0.00  0.00    +0.000 OA
ATOM     36  C   UNL     1      -1.382  13.727  23.243  0.00  0.00    +0.000 A 
ENDBRANCH  23  26
ENDBRANCH  19  20
ENDBRANCH   1  19
TORSDOF 7
ENDMDL
MODEL 3
REMARK VINA RESULT:      -9.1      6.681     10.828
REMARK  Name = 
REMARK  7 active torsions:
REMARK  status: ('A' for Active; 'I' for Inactive)
REMARK    1  A    between atoms: C_2  and  O_3
REMARK    2  A    between atoms: C_2  and  C_4
REMARK    3  A    between atoms: C_9  and  C_11
REMARK    4  A    between atoms: C_15  and  C_16
REMARK    5  A    between atoms: C_16  and  O_17
REMARK    6  A    between atoms: O_17  and  C_18
REMARK    7  A    between atoms: C_21  and  C_22
REMARK                            x       y       z     vdW  Elec       q    Type
REMARK                         _______ _______ _______ _____ _____    ______ ____
ROOT
ATOM      1  C   UNL     1       0.881   6.198  20.710  0.00  0.00    +0.000 C 
ENDROOT
BRANCH   1   6
ATOM      2  C   UNL     1       4.094   4.438  19.548  0.00  0.00    +0.000 A 
ATOM      3  C   UNL     1       3.677   3.107  19.644  0.00  0.00    +0.000 A 
ATOM      4  C   UNL     1       2.434   2.777  20.184  0.00  0.00    +0.000 A 
ATOM      5  C   UNL     1       1.552   3.782  20.559  0.00  0.00    +0.000 A 
ATOM      6  C   UNL     1       1.897   5.129  20.384  0.00  0.00    +0.000 A 
ATOM      7  C   UNL     1       3.175   5.448  19.890  0.00  0.00    +0.000 A 
BRANCH   2  13
ATOM      8  C   UNL     1       7.083   5.345  17.251  0.00  0.00    +0.000 C 
ATOM      9  C   UNL     1       6.992   5.153  15.765  0.00  0.00    +0.000 C 
ATOM     10  C   UNL     1       5.784   4.724  15.393  0.00  0.00    +0.000 C 
ATOM     11  C   UNL     1       4.886   4.579  16.565  0.00  0.00    +0.000 C 
ATOM     12  N   UNL     1       5.708   5.030  17.684  0.00  0.00    +0.000 N 
ATOM     13  C   UNL     1       5.441   4.860  19.038  0.00  0.00    +0.000 C 
ATOM     14  O   UNL     1       6.339   5.059  19.859  0.00  0.00    +0.000 OA
BRANCH   8  16
ATOM     15  O   UNL     1       8.249   7.058  18.588  0.00  0.00    +0.000 OA
ATOM     16  C   UNL     1       7.578   6.772  17.603  0.00  0.00    +0.000 C 
BRANCH  16  17
ATOM     17  O   UNL     1       7.107   7.737  16.773  0.00  0.00    +0.000 OA
ATOM     18  H   UNL     1       6.283   8.165  17.121  0.00  0.00    +0.000 HD
ENDBRANCH  16  17
ENDBRANCH   8  16
ENDBRANCH   2  13
ENDBRANCH   1   6
BRANCH   1  19
ATOM     19  O   UNL     1       1.537   7.457  20.570  0.00  0.00    +0.000 OA
BRANCH  19  20
ATOM     20  C   UNL     1       0.957   8.527  21.183  0.00  0.00    +0.000 A 
ATOM     21  C   UNL     1       0.575   9.552  20.323  0.00  0.00    +0.000 A 
ATOM     22  C   UNL     1      -0.064  10.690  20.819  0.00  0.00    +0.000 A 
ATOM     23  C   UNL     1      -0.383  10.826  22.183  0.00  0.00    +0.000 A 
ATOM     24  C   UNL     1       0.013   9.778  23.032  0.00  0.00    +0.000 A 
ATOM     25  C   UNL     1       0.679   8.641  22.541  0.00  0.00    +0.000 A 
BRANCH  23  26
ATOM     26  C   UNL     1      -1.144  12.000  22.656  0.00  0.00    +0.000 A 
ATOM     27  C   UNL     1      -2.425  11.863  23.243  0.00  0.00    +0.000 A 
ATOM     28  C   UNL     1      -3.173  12.957  23.663  0.00  0.00    +0.000 A 
ATOM     29  F   UNL     1      -4.388  12.747  24.189  0.00  0.00    +0.000 F 
ATOM     30  C   UNL     1      -2.681  14.251  23.544  0.00  0.00    +0.000 A 
ATOM     31  F   UNL     1      -3.419  15.293  23.951  0.00  0.00    +0.000 F 
ATOM     32  C   UNL     1      -1.406  14.447  22.999  0.00  0.00    +0.000 A 
ATOM     33  C   UNL     1      -0.590  15.579  22.737  0.00  0.00    +0.000 A 
ATOM     34  C   UNL     1       0.567  15.098  22.175  0.00  0.00    +0.000 A 
ATOM     35  O   UNL     1       0.518  13.746  22.062  0.00  0.00    +0.000 OA
ATOM     36  C   UNL     1      -0.682  13.330  22.573  0.00  0.00    +0.000 A 
ENDBRANCH  23  26
ENDBRANCH  19  20
ENDBRANCH   1  19
TORSDOF 7
ENDMDL
MODEL 4
REMARK VINA RESULT:      -9.1      6.807     10.788
REMARK  Name = 
REMARK  7 active torsions:
REMARK  status: ('A' for Active; 'I' for Inactive)
REMARK    1  A    between atoms: C_2  and  O_3
REMARK    2  A    between atoms: C_2  and  C_4
REMARK    3  A    between atoms: C_9  and  C_11
REMARK    4  A    between atoms: C_15  and  C_16
REMARK    5  A    between atoms: C_16  and  O_17
REMARK    6  A    between atoms: O_17  and  C_18
REMARK    7  A    between atoms: C_21  and  C_22
REMARK                            x       y       z     vdW  Elec       q    Type
REMARK                         _______ _______ _______ _____ _____    ______ ____
ROOT
ATOM      1  C   UNL     1       0.930   6.435  20.799  0.00  0.00    +0.000 C 
ENDROOT
BRANCH   1   6
ATOM      2  C   UNL     1       4.109   4.636  19.606  0.00  0.00    +0.000 A 
ATOM      3  C   UNL     1       3.678   3.309  19.710  0.00  0.00    +0.000 A 
ATOM      4  C   UNL     1       2.437   2.995  20.265  0.00  0.00    +0.000 A 
ATOM      5  C   UNL     1       1.572   4.012  20.647  0.00  0.00    +0.000 A 
ATOM      6  C   UNL     1       1.929   5.354  20.464  0.00  0.00    +0.000 A 
ATOM      7  C   UNL     1       3.206   5.656  19.954  0.00  0.00    +0.000 A 
BRANCH   2  13
ATOM      8  C   UNL     1       7.061   5.569  17.272  0.00  0.00    +0.000 C 
ATOM      9  C   UNL     1       6.922   5.462  15.781  0.00  0.00    +0.000 C 
ATOM     10  C   UNL     1       5.690   5.095  15.423  0.00  0.00    +0.000 C 
ATOM     11  C   UNL     1       4.820   4.915  16.612  0.00  0.00    +0.000 C 
ATOM     12  N   UNL     1       5.689   5.276  17.728  0.00  0.00    +0.000 N 
ATOM     13  C   UNL     1       5.454   5.040  19.078  0.00  0.00    +0.000 C 
ATOM     14  O   UNL     1       6.382   5.164  19.882  0.00  0.00    +0.000 OA
BRANCH   8  16
ATOM     15  O   UNL     1       7.497   7.984  17.027  0.00  0.00    +0.000 OA
ATOM     16  C   UNL     1       7.614   6.958  17.686  0.00  0.00    +0.000 C 
BRANCH  16  17
ATOM     17  O   UNL     1       8.360   6.936  18.819  0.00  0.00    +0.000 OA
ATOM     18  H   UNL     1       8.020   7.563  19.507  0.00  0.00    +0.000 HD
ENDBRANCH  16  17
ENDBRANCH   8  16
ENDBRANCH   2  13
ENDBRANCH   1   6
BRANCH   1  19
ATOM     19  O   UNL     1       1.628   7.679  20.759  0.00  0.00    +0.000 OA
BRANCH  19  20
ATOM     20  C   UNL     1       0.884   8.809  20.929  0.00  0.00    +0.000 A 
ATOM     21  C   UNL     1       0.302   8.937  22.185  0.00  0.00    +0.000 A 
ATOM     22  C   UNL     1      -0.456  10.066  22.502  0.00  0.00    +0.000 A 
ATOM     23  C   UNL     1      -0.622  11.126  21.591  0.00  0.00    +0.000 A 
ATOM     24  C   UNL     1      -0.025  10.974  20.328  0.00  0.00    +0.000 A 
ATOM     25  C   UNL     1       0.718   9.827  19.996  0.00  0.00    +0.000 A 
BRANCH  23  26
ATOM     26  C   UNL     1      -1.350  12.346  21.995  0.00  0.00    +0.000 A 
ATOM     27  C   UNL     1      -0.862  13.192  23.020  0.00  0.00    +0.000 A 
ATOM     28  C   UNL     1      -1.548  14.327  23.439  0.00  0.00    +0.000 A 
ATOM     29  F   UNL     1      -1.033  15.065  24.431  0.00  0.00    +0.000 F 
ATOM     30  C   UNL     1      -2.750  14.698  22.848  0.00  0.00    +0.000 A 
ATOM     31  F   UNL     1      -3.398  15.792  23.269  0.00  0.00    +0.000 F 
ATOM     32  C   UNL     1      -3.267  13.916  21.808  0.00  0.00    +0.000 A 
ATOM     33  C   UNL     1      -4.420  13.982  20.981  0.00  0.00    +0.000 A 
ATOM     34  C   UNL     1      -4.356  12.894  20.145  0.00  0.00    +0.000 A 
ATOM     35  O   UNL     1      -3.248  12.154  20.405  0.00  0.00    +0.000 OA
ATOM     36  C   UNL     1      -2.563  12.775  21.416  0.00  0.00    +0.000 A 
ENDBRANCH  23  26
ENDBRANCH  19  20
ENDBRANCH   1  19
TORSDOF 7
ENDMDL
MODEL 5
REMARK VINA RESULT:      -9.1      6.996     10.914
REMARK  Name = 
REMARK  7 active torsions:
REMARK  status: ('A' for Active; 'I' for Inactive)
REMARK    1  A    between atoms: C_2  and  O_3
REMARK    2  A    between atoms: C_2  and  C_4
REMARK    3  A    between atoms: C_9  and  C_11
REMARK    4  A    between atoms: C_15  and  C_16
REMARK    5  A    between atoms: C_16  and  O_17
REMARK    6  A    between atoms: O_17  and  C_18
REMARK    7  A    between atoms: C_21  and  C_22
REMARK                            x       y       z     vdW  Elec       q    Type
REMARK                         _______ _______ _______ _____ _____    ______ ____
ROOT
ATOM      1  C   UNL     1       0.981   6.503  20.888  0.00  0.00    +0.000 C 
ENDROOT
BRANCH   1   6
ATOM      2  C   UNL     1       3.981   4.459  19.626  0.00  0.00    +0.000 A 
ATOM      3  C   UNL     1       3.431   3.175  19.694  0.00  0.00    +0.000 A 
ATOM      4  C   UNL     1       2.168   2.958  20.246  0.00  0.00    +0.000 A 
ATOM      5  C   UNL     1       1.400   4.037  20.662  0.00  0.00    +0.000 A 
ATOM      6  C   UNL     1       1.878   5.346  20.516  0.00  0.00    +0.000 A 
ATOM      7  C   UNL     1       3.175   5.546  20.009  0.00  0.00    +0.000 A 
BRANCH   2  13
ATOM      8  C   UNL     1       7.043   4.995  17.309  0.00  0.00    +0.000 C 
ATOM      9  C   UNL     1       6.955   4.691  15.841  0.00  0.00    +0.000 C 
ATOM     10  C   UNL     1       5.727   4.308  15.487  0.00  0.00    +0.000 C 
ATOM     11  C   UNL     1       4.809   4.312  16.653  0.00  0.00    +0.000 C 
ATOM     12  N   UNL     1       5.647   4.800  17.745  0.00  0.00    +0.000 N 
ATOM     13  C   UNL     1       5.356   4.755  19.104  0.00  0.00    +0.000 C 
ATOM     14  O   UNL     1       6.257   4.964  19.920  0.00  0.00    +0.000 OA
BRANCH   8  16
ATOM     15  O   UNL     1       7.726   7.285  16.701  0.00  0.00    +0.000 OA
ATOM     16  C   UNL     1       7.621   6.412  17.555  0.00  0.00    +0.000 C 
BRANCH  16  17
ATOM     17  O   UNL     1       8.124   6.592  18.803  0.00  0.00    +0.000 OA
ATOM     18  H   UNL     1       7.678   7.332  19.287  0.00  0.00    +0.000 HD
ENDBRANCH  16  17
ENDBRANCH   8  16
ENDBRANCH   2  13
ENDBRANCH   1   6
BRANCH   1  19
ATOM     19  O   UNL     1       1.561   7.680  20.327  0.00  0.00    +0.000 OA
BRANCH  19  20
ATOM     20  C   UNL     1       0.988   8.870  20.664  0.00  0.00    +0.000 A 
ATOM     21  C   UNL     1       0.773   9.046  22.027  0.00  0.00    +0.000 A 
ATOM     22  C   UNL     1       0.225  10.236  22.509  0.00  0.00    +0.000 A 
ATOM     23  C   UNL     1      -0.087  11.309  21.653  0.00  0.00    +0.000 A 
ATOM     24  C   UNL     1       0.139  11.108  20.280  0.00  0.00    +0.000 A 
ATOM     25  C   UNL     1       0.667   9.902  19.787  0.00  0.00    +0.000 A 
BRANCH  23  26
ATOM     26  C   UNL     1      -0.575  12.587  22.209  0.00  0.00    +0.000 A 
ATOM     27  C   UNL     1       0.137  13.796  22.018  0.00  0.00    +0.000 A 
ATOM     28  C   UNL     1      -0.286  15.003  22.562  0.00  0.00    +0.000 A 
ATOM     29  F   UNL     1       0.454  16.101  22.355  0.00  0.00    +0.000 F 
ATOM     30  C   UNL     1      -1.455  15.084  23.309  0.00  0.00    +0.000 A 
ATOM     31  F   UNL     1      -1.844  16.256  23.829  0.00  0.00    +0.000 F 
ATOM     32  C   UNL     1      -2.217  13.925  23.507  0.00  0.00    +0.000 A 
ATOM     33  C   UNL     1      -3.433  13.627  24.179  0.00  0.00    +0.000 A 
ATOM     34  C   UNL     1      -3.646  12.281  24.008  0.00  0.00    +0.000 A 
ATOM     35  O   UNL     1      -2.641  11.725  23.284  0.00  0.00    +0.000 OA
ATOM     36  C   UNL     1      -1.762  12.723  22.960  0.00  0.00    +0.000 A 
ENDBRANCH  23  26
ENDBRANCH  19  20
ENDBRANCH   1  19
TORSDOF 7
ENDMDL
MODEL 6
REMARK VINA RESULT:      -9.0      6.850     10.840
REMARK  Name = 
REMARK  7 active torsions:
REMARK  status: ('A' for Active; 'I' for Inactive)
REMARK    1  A    between atoms: C_2  and  O_3
REMARK    2  A    between atoms: C_2  and  C_4
REMARK    3  A    between atoms: C_9  and  C_11
REMARK    4  A    between atoms: C_15  and  C_16
REMARK    5  A    between atoms: C_16  and  O_17
REMARK    6  A    between atoms: O_17  and  C_18
REMARK    7  A    between atoms: C_21  and  C_22
REMARK                            x       y       z     vdW  Elec       q    Type
REMARK                         _______ _______ _______ _____ _____    ______ ____
ROOT
ATOM      1  C   UNL     1       0.859   6.507  20.781  0.00  0.00    +0.000 C 
ENDROOT
BRANCH   1   6
ATOM      2  C   UNL     1       4.006   4.617  19.642  0.00  0.00    +0.000 A 
ATOM      3  C   UNL     1       3.548   3.303  19.773  0.00  0.00    +0.000 A 
ATOM      4  C   UNL     1       2.298   3.026  20.329  0.00  0.00    +0.000 A 
ATOM      5  C   UNL     1       1.452   4.068  20.684  0.00  0.00    +0.000 A 
ATOM      6  C   UNL     1       1.838   5.398  20.474  0.00  0.00    +0.000 A 
ATOM      7  C   UNL     1       3.122   5.664  19.964  0.00  0.00    +0.000 A 
BRANCH   2  13
ATOM      8  C   UNL     1       6.987   5.439  17.303  0.00  0.00    +0.000 C 
ATOM      9  C   UNL     1       6.853   5.303  15.814  0.00  0.00    +0.000 C 
ATOM     10  C   UNL     1       5.615   4.952  15.458  0.00  0.00    +0.000 C 
ATOM     11  C   UNL     1       4.737   4.816  16.647  0.00  0.00    +0.000 C 
ATOM     12  N   UNL     1       5.607   5.185  17.759  0.00  0.00    +0.000 N 
ATOM     13  C   UNL     1       5.361   4.983  19.113  0.00  0.00    +0.000 C 
ATOM     14  O   UNL     1       6.288   5.106  19.918  0.00  0.00    +0.000 OA
BRANCH   8  16
ATOM     15  O   UNL     1       7.485   7.836  17.001  0.00  0.00    +0.000 OA
ATOM     16  C   UNL     1       7.566   6.825  17.690  0.00  0.00    +0.000 C 
BRANCH  16  17
ATOM     17  O   UNL     1       8.292   6.817  18.836  0.00  0.00    +0.000 OA
ATOM     18  H   UNL     1       9.240   6.572  18.682  0.00  0.00    +0.000 HD
ENDBRANCH  16  17
ENDBRANCH   8  16
ENDBRANCH   2  13
ENDBRANCH   1   6
BRANCH   1  19
ATOM     19  O   UNL     1       1.625   7.673  21.078  0.00  0.00    +0.000 OA
BRANCH  19  20
ATOM     20  C   UNL     1       0.931   8.817  21.339  0.00  0.00    +0.000 A 
ATOM     21  C   UNL     1       0.569   9.546  20.211  0.00  0.00    +0.000 A 
ATOM     22  C   UNL     1      -0.177  10.720  20.338  0.00  0.00    +0.000 A 
ATOM     23  C   UNL     1      -0.623  11.184  21.589  0.00  0.00    +0.000 A 
ATOM     24  C   UNL     1      -0.244  10.431  22.714  0.00  0.00    +0.000 A 
ATOM     25  C   UNL     1       0.528   9.262  22.594  0.00  0.00    +0.000 A 
BRANCH  23  26
ATOM     26  C   UNL     1      -1.490  12.376  21.675  0.00  0.00    +0.000 A 
ATOM     27  C   UNL     1      -1.317  13.479  20.804  0.00  0.00    +0.000 A 
ATOM     28  C   UNL     1      -2.099  14.626  20.889  0.00  0.00    +0.000 A 
ATOM     29  F   UNL     1      -1.860  15.637  20.044  0.00  0.00    +0.000 F 
ATOM     30  C   UNL     1      -3.113  14.734  21.833  0.00  0.00    +0.000 A 
ATOM     31  F   UNL     1      -3.853  15.849  21.903  0.00  0.00    +0.000 F 
ATOM     32  C   UNL     1      -3.351  13.662  22.702  0.00  0.00    +0.000 A 
ATOM     33  C   UNL     1      -4.273  13.407  23.752  0.00  0.00    +0.000 A 
ATOM     34  C   UNL     1      -3.980  12.152  24.227  0.00  0.00    +0.000 A 
ATOM     35  O   UNL     1      -2.932  11.618  23.549  0.00  0.00    +0.000 OA
ATOM     36  C   UNL     1      -2.542  12.528  22.603  0.00  0.00    +0.000 A 
ENDBRANCH  23  26
ENDBRANCH  19  20
ENDBRANCH   1  19
TORSDOF 7
ENDMDL
MODEL 7
REMARK VINA RESULT:      -8.9      7.556     11.324
REMARK  Name = 
REMARK  7 active torsions:
REMARK  status: ('A' for Active; 'I' for Inactive)
REMARK    1  A    between atoms: C_2  and  O_3
REMARK    2  A    between atoms: C_2  and  C_4
REMARK    3  A    between atoms: C_9  and  C_11
REMARK    4  A    between atoms: C_15  and  C_16
REMARK    5  A    between atoms: C_16  and  O_17
REMARK    6  A    between atoms: O_17  and  C_18
REMARK    7  A    between atoms: C_21  and  C_22
REMARK                            x       y       z     vdW  Elec       q    Type
REMARK                         _______ _______ _______ _____ _____    ______ ____
ROOT
ATOM      1  C   UNL     1       0.984   7.447  21.382  0.00  0.00    +0.000 C 
ENDROOT
BRANCH   1   6
ATOM      2  C   UNL     1       3.160   5.667  18.760  0.00  0.00    +0.000 A 
ATOM      3  C   UNL     1       2.555   4.406  18.774  0.00  0.00    +0.000 A 
ATOM      4  C   UNL     1       1.550   4.098  19.691  0.00  0.00    +0.000 A 
ATOM      5  C   UNL     1       1.075   5.077  20.553  0.00  0.00    +0.000 A 
ATOM      6  C   UNL     1       1.587   6.379  20.499  0.00  0.00    +0.000 A 
ATOM      7  C   UNL     1       2.639   6.662  19.608  0.00  0.00    +0.000 A 
BRANCH   2  13
ATOM      8  C   UNL     1       6.678   6.306  17.261  0.00  0.00    +0.000 C 
ATOM      9  C   UNL     1       7.912   6.113  18.095  0.00  0.00    +0.000 C 
ATOM     10  C   UNL     1       7.621   5.652  19.313  0.00  0.00    +0.000 C 
ATOM     11  C   UNL     1       6.159   5.454  19.472  0.00  0.00    +0.000 C 
ATOM     12  N   UNL     1       5.621   5.812  18.163  0.00  0.00    +0.000 N 
ATOM     13  C   UNL     1       4.287   6.046  17.845  0.00  0.00    +0.000 C 
ATOM     14  O   UNL     1       4.010   6.588  16.772  0.00  0.00    +0.000 OA
BRANCH   8  16
ATOM     15  O   UNL     1       7.594   4.663  15.666  0.00  0.00    +0.000 OA
ATOM     16  C   UNL     1       6.794   5.560  15.907  0.00  0.00    +0.000 C 
BRANCH  16  17
ATOM     17  O   UNL     1       5.993   6.062  14.933  0.00  0.00    +0.000 OA
ATOM     18  H   UNL     1       5.571   6.919  15.196  0.00  0.00    +0.000 HD
ENDBRANCH  16  17
ENDBRANCH   8  16
ENDBRANCH   2  13
ENDBRANCH   1   6
BRANCH   1  19
ATOM     19  O   UNL     1       1.000   8.664  20.638  0.00  0.00    +0.000 OA
BRANCH  19  20
ATOM     20  C   UNL     1       0.189   9.667  21.081  0.00  0.00    +0.000 A 
ATOM     21  C   UNL     1      -0.043   9.662  22.453  0.00  0.00    +0.000 A 
ATOM     22  C   UNL     1      -0.828  10.656  23.040  0.00  0.00    +0.000 A 
ATOM     23  C   UNL     1      -1.372  11.713  22.287  0.00  0.00    +0.000 A 
ATOM     24  C   UNL     1      -1.124  11.697  20.904  0.00  0.00    +0.000 A 
ATOM     25  C   UNL     1      -0.356  10.684  20.303  0.00  0.00    +0.000 A 
BRANCH  23  26
ATOM     26  C   UNL     1      -2.116  12.798  22.957  0.00  0.00    +0.000 A 
ATOM     27  C   UNL     1      -1.466  13.726  23.806  0.00  0.00    +0.000 A 
ATOM     28  C   UNL     1      -2.152  14.734  24.473  0.00  0.00    +0.000 A 
ATOM     29  F   UNL     1      -1.469  15.561  25.277  0.00  0.00    +0.000 F 
ATOM     30  C   UNL     1      -3.524  14.892  24.320  0.00  0.00    +0.000 A 
ATOM     31  F   UNL     1      -4.169  15.866  24.976  0.00  0.00    +0.000 F 
ATOM     32  C   UNL     1      -4.218  14.021  23.470  0.00  0.00    +0.000 A 
ATOM     33  C   UNL     1      -5.572  13.882  23.064  0.00  0.00    +0.000 A 
ATOM     34  C   UNL     1      -5.609  12.811  22.205  0.00  0.00    +0.000 A 
ATOM     35  O   UNL     1      -4.371  12.271  22.060  0.00  0.00    +0.000 OA
ATOM     36  C   UNL     1      -3.505  13.010  22.821  0.00  0.00    +0.000 A 
ENDBRANCH  23  26
ENDBRANCH  19  20
ENDBRANCH   1  19
TORSDOF 7
ENDMDL
MODEL 8
REMARK VINA RESULT:      -8.8      7.797     11.585
REMARK  Name = 
REMARK  7 active torsions:
REMARK  status: ('A' for Active; 'I' for Inactive)
REMARK    1  A    between atoms: C_2  and  O_3
REMARK    2  A    between atoms: C_2  and  C_4
REMARK    3  A    between atoms: C_9  and  C_11
REMARK    4  A    between atoms: C_15  and  C_16
REMARK    5  A    between atoms: C_16  and  O_17
REMARK    6  A    between atoms: O_17  and  C_18
REMARK    7  A    between atoms: C_21  and  C_22
REMARK                            x       y       z     vdW  Elec       q    Type
REMARK                         _______ _______ _______ _____ _____    ______ ____
ROOT
ATOM      1  C   UNL     1       1.776   7.557  20.798  0.00  0.00    +0.000 C 
ENDROOT
BRANCH   1   6
ATOM      2  C   UNL     1       3.480   4.456  19.297  0.00  0.00    +0.000 A 
ATOM      3  C   UNL     1       2.423   3.546  19.384  0.00  0.00    +0.000 A 
ATOM      4  C   UNL     1       1.228   3.884  20.019  0.00  0.00    +0.000 A 
ATOM      5  C   UNL     1       1.043   5.173  20.505  0.00  0.00    +0.000 A 
ATOM      6  C   UNL     1       2.043   6.140  20.346  0.00  0.00    +0.000 A 
ATOM      7  C   UNL     1       3.264   5.770  19.752  0.00  0.00    +0.000 A 
BRANCH   2  13
ATOM      8  C   UNL     1       6.398   3.958  16.792  0.00  0.00    +0.000 C 
ATOM      9  C   UNL     1       6.184   4.152  15.319  0.00  0.00    +0.000 C 
ATOM     10  C   UNL     1       4.943   4.563  15.048  0.00  0.00    +0.000 C 
ATOM     11  C   UNL     1       4.149   4.719  16.292  0.00  0.00    +0.000 C 
ATOM     12  N   UNL     1       5.103   4.394  17.349  0.00  0.00    +0.000 N 
ATOM     13  C   UNL     1       4.812   4.138  18.684  0.00  0.00    +0.000 C 
ATOM     14  O   UNL     1       5.677   3.627  19.402  0.00  0.00    +0.000 OA
BRANCH   8  16
ATOM     15  O   UNL     1       7.832   5.944  17.078  0.00  0.00    +0.000 OA
ATOM     16  C   UNL     1       7.633   4.754  17.290  0.00  0.00    +0.000 C 
BRANCH  16  17
ATOM     17  O   UNL     1       8.568   3.987  17.906  0.00  0.00    +0.000 OA
ATOM     18  H   UNL     1       8.566   4.108  18.890  0.00  0.00    +0.000 HD
ENDBRANCH  16  17
ENDBRANCH   8  16
ENDBRANCH   2  13
ENDBRANCH   1   6
BRANCH   1  19
ATOM     19  O   UNL     1       0.387   7.642  21.113  0.00  0.00    +0.000 OA
BRANCH  19  20
ATOM     20  C   UNL     1      -0.109   8.883  21.382  0.00  0.00    +0.000 A 
ATOM     21  C   UNL     1      -0.345   9.133  22.730  0.00  0.00    +0.000 A 
ATOM     22  C   UNL     1      -0.819  10.379  23.146  0.00  0.00    +0.000 A 
ATOM     23  C   UNL     1      -1.034  11.432  22.236  0.00  0.00    +0.000 A 
ATOM     24  C   UNL     1      -0.789  11.155  20.880  0.00  0.00    +0.000 A 
ATOM     25  C   UNL     1      -0.335   9.894  20.454  0.00  0.00    +0.000 A 
BRANCH  23  26
ATOM     26  C   UNL     1      -1.444  12.764  22.724  0.00  0.00    +0.000 A 
ATOM     27  C   UNL     1      -0.535  13.848  22.767  0.00  0.00    +0.000 A 
ATOM     28  C   UNL     1      -0.890  15.100  23.254  0.00  0.00    +0.000 A 
ATOM     29  F   UNL     1       0.034  16.070  23.283  0.00  0.00    +0.000 F 
ATOM     30  C   UNL     1      -2.179  15.355  23.707  0.00  0.00    +0.000 A 
ATOM     31  F   UNL     1      -2.502  16.567  24.177  0.00  0.00    +0.000 F 
ATOM     32  C   UNL     1      -3.132  14.329  23.660  0.00  0.00    +0.000 A 
ATOM     33  C   UNL     1      -4.504  14.217  24.010  0.00  0.00    +0.000 A 
ATOM     34  C   UNL     1      -4.869  12.924  23.727  0.00  0.00    +0.000 A 
ATOM     35  O   UNL     1      -3.814  12.225  23.236  0.00  0.00    +0.000 OA
ATOM     36  C   UNL     1      -2.743  13.077  23.178  0.00  0.00    +0.000 A 
ENDBRANCH  23  26
ENDBRANCH  19  20
ENDBRANCH   1  19
TORSDOF 7
ENDMDL
MODEL 9
REMARK VINA RESULT:      -8.8      7.758     11.223
REMARK  Name = 
REMARK  7 active torsions:
REMARK  status: ('A' for Active; 'I' for Inactive)
REMARK    1  A    between atoms: C_2  and  O_3
REMARK    2  A    between atoms: C_2  and  C_4
REMARK    3  A    between atoms: C_9  and  C_11
REMARK    4  A    between atoms: C_15  and  C_16
REMARK    5  A    between atoms: C_16  and  O_17
REMARK    6  A    between atoms: O_17  and  C_18
REMARK    7  A    between atoms: C_21  and  C_22
REMARK                            x       y       z     vdW  Elec       q    Type
REMARK                         _______ _______ _______ _____ _____    ______ ____
ROOT
ATOM      1  C   UNL     1      -0.894  10.436  20.501  0.00  0.00    +0.000 C 
ENDROOT
BRANCH   1   6
ATOM      2  C   UNL     1      -3.092  13.457  21.405  0.00  0.00    +0.000 A 
ATOM      3  C   UNL     1      -2.341  14.476  20.811  0.00  0.00    +0.000 A 
ATOM      4  C   UNL     1      -1.096  14.216  20.237  0.00  0.00    +0.000 A 
ATOM      5  C   UNL     1      -0.622  12.912  20.175  0.00  0.00    +0.000 A 
ATOM      6  C   UNL     1      -1.393  11.852  20.670  0.00  0.00    +0.000 A 
ATOM      7  C   UNL     1      -2.621  12.136  21.295  0.00  0.00    +0.000 A 
BRANCH   2  13
ATOM      8  C   UNL     1      -6.868  13.503  22.285  0.00  0.00    +0.000 C 
ATOM      9  C   UNL     1      -7.888  13.001  21.305  0.00  0.00    +0.000 C 
ATOM     10  C   UNL     1      -7.318  12.509  20.204  0.00  0.00    +0.000 C 
ATOM     11  C   UNL     1      -5.839  12.594  20.285  0.00  0.00    +0.000 C 
ATOM     12  N   UNL     1      -5.602  13.157  21.611  0.00  0.00    +0.000 N 
ATOM     13  C   UNL     1      -4.406  13.677  22.094  0.00  0.00    +0.000 C 
ATOM     14  O   UNL     1      -4.416  14.349  23.129  0.00  0.00    +0.000 OA
BRANCH   8  16
ATOM     15  O   UNL     1      -7.396  11.698  23.881  0.00  0.00    +0.000 OA
ATOM     16  C   UNL     1      -7.069  12.863  23.683  0.00  0.00    +0.000 C 
BRANCH  16  17
ATOM     17  O   UNL     1      -6.961  13.742  24.711  0.00  0.00    +0.000 OA
ATOM     18  H   UNL     1      -7.610  14.488  24.639  0.00  0.00    +0.000 HD
ENDBRANCH  16  17
ENDBRANCH   8  16
ENDBRANCH   2  13
ENDBRANCH   1   6
BRANCH   1  19
ATOM     19  O   UNL     1       0.525  10.504  20.369  0.00  0.00    +0.000 OA
BRANCH  19  20
ATOM     20  C   UNL     1       1.150   9.403  19.863  0.00  0.00    +0.000 A 
ATOM     21  C   UNL     1       1.486   9.495  18.517  0.00  0.00    +0.000 A 
ATOM     22  C   UNL     1       2.163   8.450  17.884  0.00  0.00    +0.000 A 
ATOM     23  C   UNL     1       2.565   7.297  18.583  0.00  0.00    +0.000 A 
ATOM     24  C   UNL     1       2.214   7.227  19.942  0.00  0.00    +0.000 A 
ATOM     25  C   UNL     1       1.510   8.265  20.577  0.00  0.00    +0.000 A 
BRANCH  23  26
ATOM     26  C   UNL     1       3.362   6.255  17.904  0.00  0.00    +0.000 A 
ATOM     27  C   UNL     1       4.589   6.562  17.268  0.00  0.00    +0.000 A 
ATOM     28  C   UNL     1       5.339   5.604  16.594  0.00  0.00    +0.000 A 
ATOM     29  F   UNL     1       6.479   5.977  15.997  0.00  0.00    +0.000 F 
ATOM     30  C   UNL     1       4.922   4.280  16.531  0.00  0.00    +0.000 A 
ATOM     31  F   UNL     1       5.655   3.373  15.872  0.00  0.00    +0.000 F 
ATOM     32  C   UNL     1       3.730   3.911  17.167  0.00  0.00    +0.000 A 
ATOM     33  C   UNL     1       3.012   2.696  17.327  0.00  0.00    +0.000 A 
ATOM     34  C   UNL     1       1.894   3.003  18.062  0.00  0.00    +0.000 A 
ATOM     35  O   UNL     1       1.865   4.327  18.359  0.00  0.00    +0.000 OA
ATOM     36  C   UNL     1       2.991   4.896  17.827  0.00  0.00    +0.000 A 
ENDBRANCH  23  26
ENDBRANCH  19  20
ENDBRANCH   1  19
TORSDOF 7
ENDMDL
