MODEL 1
REMARK VINA RESULT:      -7.6      0.000      0.000
REMARK  Name = 
REMARK  6 active torsions:
REMARK  status: ('A' for Active; 'I' for Inactive)
REMARK    1  A    between atoms: C_1  and  C_2
REMARK    2  A    between atoms: C_4  and  C_5
REMARK    3  A    between atoms: C_11  and  C_12
REMARK    4  A    between atoms: C_12  and  C_13
REMARK    5  A    between atoms: C_12  and  C_14
REMARK    6  A    between atoms: C_12  and  C_15
REMARK                            x       y       z     vdW  Elec       q    Type
REMARK                         _______ _______ _______ _____ _____    ______ ____
ROOT
ATOM      1  C   UNL     1       6.400   4.756  14.630  0.00  0.00    +0.000 A 
ATOM      2  N   UNL     1       7.494   5.496  14.592  0.00  0.00    +0.000 NA
ATOM      3  N   UNL     1       7.709   6.011  15.856  0.00  0.00    +0.000 NA
ATOM      4  C   UNL     1       6.752   5.553  16.623  0.00  0.00    +0.000 A 
ATOM      5  N   UNL     1       5.897   4.747  15.918  0.00  0.00    +0.000 N 
ATOM      6  N   UNL     1       4.760   4.099  16.336  0.00  0.00    +0.000 NA
ATOM      7  C   UNL     1       4.594   3.955  17.623  0.00  0.00    +0.000 C 
ATOM      8  C   UNL     1       5.660   4.290  18.669  0.00  0.00    +0.000 C 
ATOM      9  S   UNL     1       6.478   5.858  18.296  0.00  0.00    +0.000 S 
ENDROOT
BRANCH   1  13
ATOM     10  C   UNL     1       3.644   2.962  10.800  0.00  0.00    +0.000 C 
ATOM     11  C   UNL     1       4.675   3.225  11.830  0.00  0.00    +0.000 A 
ATOM     12  C   UNL     1       4.665   4.212  12.844  0.00  0.00    +0.000 A 
ATOM     13  C   UNL     1       5.850   4.046  13.523  0.00  0.00    +0.000 A 
ATOM     14  N   UNL     1       6.478   2.999  12.906  0.00  0.00    +0.000 N 
ATOM     15  N   UNL     1       5.791   2.485  11.873  0.00  0.00    +0.000 NA
ATOM     16  H   UNL     1       7.378   2.597  13.145  0.00  0.00    +0.000 HD
ENDBRANCH   1  13
BRANCH   7  17
ATOM     17  C   UNL     1       3.287   3.257  18.095  0.00  0.00    +0.000 C 
ATOM     18  C   UNL     1       3.002   3.604  19.569  0.00  0.00    +0.000 C 
ATOM     19  C   UNL     1       2.108   3.741  17.241  0.00  0.00    +0.000 C 
ATOM     20  C   UNL     1       3.408   1.728  17.985  0.00  0.00    +0.000 C 
ENDBRANCH   7  17
TORSDOF 2
ENDMDL
MODEL 2
REMARK VINA RESULT:      -7.5      0.336      1.116
REMARK  Name = 
REMARK  6 active torsions:
REMARK  status: ('A' for Active; 'I' for Inactive)
REMARK    1  A    between atoms: C_1  and  C_2
REMARK    2  A    between atoms: C_4  and  C_5
REMARK    3  A    between atoms: C_11  and  C_12
REMARK    4  A    between atoms: C_12  and  C_13
REMARK    5  A    between atoms: C_12  and  C_14
REMARK    6  A    between atoms: C_12  and  C_15
REMARK                            x       y       z     vdW  Elec       q    Type
REMARK                         _______ _______ _______ _____ _____    ______ ____
ROOT
ATOM      1  C   UNL     1       6.365   4.675  14.693  0.00  0.00    +0.000 A 
ATOM      2  N   UNL     1       7.513   5.331  14.706  0.00  0.00    +0.000 NA
ATOM      3  N   UNL     1       7.705   5.836  15.978  0.00  0.00    +0.000 NA
ATOM      4  C   UNL     1       6.679   5.456  16.698  0.00  0.00    +0.000 A 
ATOM      5  N   UNL     1       5.801   4.713  15.954  0.00  0.00    +0.000 N 
ATOM      6  N   UNL     1       4.600   4.155  16.318  0.00  0.00    +0.000 NA
ATOM      7  C   UNL     1       4.360   4.031  17.596  0.00  0.00    +0.000 C 
ATOM      8  C   UNL     1       5.397   4.292  18.692  0.00  0.00    +0.000 C 
ATOM      9  S   UNL     1       6.348   5.791  18.355  0.00  0.00    +0.000 S 
ENDROOT
BRANCH   1  13
ATOM     10  C   UNL     1       3.607   2.993  10.813  0.00  0.00    +0.000 C 
ATOM     11  C   UNL     1       4.643   3.230  11.845  0.00  0.00    +0.000 A 
ATOM     12  C   UNL     1       4.625   4.175  12.899  0.00  0.00    +0.000 A 
ATOM     13  C   UNL     1       5.818   4.002  13.562  0.00  0.00    +0.000 A 
ATOM     14  N   UNL     1       6.458   2.991  12.898  0.00  0.00    +0.000 N 
ATOM     15  N   UNL     1       5.771   2.509  11.849  0.00  0.00    +0.000 NA
ATOM     16  H   UNL     1       7.367   2.595  13.113  0.00  0.00    +0.000 HD
ENDBRANCH   1  13
BRANCH   7  17
ATOM     17  C   UNL     1       2.984   3.437  18.005  0.00  0.00    +0.000 C 
ATOM     18  C   UNL     1       2.771   2.071  17.322  0.00  0.00    +0.000 C 
ATOM     19  C   UNL     1       2.941   3.236  19.526  0.00  0.00    +0.000 C 
ATOM     20  C   UNL     1       1.834   4.362  17.577  0.00  0.00    +0.000 C 
ENDBRANCH   7  17
TORSDOF 2
ENDMDL
MODEL 3
REMARK VINA RESULT:      -7.1      4.191      6.886
REMARK  Name = 
REMARK  6 active torsions:
REMARK  status: ('A' for Active; 'I' for Inactive)
REMARK    1  A    between atoms: C_1  and  C_2
REMARK    2  A    between atoms: C_4  and  C_5
REMARK    3  A    between atoms: C_11  and  C_12
REMARK    4  A    between atoms: C_12  and  C_13
REMARK    5  A    between atoms: C_12  and  C_14
REMARK    6  A    between atoms: C_12  and  C_15
REMARK                            x       y       z     vdW  Elec       q    Type
REMARK                         _______ _______ _______ _____ _____    ______ ____
ROOT
ATOM      1  C   UNL     1       2.327   6.629  19.595  0.00  0.00    +0.000 A 
ATOM      2  N   UNL     1       1.714   6.006  20.586  0.00  0.00    +0.000 NA
ATOM      3  N   UNL     1       2.314   4.772  20.754  0.00  0.00    +0.000 NA
ATOM      4  C   UNL     1       3.280   4.693  19.875  0.00  0.00    +0.000 A 
ATOM      5  N   UNL     1       3.351   5.834  19.117  0.00  0.00    +0.000 N 
ATOM      6  N   UNL     1       4.196   6.141  18.078  0.00  0.00    +0.000 NA
ATOM      7  C   UNL     1       5.276   5.420  17.951  0.00  0.00    +0.000 C 
ATOM      8  C   UNL     1       5.748   4.392  18.983  0.00  0.00    +0.000 C 
ATOM      9  S   UNL     1       4.370   3.391  19.591  0.00  0.00    +0.000 S 
ENDROOT
BRANCH   1  13
ATOM     10  C   UNL     1       0.764  11.380  18.912  0.00  0.00    +0.000 C 
ATOM     11  C   UNL     1       1.339  10.022  18.776  0.00  0.00    +0.000 A 
ATOM     12  C   UNL     1       1.341   8.975  19.728  0.00  0.00    +0.000 A 
ATOM     13  C   UNL     1       2.004   7.934  19.122  0.00  0.00    +0.000 A 
ATOM     14  N   UNL     1       2.343   8.395  17.879  0.00  0.00    +0.000 N 
ATOM     15  N   UNL     1       1.957   9.660  17.644  0.00  0.00    +0.000 NA
ATOM     16  H   UNL     1       2.842   7.893  17.153  0.00  0.00    +0.000 HD
ENDBRANCH   1  13
BRANCH   7  17
ATOM     17  C   UNL     1       6.209   5.745  16.751  0.00  0.00    +0.000 C 
ATOM     18  C   UNL     1       6.985   4.483  16.324  0.00  0.00    +0.000 C 
ATOM     19  C   UNL     1       5.368   6.229  15.562  0.00  0.00    +0.000 C 
ATOM     20  C   UNL     1       7.235   6.825  17.126  0.00  0.00    +0.000 C 
ENDBRANCH   7  17
TORSDOF 2
ENDMDL
MODEL 4
REMARK VINA RESULT:      -7.0      4.219      6.838
REMARK  Name = 
REMARK  6 active torsions:
REMARK  status: ('A' for Active; 'I' for Inactive)
REMARK    1  A    between atoms: C_1  and  C_2
REMARK    2  A    between atoms: C_4  and  C_5
REMARK    3  A    between atoms: C_11  and  C_12
REMARK    4  A    between atoms: C_12  and  C_13
REMARK    5  A    between atoms: C_12  and  C_14
REMARK    6  A    between atoms: C_12  and  C_15
REMARK                            x       y       z     vdW  Elec       q    Type
REMARK                         _______ _______ _______ _____ _____    ______ ____
ROOT
ATOM      1  C   UNL     1       2.272   6.658  19.601  0.00  0.00    +0.000 A 
ATOM      2  N   UNL     1       1.746   6.118  20.686  0.00  0.00    +0.000 NA
ATOM      3  N   UNL     1       2.286   4.856  20.843  0.00  0.00    +0.000 NA
ATOM      4  C   UNL     1       3.134   4.678  19.862  0.00  0.00    +0.000 A 
ATOM      5  N   UNL     1       3.183   5.778  19.047  0.00  0.00    +0.000 N 
ATOM      6  N   UNL     1       3.914   5.987  17.902  0.00  0.00    +0.000 NA
ATOM      7  C   UNL     1       4.926   5.191  17.686  0.00  0.00    +0.000 C 
ATOM      8  C   UNL     1       5.455   4.178  18.705  0.00  0.00    +0.000 C 
ATOM      9  S   UNL     1       4.102   3.296  19.517  0.00  0.00    +0.000 S 
ENDROOT
BRANCH   1  13
ATOM     10  C   UNL     1       0.790  11.422  18.832  0.00  0.00    +0.000 C 
ATOM     11  C   UNL     1       1.345  10.053  18.722  0.00  0.00    +0.000 A 
ATOM     12  C   UNL     1       1.321   9.021  19.689  0.00  0.00    +0.000 A 
ATOM     13  C   UNL     1       1.975   7.961  19.105  0.00  0.00    +0.000 A 
ATOM     14  N   UNL     1       2.333   8.399  17.859  0.00  0.00    +0.000 N 
ATOM     15  N   UNL     1       1.969   9.665  17.602  0.00  0.00    +0.000 NA
ATOM     16  H   UNL     1       2.832   7.878  17.146  0.00  0.00    +0.000 HD
ENDBRANCH   1  13
BRANCH   7  17
ATOM     17  C   UNL     1       5.727   5.404  16.371  0.00  0.00    +0.000 C 
ATOM     18  C   UNL     1       5.122   6.569  15.563  0.00  0.00    +0.000 C 
ATOM     19  C   UNL     1       7.186   5.746  16.706  0.00  0.00    +0.000 C 
ATOM     20  C   UNL     1       5.685   4.146  15.489  0.00  0.00    +0.000 C 
ENDBRANCH   7  17
TORSDOF 2
ENDMDL
MODEL 5
REMARK VINA RESULT:      -6.8      4.103      6.137
REMARK  Name = 
REMARK  6 active torsions:
REMARK  status: ('A' for Active; 'I' for Inactive)
REMARK    1  A    between atoms: C_1  and  C_2
REMARK    2  A    between atoms: C_4  and  C_5
REMARK    3  A    between atoms: C_11  and  C_12
REMARK    4  A    between atoms: C_12  and  C_13
REMARK    5  A    between atoms: C_12  and  C_14
REMARK    6  A    between atoms: C_12  and  C_15
REMARK                            x       y       z     vdW  Elec       q    Type
REMARK                         _______ _______ _______ _____ _____    ______ ____
ROOT
ATOM      1  C   UNL     1       3.332   7.340  17.693  0.00  0.00    +0.000 A 
ATOM      2  N   UNL     1       4.250   7.678  16.805  0.00  0.00    +0.000 NA
ATOM      3  N   UNL     1       4.931   6.533  16.435  0.00  0.00    +0.000 NA
ATOM      4  C   UNL     1       4.393   5.539  17.095  0.00  0.00    +0.000 A 
ATOM      5  N   UNL     1       3.373   5.974  17.899  0.00  0.00    +0.000 N 
ATOM      6  N   UNL     1       2.578   5.264  18.767  0.00  0.00    +0.000 NA
ATOM      7  C   UNL     1       2.548   3.967  18.624  0.00  0.00    +0.000 C 
ATOM      8  C   UNL     1       3.184   3.218  17.450  0.00  0.00    +0.000 C 
ATOM      9  S   UNL     1       4.824   3.872  17.064  0.00  0.00    +0.000 S 
ENDROOT
BRANCH   1  13
ATOM     10  C   UNL     1       0.098  11.023  18.908  0.00  0.00    +0.000 C 
ATOM     11  C   UNL     1       0.989   9.839  18.890  0.00  0.00    +0.000 A 
ATOM     12  C   UNL     1       1.799   9.373  17.827  0.00  0.00    +0.000 A 
ATOM     13  C   UNL     1       2.416   8.242  18.310  0.00  0.00    +0.000 A 
ATOM     14  N   UNL     1       1.965   8.105  19.595  0.00  0.00    +0.000 N 
ATOM     15  N   UNL     1       1.095   9.056  19.971  0.00  0.00    +0.000 NA
ATOM     16  H   UNL     1       2.214   7.378  20.258  0.00  0.00    +0.000 HD
ENDBRANCH   1  13
BRANCH   7  17
ATOM     17  C   UNL     1       1.680   3.162  19.632  0.00  0.00    +0.000 C 
ATOM     18  C   UNL     1       0.824   4.123  20.481  0.00  0.00    +0.000 C 
ATOM     19  C   UNL     1       0.743   2.219  18.865  0.00  0.00    +0.000 C 
ATOM     20  C   UNL     1       2.561   2.344  20.589  0.00  0.00    +0.000 C 
ENDBRANCH   7  17
TORSDOF 2
ENDMDL
MODEL 6
REMARK VINA RESULT:      -6.8      4.123      6.170
REMARK  Name = 
REMARK  6 active torsions:
REMARK  status: ('A' for Active; 'I' for Inactive)
REMARK    1  A    between atoms: C_1  and  C_2
REMARK    2  A    between atoms: C_4  and  C_5
REMARK    3  A    between atoms: C_11  and  C_12
REMARK    4  A    between atoms: C_12  and  C_13
REMARK    5  A    between atoms: C_12  and  C_14
REMARK    6  A    between atoms: C_12  and  C_15
REMARK                            x       y       z     vdW  Elec       q    Type
REMARK                         _______ _______ _______ _____ _____    ______ ____
ROOT
ATOM      1  C   UNL     1       3.308   7.382  17.711  0.00  0.00    +0.000 A 
ATOM      2  N   UNL     1       4.233   7.732  16.834  0.00  0.00    +0.000 NA
ATOM      3  N   UNL     1       4.927   6.595  16.464  0.00  0.00    +0.000 NA
ATOM      4  C   UNL     1       4.390   5.592  17.113  0.00  0.00    +0.000 A 
ATOM      5  N   UNL     1       3.358   6.015  17.909  0.00  0.00    +0.000 N 
ATOM      6  N   UNL     1       2.560   5.293  18.764  0.00  0.00    +0.000 NA
ATOM      7  C   UNL     1       2.542   3.996  18.613  0.00  0.00    +0.000 C 
ATOM      8  C   UNL     1       3.197   3.259  17.442  0.00  0.00    +0.000 C 
ATOM      9  S   UNL     1       4.835   3.929  17.076  0.00  0.00    +0.000 S 
ENDROOT
BRANCH   1  13
ATOM     10  C   UNL     1      -0.002  11.003  18.900  0.00  0.00    +0.000 C 
ATOM     11  C   UNL     1       0.919   9.843  18.892  0.00  0.00    +0.000 A 
ATOM     12  C   UNL     1       1.724   9.375  17.826  0.00  0.00    +0.000 A 
ATOM     13  C   UNL     1       2.379   8.272  18.323  0.00  0.00    +0.000 A 
ATOM     14  N   UNL     1       1.952   8.151  19.618  0.00  0.00    +0.000 N 
ATOM     15  N   UNL     1       1.062   9.086  19.987  0.00  0.00    +0.000 NA
ATOM     16  H   UNL     1       2.230   7.445  20.291  0.00  0.00    +0.000 HD
ENDBRANCH   1  13
BRANCH   7  17
ATOM     17  C   UNL     1       1.670   3.179  19.607  0.00  0.00    +0.000 C 
ATOM     18  C   UNL     1       2.567   2.315  20.515  0.00  0.00    +0.000 C 
ATOM     19  C   UNL     1       0.859   4.138  20.489  0.00  0.00    +0.000 C 
ATOM     20  C   UNL     1       0.713   2.239  18.857  0.00  0.00    +0.000 C 
ENDBRANCH   7  17
TORSDOF 2
ENDMDL
MODEL 7
REMARK VINA RESULT:      -6.7      1.008      1.113
REMARK  Name = 
REMARK  6 active torsions:
REMARK  status: ('A' for Active; 'I' for Inactive)
REMARK    1  A    between atoms: C_1  and  C_2
REMARK    2  A    between atoms: C_4  and  C_5
REMARK    3  A    between atoms: C_11  and  C_12
REMARK    4  A    between atoms: C_12  and  C_13
REMARK    5  A    between atoms: C_12  and  C_14
REMARK    6  A    between atoms: C_12  and  C_15
REMARK                            x       y       z     vdW  Elec       q    Type
REMARK                         _______ _______ _______ _____ _____    ______ ____
ROOT
ATOM      1  C   UNL     1       6.478   4.803  14.750  0.00  0.00    +0.000 A 
ATOM      2  N   UNL     1       7.565   5.555  14.766  0.00  0.00    +0.000 NA
ATOM      3  N   UNL     1       7.650   6.161  16.006  0.00  0.00    +0.000 NA
ATOM      4  C   UNL     1       6.626   5.744  16.706  0.00  0.00    +0.000 A 
ATOM      5  N   UNL     1       5.850   4.878  15.979  0.00  0.00    +0.000 N 
ATOM      6  N   UNL     1       4.683   4.245  16.330  0.00  0.00    +0.000 NA
ATOM      7  C   UNL     1       4.391   4.189  17.601  0.00  0.00    +0.000 C 
ATOM      8  C   UNL     1       5.346   4.613  18.720  0.00  0.00    +0.000 C 
ATOM      9  S   UNL     1       6.185   6.162  18.317  0.00  0.00    +0.000 S 
ENDROOT
BRANCH   1  13
ATOM     10  C   UNL     1       5.940   1.554  10.924  0.00  0.00    +0.000 C 
ATOM     11  C   UNL     1       5.761   2.596  11.962  0.00  0.00    +0.000 A 
ATOM     12  C   UNL     1       6.704   3.048  12.915  0.00  0.00    +0.000 A 
ATOM     13  C   UNL     1       6.046   4.009  13.649  0.00  0.00    +0.000 A 
ATOM     14  N   UNL     1       4.792   4.082  13.106  0.00  0.00    +0.000 N 
ATOM     15  N   UNL     1       4.589   3.233  12.086  0.00  0.00    +0.000 NA
ATOM     16  H   UNL     1       4.033   4.689  13.396  0.00  0.00    +0.000 HD
ENDBRANCH   1  13
BRANCH   7  17
ATOM     17  C   UNL     1       3.050   3.507  17.992  0.00  0.00    +0.000 C 
ATOM     18  C   UNL     1       3.048   3.160  19.493  0.00  0.00    +0.000 C 
ATOM     19  C   UNL     1       1.884   4.465  17.709  0.00  0.00    +0.000 C 
ATOM     20  C   UNL     1       2.845   2.203  17.205  0.00  0.00    +0.000 C 
ENDBRANCH   7  17
TORSDOF 2
ENDMDL
MODEL 8
REMARK VINA RESULT:      -6.7      1.003      1.394
REMARK  Name = 
REMARK  6 active torsions:
REMARK  status: ('A' for Active; 'I' for Inactive)
REMARK    1  A    between atoms: C_1  and  C_2
REMARK    2  A    between atoms: C_4  and  C_5
REMARK    3  A    between atoms: C_11  and  C_12
REMARK    4  A    between atoms: C_12  and  C_13
REMARK    5  A    between atoms: C_12  and  C_14
REMARK    6  A    between atoms: C_12  and  C_15
REMARK                            x       y       z     vdW  Elec       q    Type
REMARK                         _______ _______ _______ _____ _____    ______ ____
ROOT
ATOM      1  C   UNL     1       6.514   4.841  14.938  0.00  0.00    +0.000 A 
ATOM      2  N   UNL     1       7.587   5.612  14.974  0.00  0.00    +0.000 NA
ATOM      3  N   UNL     1       7.671   6.172  16.235  0.00  0.00    +0.000 NA
ATOM      4  C   UNL     1       6.661   5.709  16.927  0.00  0.00    +0.000 A 
ATOM      5  N   UNL     1       5.896   4.856  16.174  0.00  0.00    +0.000 N 
ATOM      6  N   UNL     1       4.743   4.188  16.510  0.00  0.00    +0.000 NA
ATOM      7  C   UNL     1       4.464   4.078  17.780  0.00  0.00    +0.000 C 
ATOM      8  C   UNL     1       5.421   4.477  18.907  0.00  0.00    +0.000 C 
ATOM      9  S   UNL     1       6.227   6.056  18.557  0.00  0.00    +0.000 S 
ENDROOT
BRANCH   1  13
ATOM     10  C   UNL     1       6.015   1.757  10.973  0.00  0.00    +0.000 C 
ATOM     11  C   UNL     1       5.819   2.739  12.065  0.00  0.00    +0.000 A 
ATOM     12  C   UNL     1       6.766   3.187  13.015  0.00  0.00    +0.000 A 
ATOM     13  C   UNL     1       6.087   4.081  13.810  0.00  0.00    +0.000 A 
ATOM     14  N   UNL     1       4.817   4.124  13.303  0.00  0.00    +0.000 N 
ATOM     15  N   UNL     1       4.624   3.316  12.248  0.00  0.00    +0.000 NA
ATOM     16  H   UNL     1       4.040   4.682  13.641  0.00  0.00    +0.000 HD
ENDBRANCH   1  13
BRANCH   7  17
ATOM     17  C   UNL     1       3.140   3.355  18.155  0.00  0.00    +0.000 C 
ATOM     18  C   UNL     1       1.933   4.135  17.596  0.00  0.00    +0.000 C 
ATOM     19  C   UNL     1       3.134   1.945  17.551  0.00  0.00    +0.000 C 
ATOM     20  C   UNL     1       2.975   3.260  19.680  0.00  0.00    +0.000 C 
ENDBRANCH   7  17
TORSDOF 2
ENDMDL
MODEL 9
REMARK VINA RESULT:      -6.7      2.302      3.314
REMARK  Name = 
REMARK  6 active torsions:
REMARK  status: ('A' for Active; 'I' for Inactive)
REMARK    1  A    between atoms: C_1  and  C_2
REMARK    2  A    between atoms: C_4  and  C_5
REMARK    3  A    between atoms: C_11  and  C_12
REMARK    4  A    between atoms: C_12  and  C_13
REMARK    5  A    between atoms: C_12  and  C_14
REMARK    6  A    between atoms: C_12  and  C_15
REMARK                            x       y       z     vdW  Elec       q    Type
REMARK                         _______ _______ _______ _____ _____    ______ ____
ROOT
ATOM      1  C   UNL     1       4.594   6.349  16.731  0.00  0.00    +0.000 A 
ATOM      2  N   UNL     1       4.374   7.651  16.798  0.00  0.00    +0.000 NA
ATOM      3  N   UNL     1       3.486   7.884  17.831  0.00  0.00    +0.000 NA
ATOM      4  C   UNL     1       3.211   6.722  18.368  0.00  0.00    +0.000 A 
ATOM      5  N   UNL     1       3.883   5.712  17.730  0.00  0.00    +0.000 N 
ATOM      6  N   UNL     1       3.850   4.358  17.960  0.00  0.00    +0.000 NA
ATOM      7  C   UNL     1       3.370   3.958  19.107  0.00  0.00    +0.000 C 
ATOM      8  C   UNL     1       3.023   4.896  20.266  0.00  0.00    +0.000 C 
ATOM      9  S   UNL     1       2.155   6.370  19.682  0.00  0.00    +0.000 S 
ENDROOT
BRANCH   1  13
ATOM     10  C   UNL     1       6.740   3.731  12.986  0.00  0.00    +0.000 C 
ATOM     11  C   UNL     1       6.450   4.577  14.167  0.00  0.00    +0.000 A 
ATOM     12  C   UNL     1       5.189   4.886  14.731  0.00  0.00    +0.000 A 
ATOM     13  C   UNL     1       5.462   5.711  15.798  0.00  0.00    +0.000 A 
ATOM     14  N   UNL     1       6.824   5.838  15.819  0.00  0.00    +0.000 N 
ATOM     15  N   UNL     1       7.448   5.166  14.838  0.00  0.00    +0.000 NA
ATOM     16  H   UNL     1       7.380   6.375  16.475  0.00  0.00    +0.000 HD
ENDBRANCH   1  13
BRANCH   7  17
ATOM     17  C   UNL     1       3.298   2.424  19.349  0.00  0.00    +0.000 C 
ATOM     18  C   UNL     1       4.405   1.987  20.327  0.00  0.00    +0.000 C 
ATOM     19  C   UNL     1       1.936   2.063  19.958  0.00  0.00    +0.000 C 
ATOM     20  C   UNL     1       3.494   1.649  18.036  0.00  0.00    +0.000 C 
ENDBRANCH   7  17
TORSDOF 2
ENDMDL
