MODEL 1
REMARK VINA RESULT:      -8.1      0.000      0.000
REMARK  Name = 
REMARK  1 active torsions:
REMARK  status: ('A' for Active; 'I' for Inactive)
REMARK    1  A    between atoms: C_2  and  C_3
REMARK                            x       y       z     vdW  Elec       q    Type
REMARK                         _______ _______ _______ _____ _____    ______ ____
ROOT
ATOM      1  O   UNL     1       4.985   2.999  19.341  0.00  0.00    +0.000 OA
ATOM      2  C   UNL     1       4.031   3.781  19.247  0.00  0.00    +0.000 C 
ATOM      3  N   UNL     1       4.091   4.916  18.427  0.00  0.00    +0.000 N 
ATOM      4  C   UNL     1       5.199   5.042  17.546  0.00  0.00    +0.000 A 
ATOM      5  C   UNL     1       5.442   4.037  16.609  0.00  0.00    +0.000 A 
ATOM      6  C   UNL     1       6.496   4.188  15.711  0.00  0.00    +0.000 A 
ATOM      7  C   UNL     1       7.310   5.309  15.796  0.00  0.00    +0.000 A 
ATOM      8  C   UNL     1       7.015   6.254  16.761  0.00  0.00    +0.000 A 
ATOM      9  N   UNL     1       5.966   6.161  17.603  0.00  0.00    +0.000 NA
ATOM     10  C   UNL     1       3.342   6.107  18.677  0.00  0.00    +0.000 A 
ATOM     11  C   UNL     1       3.170   7.055  17.659  0.00  0.00    +0.000 A 
ATOM     12  C   UNL     1       2.430   8.211  17.894  0.00  0.00    +0.000 A 
ATOM     13  C   UNL     1       1.854   8.399  19.138  0.00  0.00    +0.000 A 
ATOM     14  C   UNL     1       2.045   7.418  20.092  0.00  0.00    +0.000 A 
ATOM     15  N   UNL     1       2.769   6.293  19.890  0.00  0.00    +0.000 NA
ENDROOT
BRANCH   2  16
ATOM     16  C   UNL     1       2.791   3.463  19.942  0.00  0.00    +0.000 A 
ATOM     17  C   UNL     1       2.562   3.174  21.276  0.00  0.00    +0.000 A 
ATOM     18  C   UNL     1       1.184   2.887  21.405  0.00  0.00    +0.000 A 
ATOM     19  C   UNL     1       0.659   2.974  20.138  0.00  0.00    +0.000 A 
ATOM     20  O   UNL     1       1.625   3.298  19.240  0.00  0.00    +0.000 OA
ENDBRANCH   2  16
TORSDOF 1
ENDMDL
MODEL 2
REMARK VINA RESULT:      -8.0      2.238      5.571
REMARK  Name = 
REMARK  1 active torsions:
REMARK  status: ('A' for Active; 'I' for Inactive)
REMARK    1  A    between atoms: C_2  and  C_3
REMARK                            x       y       z     vdW  Elec       q    Type
REMARK                         _______ _______ _______ _____ _____    ______ ____
ROOT
ATOM      1  O   UNL     1       5.377   7.496  17.451  0.00  0.00    +0.000 OA
ATOM      2  C   UNL     1       4.836   6.418  17.177  0.00  0.00    +0.000 C 
ATOM      3  N   UNL     1       3.569   6.085  17.676  0.00  0.00    +0.000 N 
ATOM      4  C   UNL     1       2.827   7.101  18.339  0.00  0.00    +0.000 A 
ATOM      5  C   UNL     1       2.533   8.283  17.658  0.00  0.00    +0.000 A 
ATOM      6  C   UNL     1       1.760   9.255  18.290  0.00  0.00    +0.000 A 
ATOM      7  C   UNL     1       1.340   9.048  19.597  0.00  0.00    +0.000 A 
ATOM      8  C   UNL     1       1.685   7.858  20.210  0.00  0.00    +0.000 A 
ATOM      9  N   UNL     1       2.381   6.877  19.601  0.00  0.00    +0.000 NA
ATOM     10  C   UNL     1       3.139   4.741  17.897  0.00  0.00    +0.000 A 
ATOM     11  C   UNL     1       1.776   4.457  18.054  0.00  0.00    +0.000 A 
ATOM     12  C   UNL     1       1.351   3.145  18.258  0.00  0.00    +0.000 A 
ATOM     13  C   UNL     1       2.291   2.131  18.284  0.00  0.00    +0.000 A 
ATOM     14  C   UNL     1       3.617   2.476  18.103  0.00  0.00    +0.000 A 
ATOM     15  N   UNL     1       4.054   3.742  17.916  0.00  0.00    +0.000 NA
ENDROOT
BRANCH   2  16
ATOM     16  C   UNL     1       5.501   5.514  16.250  0.00  0.00    +0.000 A 
ATOM     17  C   UNL     1       5.133   5.106  14.979  0.00  0.00    +0.000 A 
ATOM     18  C   UNL     1       6.109   4.179  14.544  0.00  0.00    +0.000 A 
ATOM     19  C   UNL     1       6.991   4.041  15.590  0.00  0.00    +0.000 A 
ATOM     20  O   UNL     1       6.622   4.825  16.636  0.00  0.00    +0.000 OA
ENDBRANCH   2  16
TORSDOF 1
ENDMDL
MODEL 3
REMARK VINA RESULT:      -7.2      2.435      5.845
REMARK  Name = 
REMARK  1 active torsions:
REMARK  status: ('A' for Active; 'I' for Inactive)
REMARK    1  A    between atoms: C_2  and  C_3
REMARK                            x       y       z     vdW  Elec       q    Type
REMARK                         _______ _______ _______ _____ _____    ______ ____
ROOT
ATOM      1  O   UNL     1       5.307   5.235  19.779  0.00  0.00    +0.000 OA
ATOM      2  C   UNL     1       5.590   5.474  18.599  0.00  0.00    +0.000 C 
ATOM      3  N   UNL     1       4.911   4.855  17.540  0.00  0.00    +0.000 N 
ATOM      4  C   UNL     1       3.748   4.098  17.849  0.00  0.00    +0.000 A 
ATOM      5  C   UNL     1       2.686   4.719  18.507  0.00  0.00    +0.000 A 
ATOM      6  C   UNL     1       1.526   3.990  18.761  0.00  0.00    +0.000 A 
ATOM      7  C   UNL     1       1.469   2.651  18.397  0.00  0.00    +0.000 A 
ATOM      8  C   UNL     1       2.567   2.103  17.763  0.00  0.00    +0.000 A 
ATOM      9  N   UNL     1       3.678   2.802  17.452  0.00  0.00    +0.000 NA
ATOM     10  C   UNL     1       5.498   4.620  16.260  0.00  0.00    +0.000 A 
ATOM     11  C   UNL     1       4.683   4.330  15.156  0.00  0.00    +0.000 A 
ATOM     12  C   UNL     1       5.251   4.112  13.903  0.00  0.00    +0.000 A 
ATOM     13  C   UNL     1       6.624   4.205  13.761  0.00  0.00    +0.000 A 
ATOM     14  C   UNL     1       7.369   4.513  14.884  0.00  0.00    +0.000 A 
ATOM     15  N   UNL     1       6.841   4.717  16.113  0.00  0.00    +0.000 NA
ENDROOT
BRANCH   2  16
ATOM     16  C   UNL     1       6.598   6.484  18.310  0.00  0.00    +0.000 A 
ATOM     17  C   UNL     1       7.889   6.623  18.790  0.00  0.00    +0.000 A 
ATOM     18  C   UNL     1       8.413   7.810  18.227  0.00  0.00    +0.000 A 
ATOM     19  C   UNL     1       7.399   8.350  17.472  0.00  0.00    +0.000 A 
ATOM     20  O   UNL     1       6.288   7.571  17.533  0.00  0.00    +0.000 OA
ENDBRANCH   2  16
TORSDOF 1
ENDMDL
MODEL 4
REMARK VINA RESULT:      -7.0      1.540      4.539
REMARK  Name = 
REMARK  1 active torsions:
REMARK  status: ('A' for Active; 'I' for Inactive)
REMARK    1  A    between atoms: C_2  and  C_3
REMARK                            x       y       z     vdW  Elec       q    Type
REMARK                         _______ _______ _______ _____ _____    ______ ____
ROOT
ATOM      1  O   UNL     1       1.246   4.608  18.928  0.00  0.00    +0.000 OA
ATOM      2  C   UNL     1       2.464   4.550  18.713  0.00  0.00    +0.000 C 
ATOM      3  N   UNL     1       3.217   5.703  18.450  0.00  0.00    +0.000 N 
ATOM      4  C   UNL     1       2.590   6.965  18.637  0.00  0.00    +0.000 A 
ATOM      5  C   UNL     1       2.062   7.284  19.889  0.00  0.00    +0.000 A 
ATOM      6  C   UNL     1       1.496   8.542  20.085  0.00  0.00    +0.000 A 
ATOM      7  C   UNL     1       1.426   9.432  19.022  0.00  0.00    +0.000 A 
ATOM      8  C   UNL     1       1.957   9.037  17.808  0.00  0.00    +0.000 A 
ATOM      9  N   UNL     1       2.563   7.849  17.608  0.00  0.00    +0.000 NA
ATOM     10  C   UNL     1       4.411   5.700  17.666  0.00  0.00    +0.000 A 
ATOM     11  C   UNL     1       5.296   6.784  17.730  0.00  0.00    +0.000 A 
ATOM     12  C   UNL     1       6.468   6.779  16.976  0.00  0.00    +0.000 A 
ATOM     13  C   UNL     1       6.752   5.683  16.182  0.00  0.00    +0.000 A 
ATOM     14  C   UNL     1       5.848   4.638  16.179  0.00  0.00    +0.000 A 
ATOM     15  N   UNL     1       4.699   4.625  16.893  0.00  0.00    +0.000 NA
ENDROOT
BRANCH   2  16
ATOM     16  C   UNL     1       3.135   3.264  18.819  0.00  0.00    +0.000 A 
ATOM     17  C   UNL     1       2.939   2.090  18.111  0.00  0.00    +0.000 A 
ATOM     18  C   UNL     1       3.823   1.128  18.652  0.00  0.00    +0.000 A 
ATOM     19  C   UNL     1       4.476   1.755  19.687  0.00  0.00    +0.000 A 
ATOM     20  O   UNL     1       4.052   3.039  19.814  0.00  0.00    +0.000 OA
ENDBRANCH   2  16
TORSDOF 1
ENDMDL
MODEL 5
REMARK VINA RESULT:      -7.0      1.442      5.054
REMARK  Name = 
REMARK  1 active torsions:
REMARK  status: ('A' for Active; 'I' for Inactive)
REMARK    1  A    between atoms: C_2  and  C_3
REMARK                            x       y       z     vdW  Elec       q    Type
REMARK                         _______ _______ _______ _____ _____    ______ ____
ROOT
ATOM      1  O   UNL     1       5.070   3.340  18.606  0.00  0.00    +0.000 OA
ATOM      2  C   UNL     1       4.897   4.563  18.682  0.00  0.00    +0.000 C 
ATOM      3  N   UNL     1       3.733   5.106  19.242  0.00  0.00    +0.000 N 
ATOM      4  C   UNL     1       2.841   4.222  19.911  0.00  0.00    +0.000 A 
ATOM      5  C   UNL     1       3.312   3.462  20.982  0.00  0.00    +0.000 A 
ATOM      6  C   UNL     1       2.424   2.638  21.670  0.00  0.00    +0.000 A 
ATOM      7  C   UNL     1       1.105   2.553  21.246  0.00  0.00    +0.000 A 
ATOM      8  C   UNL     1       0.718   3.324  20.167  0.00  0.00    +0.000 A 
ATOM      9  N   UNL     1       1.542   4.175  19.522  0.00  0.00    +0.000 NA
ATOM     10  C   UNL     1       3.203   6.379  18.874  0.00  0.00    +0.000 A 
ATOM     11  C   UNL     1       2.264   7.015  19.697  0.00  0.00    +0.000 A 
ATOM     12  C   UNL     1       1.754   8.263  19.347  0.00  0.00    +0.000 A 
ATOM     13  C   UNL     1       2.201   8.872  18.188  0.00  0.00    +0.000 A 
ATOM     14  C   UNL     1       3.142   8.201  17.430  0.00  0.00    +0.000 A 
ATOM     15  N   UNL     1       3.643   6.984  17.744  0.00  0.00    +0.000 NA
ENDROOT
BRANCH   2  16
ATOM     16  C   UNL     1       5.967   5.451  18.251  0.00  0.00    +0.000 A 
ATOM     17  C   UNL     1       6.305   5.897  16.985  0.00  0.00    +0.000 A 
ATOM     18  C   UNL     1       7.462   6.698  17.125  0.00  0.00    +0.000 A 
ATOM     19  C   UNL     1       7.789   6.660  18.459  0.00  0.00    +0.000 A 
ATOM     20  O   UNL     1       6.907   5.890  19.148  0.00  0.00    +0.000 OA
ENDBRANCH   2  16
TORSDOF 1
ENDMDL
MODEL 6
REMARK VINA RESULT:      -6.7      1.315      5.027
REMARK  Name = 
REMARK  1 active torsions:
REMARK  status: ('A' for Active; 'I' for Inactive)
REMARK    1  A    between atoms: C_2  and  C_3
REMARK                            x       y       z     vdW  Elec       q    Type
REMARK                         _______ _______ _______ _____ _____    ______ ____
ROOT
ATOM      1  O   UNL     1       4.264   2.789  17.830  0.00  0.00    +0.000 OA
ATOM      2  C   UNL     1       4.289   4.021  17.944  0.00  0.00    +0.000 C 
ATOM      3  N   UNL     1       3.450   4.692  18.844  0.00  0.00    +0.000 N 
ATOM      4  C   UNL     1       2.710   3.910  19.773  0.00  0.00    +0.000 A 
ATOM      5  C   UNL     1       3.394   3.061  20.644  0.00  0.00    +0.000 A 
ATOM      6  C   UNL     1       2.672   2.337  21.591  0.00  0.00    +0.000 A 
ATOM      7  C   UNL     1       1.288   2.438  21.616  0.00  0.00    +0.000 A 
ATOM      8  C   UNL     1       0.682   3.288  20.710  0.00  0.00    +0.000 A 
ATOM      9  N   UNL     1       1.361   4.045  19.825  0.00  0.00    +0.000 NA
ATOM     10  C   UNL     1       3.005   6.035  18.651  0.00  0.00    +0.000 A 
ATOM     11  C   UNL     1       2.473   6.760  19.727  0.00  0.00    +0.000 A 
ATOM     12  C   UNL     1       2.049   8.075  19.546  0.00  0.00    +0.000 A 
ATOM     13  C   UNL     1       2.178   8.657  18.298  0.00  0.00    +0.000 A 
ATOM     14  C   UNL     1       2.728   7.895  17.284  0.00  0.00    +0.000 A 
ATOM     15  N   UNL     1       3.135   6.614  17.433  0.00  0.00    +0.000 NA
ENDROOT
BRANCH   2  16
ATOM     16  C   UNL     1       5.273   4.776  17.182  0.00  0.00    +0.000 A 
ATOM     17  C   UNL     1       5.480   4.852  15.814  0.00  0.00    +0.000 A 
ATOM     18  C   UNL     1       6.603   5.688  15.613  0.00  0.00    +0.000 A 
ATOM     19  C   UNL     1       7.043   6.038  16.867  0.00  0.00    +0.000 A 
ATOM     20  O   UNL     1       6.262   5.474  17.825  0.00  0.00    +0.000 OA
ENDBRANCH   2  16
TORSDOF 1
ENDMDL
MODEL 7
REMARK VINA RESULT:      -6.4      1.869      3.990
REMARK  Name = 
REMARK  1 active torsions:
REMARK  status: ('A' for Active; 'I' for Inactive)
REMARK    1  A    between atoms: C_2  and  C_3
REMARK                            x       y       z     vdW  Elec       q    Type
REMARK                         _______ _______ _______ _____ _____    ______ ____
ROOT
ATOM      1  O   UNL     1       3.377   7.824  17.170  0.00  0.00    +0.000 OA
ATOM      2  C   UNL     1       3.055   7.191  18.183  0.00  0.00    +0.000 C 
ATOM      3  N   UNL     1       3.577   5.917  18.450  0.00  0.00    +0.000 N 
ATOM      4  C   UNL     1       4.645   5.452  17.634  0.00  0.00    +0.000 A 
ATOM      5  C   UNL     1       5.820   6.201  17.557  0.00  0.00    +0.000 A 
ATOM      6  C   UNL     1       6.884   5.716  16.800  0.00  0.00    +0.000 A 
ATOM      7  C   UNL     1       6.737   4.526  16.101  0.00  0.00    +0.000 A 
ATOM      8  C   UNL     1       5.538   3.850  16.214  0.00  0.00    +0.000 A 
ATOM      9  N   UNL     1       4.514   4.266  16.987  0.00  0.00    +0.000 NA
ATOM     10  C   UNL     1       2.886   4.928  19.211  0.00  0.00    +0.000 A 
ATOM     11  C   UNL     1       3.583   3.831  19.736  0.00  0.00    +0.000 A 
ATOM     12  C   UNL     1       2.913   2.869  20.491  0.00  0.00    +0.000 A 
ATOM     13  C   UNL     1       1.560   3.024  20.728  0.00  0.00    +0.000 A 
ATOM     14  C   UNL     1       0.935   4.137  20.199  0.00  0.00    +0.000 A 
ATOM     15  N   UNL     1       1.561   5.077  19.454  0.00  0.00    +0.000 NA
ENDROOT
BRANCH   2  16
ATOM     16  C   UNL     1       2.177   7.823  19.156  0.00  0.00    +0.000 A 
ATOM     17  C   UNL     1       1.247   8.837  18.998  0.00  0.00    +0.000 A 
ATOM     18  C   UNL     1       0.710   9.108  20.277  0.00  0.00    +0.000 A 
ATOM     19  C   UNL     1       1.372   8.277  21.149  0.00  0.00    +0.000 A 
ATOM     20  O   UNL     1       2.279   7.512  20.488  0.00  0.00    +0.000 OA
ENDBRANCH   2  16
TORSDOF 1
ENDMDL
MODEL 8
REMARK VINA RESULT:      -6.4      1.973      3.833
REMARK  Name = 
REMARK  1 active torsions:
REMARK  status: ('A' for Active; 'I' for Inactive)
REMARK    1  A    between atoms: C_2  and  C_3
REMARK                            x       y       z     vdW  Elec       q    Type
REMARK                         _______ _______ _______ _____ _____    ______ ____
ROOT
ATOM      1  O   UNL     1       3.994   7.681  17.096  0.00  0.00    +0.000 OA
ATOM      2  C   UNL     1       3.534   6.780  17.808  0.00  0.00    +0.000 C 
ATOM      3  N   UNL     1       3.907   5.440  17.628  0.00  0.00    +0.000 N 
ATOM      4  C   UNL     1       4.984   5.162  16.742  0.00  0.00    +0.000 A 
ATOM      5  C   UNL     1       6.228   5.746  16.980  0.00  0.00    +0.000 A 
ATOM      6  C   UNL     1       7.296   5.430  16.143  0.00  0.00    +0.000 A 
ATOM      7  C   UNL     1       7.089   4.582  15.064  0.00  0.00    +0.000 A 
ATOM      8  C   UNL     1       5.823   4.056  14.884  0.00  0.00    +0.000 A 
ATOM      9  N   UNL     1       4.788   4.298  15.715  0.00  0.00    +0.000 NA
ATOM     10  C   UNL     1       3.064   4.338  17.965  0.00  0.00    +0.000 A 
ATOM     11  C   UNL     1       3.608   3.053  18.096  0.00  0.00    +0.000 A 
ATOM     12  C   UNL     1       2.791   1.976  18.437  0.00  0.00    +0.000 A 
ATOM     13  C   UNL     1       1.444   2.198  18.661  0.00  0.00    +0.000 A 
ATOM     14  C   UNL     1       0.975   3.492  18.534  0.00  0.00    +0.000 A 
ATOM     15  N   UNL     1       1.746   4.550  18.193  0.00  0.00    +0.000 NA
ENDROOT
BRANCH   2  16
ATOM     16  C   UNL     1       2.649   7.136  18.907  0.00  0.00    +0.000 A 
ATOM     17  C   UNL     1       1.800   8.220  19.058  0.00  0.00    +0.000 A 
ATOM     18  C   UNL     1       1.213   8.109  20.340  0.00  0.00    +0.000 A 
ATOM     19  C   UNL     1       1.768   6.990  20.914  0.00  0.00    +0.000 A 
ATOM     20  O   UNL     1       2.656   6.406  20.068  0.00  0.00    +0.000 OA
ENDBRANCH   2  16
TORSDOF 1
ENDMDL
MODEL 9
REMARK VINA RESULT:      -6.2      4.831      7.093
REMARK  Name = 
REMARK  1 active torsions:
REMARK  status: ('A' for Active; 'I' for Inactive)
REMARK    1  A    between atoms: C_2  and  C_3
REMARK                            x       y       z     vdW  Elec       q    Type
REMARK                         _______ _______ _______ _____ _____    ______ ____
ROOT
ATOM      1  O   UNL     1       1.811   9.985  22.158  0.00  0.00    +0.000 OA
ATOM      2  C   UNL     1       0.758  10.272  21.575  0.00  0.00    +0.000 C 
ATOM      3  N   UNL     1       0.448   9.741  20.315  0.00  0.00    +0.000 N 
ATOM      4  C   UNL     1       1.277   8.702  19.809  0.00  0.00    +0.000 A 
ATOM      5  C   UNL     1       1.430   7.531  20.551  0.00  0.00    +0.000 A 
ATOM      6  C   UNL     1       2.199   6.492  20.029  0.00  0.00    +0.000 A 
ATOM      7  C   UNL     1       2.835   6.663  18.807  0.00  0.00    +0.000 A 
ATOM      8  C   UNL     1       2.649   7.859  18.139  0.00  0.00    +0.000 A 
ATOM      9  N   UNL     1       1.862   8.855  18.594  0.00  0.00    +0.000 NA
ATOM     10  C   UNL     1      -0.383  10.406  19.364  0.00  0.00    +0.000 A 
ATOM     11  C   UNL     1      -0.936   9.692  18.292  0.00  0.00    +0.000 A 
ATOM     12  C   UNL     1      -1.758  10.334  17.369  0.00  0.00    +0.000 A 
ATOM     13  C   UNL     1      -2.034  11.679  17.537  0.00  0.00    +0.000 A 
ATOM     14  C   UNL     1      -1.474  12.322  18.625  0.00  0.00    +0.000 A 
ATOM     15  N   UNL     1      -0.664  11.721  19.527  0.00  0.00    +0.000 NA
ENDROOT
BRANCH   2  16
ATOM     16  C   UNL     1      -0.214  11.116  22.254  0.00  0.00    +0.000 A 
ATOM     17  C   UNL     1      -1.410  10.787  22.869  0.00  0.00    +0.000 A 
ATOM     18  C   UNL     1      -1.987  11.997  23.323  0.00  0.00    +0.000 A 
ATOM     19  C   UNL     1      -1.132  12.996  22.922  0.00  0.00    +0.000 A 
ATOM     20  O   UNL     1      -0.069  12.479  22.254  0.00  0.00    +0.000 OA
ENDBRANCH   2  16
TORSDOF 1
ENDMDL
