MODEL 1
REMARK VINA RESULT:      -8.7      0.000      0.000
REMARK  Name = 
REMARK  11 active torsions:
REMARK  status: ('A' for Active; 'I' for Inactive)
REMARK    1  A    between atoms: C_1  and  C_2
REMARK    2  A    between atoms: C_7  and  C_8
REMARK    3  A    between atoms: C_12  and  C_13
REMARK    4  A    between atoms: C_13  and  O_14
REMARK    5  A    between atoms: O_14  and  C_15
REMARK    6  A    between atoms: C_18  and  C_19
REMARK    7  A    between atoms: C_19  and  C_20
REMARK    8  A    between atoms: C_19  and  C_24
REMARK    9  A    between atoms: C_20  and  C_21
REMARK   10  A    between atoms: C_21  and  O_23
REMARK   11  A    between atoms: N_28  and  C_29
REMARK                            x       y       z     vdW  Elec       q    Type
REMARK                         _______ _______ _______ _____ _____    ______ ____
ROOT
ATOM      1  C   UNL     1       1.561   7.230  20.329  0.00  0.00    +0.000 A 
ATOM      2  C   UNL     1       2.310   7.534  19.194  0.00  0.00    +0.000 A 
ATOM      3  C   UNL     1       3.142   6.565  18.618  0.00  0.00    +0.000 A 
ATOM      4  C   UNL     1       3.235   5.278  19.171  0.00  0.00    +0.000 A 
ATOM      5  C   UNL     1       2.446   4.980  20.293  0.00  0.00    +0.000 A 
ATOM      6  C   UNL     1       1.630   5.949  20.871  0.00  0.00    +0.000 A 
ENDROOT
BRANCH   1   7
ATOM      7  O   UNL     1       0.720   8.069  20.999  0.00  0.00    +0.000 OA
BRANCH   7   8
ATOM      8  C   UNL     1       1.273   9.282  21.495  0.00  0.00    +0.000 C 
BRANCH   8  13
ATOM      9  C   UNL     1      -0.965  11.241  19.063  0.00  0.00    +0.000 A 
ATOM     10  C   UNL     1      -0.481  12.535  19.318  0.00  0.00    +0.000 A 
ATOM     11  C   UNL     1       0.611  12.767  20.160  0.00  0.00    +0.000 A 
ATOM     12  C   UNL     1       1.206  11.716  20.845  0.00  0.00    +0.000 A 
ATOM     13  C   UNL     1       0.707  10.419  20.688  0.00  0.00    +0.000 A 
ATOM     14  C   UNL     1      -0.354  10.198  19.786  0.00  0.00    +0.000 A 
BRANCH   9  21
ATOM     15  C   UNL     1      -3.867  12.277  19.437  0.00  0.00    +0.000 C 
ATOM     16  C   UNL     1      -3.412  11.436  18.272  0.00  0.00    +0.000 A 
ATOM     17  C   UNL     1      -4.397  11.117  17.309  0.00  0.00    +0.000 A 
ATOM     18  C   UNL     1      -4.084  10.398  16.163  0.00  0.00    +0.000 A 
ATOM     19  C   UNL     1      -2.784   9.962  15.966  0.00  0.00    +0.000 A 
ATOM     20  C   UNL     1      -1.806  10.232  16.928  0.00  0.00    +0.000 A 
ATOM     21  C   UNL     1      -2.080  10.971  18.105  0.00  0.00    +0.000 A 
ENDBRANCH   9  21
ENDBRANCH   8  13
ENDBRANCH   7   8
ENDBRANCH   1   7
BRANCH   4  22
ATOM     22  C   UNL     1       4.162   4.241  18.538  0.00  0.00    +0.000 C 
BRANCH  22  23
ATOM     23  C   UNL     1       5.609   4.685  18.572  0.00  0.00    +0.000 A 
ATOM     24  N   UNL     1       6.223   5.193  19.630  0.00  0.00    +0.000 NA
ATOM     25  C   UNL     1       7.457   5.592  19.183  0.00  0.00    +0.000 A 
ATOM     26  C   UNL     1       7.619   5.272  17.857  0.00  0.00    +0.000 A 
ATOM     27  N   UNL     1       6.450   4.672  17.484  0.00  0.00    +0.000 N 
ATOM     28  C   UNL     1       6.156   4.156  16.167  0.00  0.00    +0.000 C 
ENDBRANCH  22  23
BRANCH  22  29
ATOM     29  C   UNL     1       3.987   2.897  19.251  0.00  0.00    +0.000 C 
BRANCH  29  30
ATOM     30  C   UNL     1       3.419   1.862  18.318  0.00  0.00    +0.000 C 
ATOM     31  O   UNL     1       2.455   2.067  17.595  0.00  0.00    +0.000 OA
BRANCH  30  32
ATOM     32  O   UNL     1       4.081   0.685  18.331  0.00  0.00    +0.000 OA
ATOM     33  H   UNL     1       5.049   0.802  18.509  0.00  0.00    +0.000 HD
ENDBRANCH  30  32
ENDBRANCH  29  30
ENDBRANCH  22  29
ENDBRANCH   4  22
TORSDOF 9
ENDMDL
MODEL 2
REMARK VINA RESULT:      -8.6      1.918      3.297
REMARK  Name = 
REMARK  11 active torsions:
REMARK  status: ('A' for Active; 'I' for Inactive)
REMARK    1  A    between atoms: C_1  and  C_2
REMARK    2  A    between atoms: C_7  and  C_8
REMARK    3  A    between atoms: C_12  and  C_13
REMARK    4  A    between atoms: C_13  and  O_14
REMARK    5  A    between atoms: O_14  and  C_15
REMARK    6  A    between atoms: C_18  and  C_19
REMARK    7  A    between atoms: C_19  and  C_20
REMARK    8  A    between atoms: C_19  and  C_24
REMARK    9  A    between atoms: C_20  and  C_21
REMARK   10  A    between atoms: C_21  and  O_23
REMARK   11  A    between atoms: N_28  and  C_29
REMARK                            x       y       z     vdW  Elec       q    Type
REMARK                         _______ _______ _______ _____ _____    ______ ____
ROOT
ATOM      1  C   UNL     1       2.077   7.570  19.535  0.00  0.00    +0.000 A 
ATOM      2  C   UNL     1       2.749   7.552  18.315  0.00  0.00    +0.000 A 
ATOM      3  C   UNL     1       3.411   6.392  17.892  0.00  0.00    +0.000 A 
ATOM      4  C   UNL     1       3.409   5.235  18.687  0.00  0.00    +0.000 A 
ATOM      5  C   UNL     1       2.697   5.261  19.896  0.00  0.00    +0.000 A 
ATOM      6  C   UNL     1       2.051   6.420  20.319  0.00  0.00    +0.000 A 
ENDROOT
BRANCH   1   7
ATOM      7  O   UNL     1       1.399   8.623  20.077  0.00  0.00    +0.000 OA
BRANCH   7   8
ATOM      8  C   UNL     1       0.932   8.476  21.412  0.00  0.00    +0.000 C 
BRANCH   8  13
ATOM      9  C   UNL     1       0.021  12.208  21.484  0.00  0.00    +0.000 A 
ATOM     10  C   UNL     1      -0.975  12.169  22.473  0.00  0.00    +0.000 A 
ATOM     11  C   UNL     1      -1.271  11.001  23.184  0.00  0.00    +0.000 A 
ATOM     12  C   UNL     1      -0.636   9.807  22.868  0.00  0.00    +0.000 A 
ATOM     13  C   UNL     1       0.305   9.778  21.834  0.00  0.00    +0.000 A 
ATOM     14  C   UNL     1       0.635  10.979  21.174  0.00  0.00    +0.000 A 
BRANCH   9  21
ATOM     15  C   UNL     1      -0.882  12.915  18.600  0.00  0.00    +0.000 C 
ATOM     16  C   UNL     1      -0.001  13.794  19.450  0.00  0.00    +0.000 A 
ATOM     17  C   UNL     1       0.422  15.009  18.864  0.00  0.00    +0.000 A 
ATOM     18  C   UNL     1       1.188  15.927  19.571  0.00  0.00    +0.000 A 
ATOM     19  C   UNL     1       1.567  15.640  20.872  0.00  0.00    +0.000 A 
ATOM     20  C   UNL     1       1.191  14.425  21.454  0.00  0.00    +0.000 A 
ATOM     21  C   UNL     1       0.403  13.465  20.773  0.00  0.00    +0.000 A 
ENDBRANCH   9  21
ENDBRANCH   8  13
ENDBRANCH   7   8
ENDBRANCH   1   7
BRANCH   4  22
ATOM     22  C   UNL     1       4.153   3.985  18.216  0.00  0.00    +0.000 C 
BRANCH  22  23
ATOM     23  C   UNL     1       5.599   4.284  17.883  0.00  0.00    +0.000 A 
ATOM     24  N   UNL     1       6.545   4.549  18.772  0.00  0.00    +0.000 NA
ATOM     25  C   UNL     1       7.649   4.904  18.039  0.00  0.00    +0.000 A 
ATOM     26  C   UNL     1       7.394   4.798  16.694  0.00  0.00    +0.000 A 
ATOM     27  N   UNL     1       6.097   4.377  16.604  0.00  0.00    +0.000 N 
ATOM     28  C   UNL     1       5.384   4.119  15.375  0.00  0.00    +0.000 C 
ENDBRANCH  22  23
BRANCH  22  29
ATOM     29  C   UNL     1       4.054   2.898  19.289  0.00  0.00    +0.000 C 
BRANCH  29  30
ATOM     30  C   UNL     1       3.234   1.733  18.802  0.00  0.00    +0.000 C 
ATOM     31  O   UNL     1       2.012   1.711  18.841  0.00  0.00    +0.000 OA
BRANCH  30  32
ATOM     32  O   UNL     1       3.965   0.717  18.297  0.00  0.00    +0.000 OA
ATOM     33  H   UNL     1       4.887   0.997  18.065  0.00  0.00    +0.000 HD
ENDBRANCH  30  32
ENDBRANCH  29  30
ENDBRANCH  22  29
ENDBRANCH   4  22
TORSDOF 9
ENDMDL
MODEL 3
REMARK VINA RESULT:      -8.5      5.670      8.569
REMARK  Name = 
REMARK  11 active torsions:
REMARK  status: ('A' for Active; 'I' for Inactive)
REMARK    1  A    between atoms: C_1  and  C_2
REMARK    2  A    between atoms: C_7  and  C_8
REMARK    3  A    between atoms: C_12  and  C_13
REMARK    4  A    between atoms: C_13  and  O_14
REMARK    5  A    between atoms: O_14  and  C_15
REMARK    6  A    between atoms: C_18  and  C_19
REMARK    7  A    between atoms: C_19  and  C_20
REMARK    8  A    between atoms: C_19  and  C_24
REMARK    9  A    between atoms: C_20  and  C_21
REMARK   10  A    between atoms: C_21  and  O_23
REMARK   11  A    between atoms: N_28  and  C_29
REMARK                            x       y       z     vdW  Elec       q    Type
REMARK                         _______ _______ _______ _____ _____    ______ ____
ROOT
ATOM      1  C   UNL     1       7.546   7.190  17.972  0.00  0.00    +0.000 A 
ATOM      2  C   UNL     1       7.727   6.244  18.980  0.00  0.00    +0.000 A 
ATOM      3  C   UNL     1       6.766   5.247  19.191  0.00  0.00    +0.000 A 
ATOM      4  C   UNL     1       5.610   5.185  18.397  0.00  0.00    +0.000 A 
ATOM      5  C   UNL     1       5.462   6.125  17.365  0.00  0.00    +0.000 A 
ATOM      6  C   UNL     1       6.413   7.122  17.165  0.00  0.00    +0.000 A 
ENDROOT
BRANCH   1   7
ATOM      7  O   UNL     1       8.387   8.217  17.658  0.00  0.00    +0.000 OA
BRANCH   7   8
ATOM      8  C   UNL     1       7.821   9.521  17.587  0.00  0.00    +0.000 C 
BRANCH   8  13
ATOM      9  C   UNL     1       9.719  12.716  18.565  0.00  0.00    +0.000 A 
ATOM     10  C   UNL     1      10.247  12.286  19.793  0.00  0.00    +0.000 A 
ATOM     11  C   UNL     1      10.099  10.972  20.247  0.00  0.00    +0.000 A 
ATOM     12  C   UNL     1       9.341  10.060  19.524  0.00  0.00    +0.000 A 
ATOM     13  C   UNL     1       8.726  10.464  18.334  0.00  0.00    +0.000 A 
ATOM     14  C   UNL     1       8.941  11.774  17.862  0.00  0.00    +0.000 A 
BRANCH   9  21
ATOM     15  C   UNL     1       7.785  15.093  19.051  0.00  0.00    +0.000 C 
ATOM     16  C   UNL     1       9.054  15.187  18.242  0.00  0.00    +0.000 A 
ATOM     17  C   UNL     1       9.348  16.452  17.685  0.00  0.00    +0.000 A 
ATOM     18  C   UNL     1      10.518  16.674  16.970  0.00  0.00    +0.000 A 
ATOM     19  C   UNL     1      11.408  15.630  16.777  0.00  0.00    +0.000 A 
ATOM     20  C   UNL     1      11.113  14.361  17.287  0.00  0.00    +0.000 A 
ATOM     21  C   UNL     1       9.937  14.094  18.030  0.00  0.00    +0.000 A 
ENDBRANCH   9  21
ENDBRANCH   8  13
ENDBRANCH   7   8
ENDBRANCH   1   7
BRANCH   4  22
ATOM     22  C   UNL     1       4.564   4.100  18.656  0.00  0.00    +0.000 C 
BRANCH  22  23
ATOM     23  C   UNL     1       3.414   4.616  19.493  0.00  0.00    +0.000 A 
ATOM     24  N   UNL     1       2.842   5.802  19.350  0.00  0.00    +0.000 NA
ATOM     25  C   UNL     1       1.962   5.916  20.396  0.00  0.00    +0.000 A 
ATOM     26  C   UNL     1       1.954   4.767  21.149  0.00  0.00    +0.000 A 
ATOM     27  N   UNL     1       2.860   3.936  20.553  0.00  0.00    +0.000 N 
ATOM     28  C   UNL     1       3.189   2.601  20.994  0.00  0.00    +0.000 C 
ENDBRANCH  22  23
BRANCH  22  29
ATOM     29  C   UNL     1       4.061   3.547  17.320  0.00  0.00    +0.000 C 
BRANCH  29  30
ATOM     30  C   UNL     1       3.331   2.245  17.516  0.00  0.00    +0.000 C 
ATOM     31  O   UNL     1       2.134   2.110  17.309  0.00  0.00    +0.000 OA
BRANCH  30  32
ATOM     32  O   UNL     1       4.119   1.227  17.921  0.00  0.00    +0.000 OA
ATOM     33  H   UNL     1       4.969   1.545  18.317  0.00  0.00    +0.000 HD
ENDBRANCH  30  32
ENDBRANCH  29  30
ENDBRANCH  22  29
ENDBRANCH   4  22
TORSDOF 9
ENDMDL
MODEL 4
REMARK VINA RESULT:      -8.4      0.863      1.552
REMARK  Name = 
REMARK  11 active torsions:
REMARK  status: ('A' for Active; 'I' for Inactive)
REMARK    1  A    between atoms: C_1  and  C_2
REMARK    2  A    between atoms: C_7  and  C_8
REMARK    3  A    between atoms: C_12  and  C_13
REMARK    4  A    between atoms: C_13  and  O_14
REMARK    5  A    between atoms: O_14  and  C_15
REMARK    6  A    between atoms: C_18  and  C_19
REMARK    7  A    between atoms: C_19  and  C_20
REMARK    8  A    between atoms: C_19  and  C_24
REMARK    9  A    between atoms: C_20  and  C_21
REMARK   10  A    between atoms: C_21  and  O_23
REMARK   11  A    between atoms: N_28  and  C_29
REMARK                            x       y       z     vdW  Elec       q    Type
REMARK                         _______ _______ _______ _____ _____    ______ ____
ROOT
ATOM      1  C   UNL     1       1.449   7.800  20.098  0.00  0.00    +0.000 A 
ATOM      2  C   UNL     1       2.089   8.036  18.883  0.00  0.00    +0.000 A 
ATOM      3  C   UNL     1       2.881   7.040  18.299  0.00  0.00    +0.000 A 
ATOM      4  C   UNL     1       3.045   5.794  18.924  0.00  0.00    +0.000 A 
ATOM      5  C   UNL     1       2.364   5.562  20.129  0.00  0.00    +0.000 A 
ATOM      6  C   UNL     1       1.587   6.558  20.714  0.00  0.00    +0.000 A 
ENDROOT
BRANCH   1   7
ATOM      7  O   UNL     1       0.657   8.672  20.786  0.00  0.00    +0.000 OA
BRANCH   7   8
ATOM      8  C   UNL     1       1.198   9.959  21.063  0.00  0.00    +0.000 C 
BRANCH   8  13
ATOM      9  C   UNL     1      -1.398  11.780  18.893  0.00  0.00    +0.000 A 
ATOM     10  C   UNL     1      -0.600  12.847  18.451  0.00  0.00    +0.000 A 
ATOM     11  C   UNL     1       0.765  12.925  18.743  0.00  0.00    +0.000 A 
ATOM     12  C   UNL     1       1.363  11.977  19.562  0.00  0.00    +0.000 A 
ATOM     13  C   UNL     1       0.591  10.939  20.095  0.00  0.00    +0.000 A 
ATOM     14  C   UNL     1      -0.769  10.843  19.736  0.00  0.00    +0.000 A 
BRANCH   9  21
ATOM     15  C   UNL     1      -2.412  10.206  16.417  0.00  0.00    +0.000 C 
ATOM     16  C   UNL     1      -3.312  10.929  17.388  0.00  0.00    +0.000 A 
ATOM     17  C   UNL     1      -4.698  10.864  17.120  0.00  0.00    +0.000 A 
ATOM     18  C   UNL     1      -5.629  11.442  17.976  0.00  0.00    +0.000 A 
ATOM     19  C   UNL     1      -5.191  12.115  19.104  0.00  0.00    +0.000 A 
ATOM     20  C   UNL     1      -3.821  12.223  19.362  0.00  0.00    +0.000 A 
ATOM     21  C   UNL     1      -2.839  11.642  18.522  0.00  0.00    +0.000 A 
ENDBRANCH   9  21
ENDBRANCH   8  13
ENDBRANCH   7   8
ENDBRANCH   1   7
BRANCH   4  22
ATOM     22  C   UNL     1       3.928   4.727  18.279  0.00  0.00    +0.000 C 
BRANCH  22  23
ATOM     23  C   UNL     1       5.387   5.133  18.273  0.00  0.00    +0.000 A 
ATOM     24  N   UNL     1       6.207   5.033  19.308  0.00  0.00    +0.000 NA
ATOM     25  C   UNL     1       7.370   5.645  18.916  0.00  0.00    +0.000 A 
ATOM     26  C   UNL     1       7.280   6.069  17.613  0.00  0.00    +0.000 A 
ATOM     27  N   UNL     1       6.026   5.715  17.203  0.00  0.00    +0.000 N 
ATOM     28  C   UNL     1       5.475   5.954  15.889  0.00  0.00    +0.000 C 
ENDBRANCH  22  23
BRANCH  22  29
ATOM     29  C   UNL     1       3.736   3.395  19.008  0.00  0.00    +0.000 C 
BRANCH  29  30
ATOM     30  C   UNL     1       3.155   2.355  18.088  0.00  0.00    +0.000 C 
ATOM     31  O   UNL     1       2.213   2.572  17.340  0.00  0.00    +0.000 OA
BRANCH  30  32
ATOM     32  O   UNL     1       3.780   1.159  18.143  0.00  0.00    +0.000 OA
ATOM     33  H   UNL     1       3.759   0.685  17.273  0.00  0.00    +0.000 HD
ENDBRANCH  30  32
ENDBRANCH  29  30
ENDBRANCH  22  29
ENDBRANCH   4  22
TORSDOF 9
ENDMDL
MODEL 5
REMARK VINA RESULT:      -8.3      2.483      4.359
REMARK  Name = 
REMARK  11 active torsions:
REMARK  status: ('A' for Active; 'I' for Inactive)
REMARK    1  A    between atoms: C_1  and  C_2
REMARK    2  A    between atoms: C_7  and  C_8
REMARK    3  A    between atoms: C_12  and  C_13
REMARK    4  A    between atoms: C_13  and  O_14
REMARK    5  A    between atoms: O_14  and  C_15
REMARK    6  A    between atoms: C_18  and  C_19
REMARK    7  A    between atoms: C_19  and  C_20
REMARK    8  A    between atoms: C_19  and  C_24
REMARK    9  A    between atoms: C_20  and  C_21
REMARK   10  A    between atoms: C_21  and  O_23
REMARK   11  A    between atoms: N_28  and  C_29
REMARK                            x       y       z     vdW  Elec       q    Type
REMARK                         _______ _______ _______ _____ _____    ______ ____
ROOT
ATOM      1  C   UNL     1       1.150   9.398  18.771  0.00  0.00    +0.000 A 
ATOM      2  C   UNL     1       1.149   8.883  20.065  0.00  0.00    +0.000 A 
ATOM      3  C   UNL     1       1.858   7.710  20.357  0.00  0.00    +0.000 A 
ATOM      4  C   UNL     1       2.576   7.037  19.357  0.00  0.00    +0.000 A 
ATOM      5  C   UNL     1       2.595   7.591  18.067  0.00  0.00    +0.000 A 
ATOM      6  C   UNL     1       1.879   8.750  17.777  0.00  0.00    +0.000 A 
ENDROOT
BRANCH   1   7
ATOM      7  O   UNL     1       0.504  10.519  18.339  0.00  0.00    +0.000 OA
BRANCH   7   8
ATOM      8  C   UNL     1      -0.492  11.064  19.196  0.00  0.00    +0.000 C 
BRANCH   8  13
ATOM      9  C   UNL     1      -4.215  11.582  18.399  0.00  0.00    +0.000 A 
ATOM     10  C   UNL     1      -4.219  11.121  17.073  0.00  0.00    +0.000 A 
ATOM     11  C   UNL     1      -3.088  10.549  16.482  0.00  0.00    +0.000 A 
ATOM     12  C   UNL     1      -1.885  10.498  17.173  0.00  0.00    +0.000 A 
ATOM     13  C   UNL     1      -1.809  11.021  18.468  0.00  0.00    +0.000 A 
ATOM     14  C   UNL     1      -2.977  11.534  19.068  0.00  0.00    +0.000 A 
BRANCH   9  21
ATOM     15  C   UNL     1      -6.723   9.881  19.068  0.00  0.00    +0.000 C 
ATOM     16  C   UNL     1      -6.592  11.351  19.375  0.00  0.00    +0.000 A 
ATOM     17  C   UNL     1      -7.701  11.959  20.005  0.00  0.00    +0.000 A 
ATOM     18  C   UNL     1      -7.674  13.294  20.388  0.00  0.00    +0.000 A 
ATOM     19  C   UNL     1      -6.546  14.055  20.129  0.00  0.00    +0.000 A 
ATOM     20  C   UNL     1      -5.456  13.480  19.469  0.00  0.00    +0.000 A 
ATOM     21  C   UNL     1      -5.437  12.121  19.070  0.00  0.00    +0.000 A 
ENDBRANCH   9  21
ENDBRANCH   8  13
ENDBRANCH   7   8
ENDBRANCH   1   7
BRANCH   4  22
ATOM     22  C   UNL     1       3.328   5.749  19.692  0.00  0.00    +0.000 C 
BRANCH  22  23
ATOM     23  C   UNL     1       2.382   4.626  20.060  0.00  0.00    +0.000 A 
ATOM     24  N   UNL     1       2.229   4.130  21.279  0.00  0.00    +0.000 NA
ATOM     25  C   UNL     1       1.402   3.046  21.134  0.00  0.00    +0.000 A 
ATOM     26  C   UNL     1       0.999   2.914  19.827  0.00  0.00    +0.000 A 
ATOM     27  N   UNL     1       1.605   3.939  19.157  0.00  0.00    +0.000 N 
ATOM     28  C   UNL     1       1.471   4.211  17.745  0.00  0.00    +0.000 C 
ENDBRANCH  22  23
BRANCH  22  29
ATOM     29  C   UNL     1       4.212   5.351  18.507  0.00  0.00    +0.000 C 
BRANCH  29  30
ATOM     30  C   UNL     1       5.502   4.735  18.980  0.00  0.00    +0.000 C 
ATOM     31  O   UNL     1       6.240   5.269  19.796  0.00  0.00    +0.000 OA
BRANCH  30  32
ATOM     32  O   UNL     1       5.766   3.526  18.441  0.00  0.00    +0.000 OA
ATOM     33  H   UNL     1       5.165   2.820  18.791  0.00  0.00    +0.000 HD
ENDBRANCH  30  32
ENDBRANCH  29  30
ENDBRANCH  22  29
ENDBRANCH   4  22
TORSDOF 9
ENDMDL
MODEL 6
REMARK VINA RESULT:      -8.3      1.840      3.038
REMARK  Name = 
REMARK  11 active torsions:
REMARK  status: ('A' for Active; 'I' for Inactive)
REMARK    1  A    between atoms: C_1  and  C_2
REMARK    2  A    between atoms: C_7  and  C_8
REMARK    3  A    between atoms: C_12  and  C_13
REMARK    4  A    between atoms: C_13  and  O_14
REMARK    5  A    between atoms: O_14  and  C_15
REMARK    6  A    between atoms: C_18  and  C_19
REMARK    7  A    between atoms: C_19  and  C_20
REMARK    8  A    between atoms: C_19  and  C_24
REMARK    9  A    between atoms: C_20  and  C_21
REMARK   10  A    between atoms: C_21  and  O_23
REMARK   11  A    between atoms: N_28  and  C_29
REMARK                            x       y       z     vdW  Elec       q    Type
REMARK                         _______ _______ _______ _____ _____    ______ ____
ROOT
ATOM      1  C   UNL     1       1.782   8.348  19.244  0.00  0.00    +0.000 A 
ATOM      2  C   UNL     1       2.433   8.106  18.036  0.00  0.00    +0.000 A 
ATOM      3  C   UNL     1       3.123   6.903  17.837  0.00  0.00    +0.000 A 
ATOM      4  C   UNL     1       3.172   5.928  18.845  0.00  0.00    +0.000 A 
ATOM      5  C   UNL     1       2.481   6.175  20.042  0.00  0.00    +0.000 A 
ATOM      6  C   UNL     1       1.806   7.376  20.241  0.00  0.00    +0.000 A 
ENDROOT
BRANCH   1   7
ATOM      7  O   UNL     1       1.081   9.468  19.582  0.00  0.00    +0.000 OA
BRANCH   7   8
ATOM      8  C   UNL     1       0.209  10.010  18.598  0.00  0.00    +0.000 C 
BRANCH   8  13
ATOM      9  C   UNL     1      -1.730  12.637  20.623  0.00  0.00    +0.000 A 
ATOM     10  C   UNL     1      -1.082  13.792  20.156  0.00  0.00    +0.000 A 
ATOM     11  C   UNL     1      -0.128  13.747  19.134  0.00  0.00    +0.000 A 
ATOM     12  C   UNL     1       0.273  12.529  18.601  0.00  0.00    +0.000 A 
ATOM     13  C   UNL     1      -0.284  11.344  19.092  0.00  0.00    +0.000 A 
ATOM     14  C   UNL     1      -1.289  11.416  20.077  0.00  0.00    +0.000 A 
BRANCH   9  21
ATOM     15  C   UNL     1      -4.754  12.878  19.972  0.00  0.00    +0.000 C 
ATOM     16  C   UNL     1      -4.194  12.795  21.369  0.00  0.00    +0.000 A 
ATOM     17  C   UNL     1      -5.135  12.834  22.423  0.00  0.00    +0.000 A 
ATOM     18  C   UNL     1      -4.742  12.707  23.749  0.00  0.00    +0.000 A 
ATOM     19  C   UNL     1      -3.398  12.562  24.051  0.00  0.00    +0.000 A 
ATOM     20  C   UNL     1      -2.450  12.563  23.023  0.00  0.00    +0.000 A 
ATOM     21  C   UNL     1      -2.807  12.679  21.658  0.00  0.00    +0.000 A 
ENDBRANCH   9  21
ENDBRANCH   8  13
ENDBRANCH   7   8
ENDBRANCH   1   7
BRANCH   4  22
ATOM     22  C   UNL     1       3.946   4.630  18.614  0.00  0.00    +0.000 C 
BRANCH  22  23
ATOM     23  C   UNL     1       5.440   4.868  18.566  0.00  0.00    +0.000 A 
ATOM     24  N   UNL     1       6.179   5.271  19.589  0.00  0.00    +0.000 NA
ATOM     25  C   UNL     1       7.429   5.501  19.072  0.00  0.00    +0.000 A 
ATOM     26  C   UNL     1       7.468   5.180  17.737  0.00  0.00    +0.000 A 
ATOM     27  N   UNL     1       6.208   4.753  17.430  0.00  0.00    +0.000 N 
ATOM     28  C   UNL     1       5.770   4.301  16.130  0.00  0.00    +0.000 C 
ENDBRANCH  22  23
BRANCH  22  29
ATOM     29  C   UNL     1       3.589   3.621  19.709  0.00  0.00    +0.000 C 
BRANCH  29  30
ATOM     30  C   UNL     1       4.036   2.234  19.331  0.00  0.00    +0.000 C 
ATOM     31  O   UNL     1       3.536   1.595  18.416  0.00  0.00    +0.000 OA
BRANCH  30  32
ATOM     32  O   UNL     1       5.056   1.760  20.077  0.00  0.00    +0.000 OA
ATOM     33  H   UNL     1       4.768   1.037  20.691  0.00  0.00    +0.000 HD
ENDBRANCH  30  32
ENDBRANCH  29  30
ENDBRANCH  22  29
ENDBRANCH   4  22
TORSDOF 9
ENDMDL
MODEL 7
REMARK VINA RESULT:      -8.2      2.146      3.304
REMARK  Name = 
REMARK  11 active torsions:
REMARK  status: ('A' for Active; 'I' for Inactive)
REMARK    1  A    between atoms: C_1  and  C_2
REMARK    2  A    between atoms: C_7  and  C_8
REMARK    3  A    between atoms: C_12  and  C_13
REMARK    4  A    between atoms: C_13  and  O_14
REMARK    5  A    between atoms: O_14  and  C_15
REMARK    6  A    between atoms: C_18  and  C_19
REMARK    7  A    between atoms: C_19  and  C_20
REMARK    8  A    between atoms: C_19  and  C_24
REMARK    9  A    between atoms: C_20  and  C_21
REMARK   10  A    between atoms: C_21  and  O_23
REMARK   11  A    between atoms: N_28  and  C_29
REMARK                            x       y       z     vdW  Elec       q    Type
REMARK                         _______ _______ _______ _____ _____    ______ ____
ROOT
ATOM      1  C   UNL     1       1.987   8.544  19.051  0.00  0.00    +0.000 A 
ATOM      2  C   UNL     1       2.684   8.256  17.879  0.00  0.00    +0.000 A 
ATOM      3  C   UNL     1       3.314   7.015  17.721  0.00  0.00    +0.000 A 
ATOM      4  C   UNL     1       3.255   6.046  18.735  0.00  0.00    +0.000 A 
ATOM      5  C   UNL     1       2.519   6.341  19.893  0.00  0.00    +0.000 A 
ATOM      6  C   UNL     1       1.904   7.580  20.052  0.00  0.00    +0.000 A 
ENDROOT
BRANCH   1   7
ATOM      7  O   UNL     1       1.336   9.706  19.347  0.00  0.00    +0.000 OA
BRANCH   7   8
ATOM      8  C   UNL     1       0.089   9.596  20.023  0.00  0.00    +0.000 C 
BRANCH   8  13
ATOM      9  C   UNL     1      -1.777  12.361  21.929  0.00  0.00    +0.000 A 
ATOM     10  C   UNL     1      -0.748  13.315  21.989  0.00  0.00    +0.000 A 
ATOM     11  C   UNL     1       0.476  13.130  21.338  0.00  0.00    +0.000 A 
ATOM     12  C   UNL     1       0.744  11.941  20.672  0.00  0.00    +0.000 A 
ATOM     13  C   UNL     1      -0.219  10.927  20.654  0.00  0.00    +0.000 A 
ATOM     14  C   UNL     1      -1.469  11.159  21.262  0.00  0.00    +0.000 A 
BRANCH   9  21
ATOM     15  C   UNL     1      -4.317  13.178  20.344  0.00  0.00    +0.000 C 
ATOM     16  C   UNL     1      -4.284  12.960  21.835  0.00  0.00    +0.000 A 
ATOM     17  C   UNL     1      -5.505  13.149  22.522  0.00  0.00    +0.000 A 
ATOM     18  C   UNL     1      -5.611  12.920  23.888  0.00  0.00    +0.000 A 
ATOM     19  C   UNL     1      -4.493  12.519  24.601  0.00  0.00    +0.000 A 
ATOM     20  C   UNL     1      -3.268  12.367  23.945  0.00  0.00    +0.000 A 
ATOM     21  C   UNL     1      -3.117  12.580  22.552  0.00  0.00    +0.000 A 
ENDBRANCH   9  21
ENDBRANCH   8  13
ENDBRANCH   7   8
ENDBRANCH   1   7
BRANCH   4  22
ATOM     22  C   UNL     1       3.965   4.704  18.551  0.00  0.00    +0.000 C 
BRANCH  22  23
ATOM     23  C   UNL     1       5.470   4.861  18.545  0.00  0.00    +0.000 A 
ATOM     24  N   UNL     1       6.188   5.341  19.550  0.00  0.00    +0.000 NA
ATOM     25  C   UNL     1       7.468   5.449  19.069  0.00  0.00    +0.000 A 
ATOM     26  C   UNL     1       7.544   4.975  17.782  0.00  0.00    +0.000 A 
ATOM     27  N   UNL     1       6.276   4.578  17.466  0.00  0.00    +0.000 N 
ATOM     28  C   UNL     1       5.867   4.004  16.206  0.00  0.00    +0.000 C 
ENDBRANCH  22  23
BRANCH  22  29
ATOM     29  C   UNL     1       3.521   3.737  19.651  0.00  0.00    +0.000 C 
BRANCH  29  30
ATOM     30  C   UNL     1       4.242   2.421  19.535  0.00  0.00    +0.000 C 
ATOM     31  O   UNL     1       4.973   1.977  20.409  0.00  0.00    +0.000 OA
BRANCH  30  32
ATOM     32  O   UNL     1       3.996   1.756  18.386  0.00  0.00    +0.000 OA
ATOM     33  H   UNL     1       3.593   0.866  18.547  0.00  0.00    +0.000 HD
ENDBRANCH  30  32
ENDBRANCH  29  30
ENDBRANCH  22  29
ENDBRANCH   4  22
TORSDOF 9
ENDMDL
MODEL 8
REMARK VINA RESULT:      -8.2      2.775      4.504
REMARK  Name = 
REMARK  11 active torsions:
REMARK  status: ('A' for Active; 'I' for Inactive)
REMARK    1  A    between atoms: C_1  and  C_2
REMARK    2  A    between atoms: C_7  and  C_8
REMARK    3  A    between atoms: C_12  and  C_13
REMARK    4  A    between atoms: C_13  and  O_14
REMARK    5  A    between atoms: O_14  and  C_15
REMARK    6  A    between atoms: C_18  and  C_19
REMARK    7  A    between atoms: C_19  and  C_20
REMARK    8  A    between atoms: C_19  and  C_24
REMARK    9  A    between atoms: C_20  and  C_21
REMARK   10  A    between atoms: C_21  and  O_23
REMARK   11  A    between atoms: N_28  and  C_29
REMARK                            x       y       z     vdW  Elec       q    Type
REMARK                         _______ _______ _______ _____ _____    ______ ____
ROOT
ATOM      1  C   UNL     1       1.205   9.445  18.726  0.00  0.00    +0.000 A 
ATOM      2  C   UNL     1       1.100   8.909  20.008  0.00  0.00    +0.000 A 
ATOM      3  C   UNL     1       1.789   7.735  20.339  0.00  0.00    +0.000 A 
ATOM      4  C   UNL     1       2.592   7.082  19.390  0.00  0.00    +0.000 A 
ATOM      5  C   UNL     1       2.713   7.656  18.115  0.00  0.00    +0.000 A 
ATOM      6  C   UNL     1       2.017   8.816  17.785  0.00  0.00    +0.000 A 
ENDROOT
BRANCH   1   7
ATOM      7  O   UNL     1       0.590  10.570  18.261  0.00  0.00    +0.000 OA
BRANCH   7   8
ATOM      8  C   UNL     1      -0.824  10.642  18.402  0.00  0.00    +0.000 C 
BRANCH   8  13
ATOM      9  C   UNL     1      -2.441  12.983  20.984  0.00  0.00    +0.000 A 
ATOM     10  C   UNL     1      -1.655  14.126  20.762  0.00  0.00    +0.000 A 
ATOM     11  C   UNL     1      -0.709  14.189  19.734  0.00  0.00    +0.000 A 
ATOM     12  C   UNL     1      -0.455  13.075  18.944  0.00  0.00    +0.000 A 
ATOM     13  C   UNL     1      -1.154  11.887  19.181  0.00  0.00    +0.000 A 
ATOM     14  C   UNL     1      -2.148  11.864  20.179  0.00  0.00    +0.000 A 
BRANCH   9  21
ATOM     15  C   UNL     1      -5.457  13.421  20.400  0.00  0.00    +0.000 C 
ATOM     16  C   UNL     1      -4.893  13.135  21.769  0.00  0.00    +0.000 A 
ATOM     17  C   UNL     1      -5.826  13.070  22.828  0.00  0.00    +0.000 A 
ATOM     18  C   UNL     1      -5.432  12.755  24.123  0.00  0.00    +0.000 A 
ATOM     19  C   UNL     1      -4.093  12.521  24.390  0.00  0.00    +0.000 A 
ATOM     20  C   UNL     1      -3.151  12.621  23.361  0.00  0.00    +0.000 A 
ATOM     21  C   UNL     1      -3.510  12.929  22.026  0.00  0.00    +0.000 A 
ENDBRANCH   9  21
ENDBRANCH   8  13
ENDBRANCH   7   8
ENDBRANCH   1   7
BRANCH   4  22
ATOM     22  C   UNL     1       3.321   5.792  19.765  0.00  0.00    +0.000 C 
BRANCH  22  23
ATOM     23  C   UNL     1       2.353   4.671  20.083  0.00  0.00    +0.000 A 
ATOM     24  N   UNL     1       2.160   4.153  21.287  0.00  0.00    +0.000 NA
ATOM     25  C   UNL     1       1.327   3.080  21.096  0.00  0.00    +0.000 A 
ATOM     26  C   UNL     1       0.962   2.978  19.776  0.00  0.00    +0.000 A 
ATOM     27  N   UNL     1       1.597   4.010  19.144  0.00  0.00    +0.000 N 
ATOM     28  C   UNL     1       1.507   4.311  17.734  0.00  0.00    +0.000 C 
ENDBRANCH  22  23
BRANCH  22  29
ATOM     29  C   UNL     1       4.266   5.390  18.629  0.00  0.00    +0.000 C 
BRANCH  29  30
ATOM     30  C   UNL     1       5.479   4.677  19.164  0.00  0.00    +0.000 C 
ATOM     31  O   UNL     1       6.420   5.255  19.688  0.00  0.00    +0.000 OA
BRANCH  30  32
ATOM     32  O   UNL     1       5.431   3.334  19.035  0.00  0.00    +0.000 OA
ATOM     33  H   UNL     1       5.673   2.868  19.875  0.00  0.00    +0.000 HD
ENDBRANCH  30  32
ENDBRANCH  29  30
ENDBRANCH  22  29
ENDBRANCH   4  22
TORSDOF 9
ENDMDL
MODEL 9
REMARK VINA RESULT:      -8.2      1.894      3.066
REMARK  Name = 
REMARK  11 active torsions:
REMARK  status: ('A' for Active; 'I' for Inactive)
REMARK    1  A    between atoms: C_1  and  C_2
REMARK    2  A    between atoms: C_7  and  C_8
REMARK    3  A    between atoms: C_12  and  C_13
REMARK    4  A    between atoms: C_13  and  O_14
REMARK    5  A    between atoms: O_14  and  C_15
REMARK    6  A    between atoms: C_18  and  C_19
REMARK    7  A    between atoms: C_19  and  C_20
REMARK    8  A    between atoms: C_19  and  C_24
REMARK    9  A    between atoms: C_20  and  C_21
REMARK   10  A    between atoms: C_21  and  O_23
REMARK   11  A    between atoms: N_28  and  C_29
REMARK                            x       y       z     vdW  Elec       q    Type
REMARK                         _______ _______ _______ _____ _____    ______ ____
ROOT
ATOM      1  C   UNL     1       2.088   8.419  18.987  0.00  0.00    +0.000 A 
ATOM      2  C   UNL     1       1.980   7.421  19.953  0.00  0.00    +0.000 A 
ATOM      3  C   UNL     1       2.588   6.176  19.751  0.00  0.00    +0.000 A 
ATOM      4  C   UNL     1       3.312   5.912  18.577  0.00  0.00    +0.000 A 
ATOM      5  C   UNL     1       3.439   6.941  17.631  0.00  0.00    +0.000 A 
ATOM      6  C   UNL     1       2.823   8.174  17.830  0.00  0.00    +0.000 A 
ENDROOT
BRANCH   1   7
ATOM      7  O   UNL     1       1.546   9.669  19.042  0.00  0.00    +0.000 OA
BRANCH   7   8
ATOM      8  C   UNL     1       0.283   9.858  18.415  0.00  0.00    +0.000 C 
BRANCH   8  13
ATOM      9  C   UNL     1      -1.785  12.599  20.139  0.00  0.00    +0.000 A 
ATOM     10  C   UNL     1      -1.086  13.724  19.671  0.00  0.00    +0.000 A 
ATOM     11  C   UNL     1      -0.051  13.620  18.735  0.00  0.00    +0.000 A 
ATOM     12  C   UNL     1       0.378  12.373  18.299  0.00  0.00    +0.000 A 
ATOM     13  C   UNL     1      -0.232  11.219  18.800  0.00  0.00    +0.000 A 
ATOM     14  C   UNL     1      -1.315  11.348  19.693  0.00  0.00    +0.000 A 
BRANCH   9  21
ATOM     15  C   UNL     1      -1.556  12.314  23.221  0.00  0.00    +0.000 C 
ATOM     16  C   UNL     1      -2.849  12.567  22.488  0.00  0.00    +0.000 A 
ATOM     17  C   UNL     1      -4.010  12.673  23.287  0.00  0.00    +0.000 A 
ATOM     18  C   UNL     1      -5.249  12.964  22.730  0.00  0.00    +0.000 A 
ATOM     19  C   UNL     1      -5.358  13.130  21.359  0.00  0.00    +0.000 A 
ATOM     20  C   UNL     1      -4.227  12.987  20.550  0.00  0.00    +0.000 A 
ATOM     21  C   UNL     1      -2.944  12.702  21.076  0.00  0.00    +0.000 A 
ENDBRANCH   9  21
ENDBRANCH   8  13
ENDBRANCH   7   8
ENDBRANCH   1   7
BRANCH   4  22
ATOM     22  C   UNL     1       3.952   4.540  18.367  0.00  0.00    +0.000 C 
BRANCH  22  23
ATOM     23  C   UNL     1       5.458   4.637  18.241  0.00  0.00    +0.000 A 
ATOM     24  N   UNL     1       6.276   5.044  19.200  0.00  0.00    +0.000 NA
ATOM     25  C   UNL     1       7.516   5.121  18.617  0.00  0.00    +0.000 A 
ATOM     26  C   UNL     1       7.465   4.700  17.311  0.00  0.00    +0.000 A 
ATOM     27  N   UNL     1       6.158   4.368  17.088  0.00  0.00    +0.000 N 
ATOM     28  C   UNL     1       5.622   3.864  15.846  0.00  0.00    +0.000 C 
ENDBRANCH  22  23
BRANCH  22  29
ATOM     29  C   UNL     1       3.560   3.612  19.520  0.00  0.00    +0.000 C 
BRANCH  29  30
ATOM     30  C   UNL     1       4.006   2.200  19.250  0.00  0.00    +0.000 C 
ATOM     31  O   UNL     1       3.494   1.485  18.400  0.00  0.00    +0.000 OA
BRANCH  30  32
ATOM     32  O   UNL     1       5.040   1.792  20.016  0.00  0.00    +0.000 OA
ATOM     33  H   UNL     1       5.301   2.473  20.687  0.00  0.00    +0.000 HD
ENDBRANCH  30  32
ENDBRANCH  29  30
ENDBRANCH  22  29
ENDBRANCH   4  22
TORSDOF 9
ENDMDL
