MODEL 1
REMARK VINA RESULT:      -8.2      0.000      0.000
REMARK  Name = 
REMARK  5 active torsions:
REMARK  status: ('A' for Active; 'I' for Inactive)
REMARK    1  A    between atoms: C_2  and  C_24
REMARK    2  A    between atoms: N_3  and  C_4
REMARK    3  A    between atoms: C_8  and  C_9
REMARK    4  A    between atoms: N_11  and  C_12
REMARK    5  A    between atoms: C_17  and  O_18
REMARK                            x       y       z     vdW  Elec       q    Type
REMARK                         _______ _______ _______ _____ _____    ______ ____
ROOT
ATOM      1  C   UNL     1       3.882   4.132  17.091  0.00  0.00    +0.000 A 
ATOM      2  S   UNL     1       3.654   2.494  17.431  0.00  0.00    +0.000 S 
ATOM      3  C   UNL     1       3.152   2.842  19.036  0.00  0.00    +0.000 A 
ATOM      4  C   UNL     1       2.972   4.207  19.236  0.00  0.00    +0.000 A 
ATOM      5  C   UNL     1       3.393   4.976  18.066  0.00  0.00    +0.000 A 
ATOM      6  C   UNL     1       2.414   4.821  20.502  0.00  0.00    +0.000 C 
ATOM      7  C   UNL     1       1.287   3.997  21.125  0.00  0.00    +0.000 C 
ATOM      8  C   UNL     1       1.761   2.815  21.971  0.00  0.00    +0.000 C 
ATOM      9  C   UNL     1       2.995   2.075  21.457  0.00  0.00    +0.000 C 
ATOM     10  C   UNL     1       2.920   1.691  19.980  0.00  0.00    +0.000 C 
ENDROOT
BRANCH   1  13
ATOM     11  O   UNL     1       6.652   4.103  16.820  0.00  0.00    +0.000 OA
ATOM     12  C   UNL     1       5.918   4.345  15.867  0.00  0.00    +0.000 C 
ATOM     13  N   UNL     1       4.530   4.385  15.901  0.00  0.00    +0.000 N 
ATOM     14  H   UNL     1       4.073   4.142  15.028  0.00  0.00    +0.000 HD
BRANCH  12  15
ATOM     15  C   UNL     1       6.506   4.563  14.509  0.00  0.00    +0.000 A 
ATOM     16  C   UNL     1       6.044   3.817  13.430  0.00  0.00    +0.000 A 
ATOM     17  C   UNL     1       6.664   3.989  12.196  0.00  0.00    +0.000 A 
ATOM     18  C   UNL     1       7.721   4.888  12.087  0.00  0.00    +0.000 A 
ATOM     19  C   UNL     1       8.102   5.602  13.214  0.00  0.00    +0.000 A 
ATOM     20  N   UNL     1       7.510   5.480  14.423  0.00  0.00    +0.000 NA
ENDBRANCH  12  15
ENDBRANCH   1  13
BRANCH   5  21
ATOM     21  C   UNL     1       3.324   6.443  17.938  0.00  0.00    +0.000 C 
ATOM     22  O   UNL     1       4.099   7.041  17.197  0.00  0.00    +0.000 OA
ATOM     23  N   UNL     1       2.399   7.049  18.775  0.00  0.00    +0.000 N 
ATOM     24  H   UNL     1       1.918   6.474  19.458  0.00  0.00    +0.000 HD
BRANCH  23  25
ATOM     25  C   UNL     1       2.026   8.413  18.787  0.00  0.00    +0.000 A 
ATOM     26  C   UNL     1       2.261   9.279  17.722  0.00  0.00    +0.000 A 
ATOM     27  C   UNL     1       1.825  10.606  17.772  0.00  0.00    +0.000 A 
ATOM     28  C   UNL     1       1.155  11.082  18.896  0.00  0.00    +0.000 A 
ATOM     29  C   UNL     1       0.917  10.232  19.976  0.00  0.00    +0.000 A 
ATOM     30  C   UNL     1       1.342   8.901  19.911  0.00  0.00    +0.000 A 
BRANCH  30  31
ATOM     31  O   UNL     1       1.095   8.053  20.960  0.00  0.00    +0.000 OA
ATOM     32  H   UNL     1       0.134   8.022  21.105  0.00  0.00    +0.000 HD
ENDBRANCH  30  31
ENDBRANCH  23  25
ENDBRANCH   5  21
TORSDOF 5
ENDMDL
MODEL 2
REMARK VINA RESULT:      -7.6      5.973     10.065
REMARK  Name = 
REMARK  5 active torsions:
REMARK  status: ('A' for Active; 'I' for Inactive)
REMARK    1  A    between atoms: C_2  and  C_24
REMARK    2  A    between atoms: N_3  and  C_4
REMARK    3  A    between atoms: C_8  and  C_9
REMARK    4  A    between atoms: N_11  and  C_12
REMARK    5  A    between atoms: C_17  and  O_18
REMARK                            x       y       z     vdW  Elec       q    Type
REMARK                         _______ _______ _______ _____ _____    ______ ____
ROOT
ATOM      1  C   UNL     1      -0.494  12.265  22.047  0.00  0.00    +0.000 A 
ATOM      2  S   UNL     1      -1.993  11.886  22.725  0.00  0.00    +0.000 S 
ATOM      3  C   UNL     1      -2.116  13.435  23.454  0.00  0.00    +0.000 A 
ATOM      4  C   UNL     1      -1.114  14.294  23.013  0.00  0.00    +0.000 A 
ATOM      5  C   UNL     1      -0.155  13.598  22.158  0.00  0.00    +0.000 A 
ATOM      6  C   UNL     1      -1.025  15.762  23.373  0.00  0.00    +0.000 C 
ATOM      7  C   UNL     1      -2.388  16.452  23.429  0.00  0.00    +0.000 C 
ATOM      8  C   UNL     1      -3.153  16.234  24.735  0.00  0.00    +0.000 C 
ATOM      9  C   UNL     1      -3.020  14.849  25.367  0.00  0.00    +0.000 C 
ATOM     10  C   UNL     1      -3.264  13.696  24.394  0.00  0.00    +0.000 C 
ENDROOT
BRANCH   1  13
ATOM     11  O   UNL     1      -0.496  11.702  19.321  0.00  0.00    +0.000 OA
ATOM     12  C   UNL     1       0.113  10.997  20.120  0.00  0.00    +0.000 C 
ATOM     13  N   UNL     1       0.173  11.193  21.494  0.00  0.00    +0.000 N 
ATOM     14  H   UNL     1       1.021  10.856  21.938  0.00  0.00    +0.000 HD
BRANCH  12  15
ATOM     15  C   UNL     1       0.933   9.848  19.626  0.00  0.00    +0.000 A 
ATOM     16  C   UNL     1       1.336   9.810  18.295  0.00  0.00    +0.000 A 
ATOM     17  C   UNL     1       2.032   8.691  17.849  0.00  0.00    +0.000 A 
ATOM     18  C   UNL     1       2.292   7.654  18.739  0.00  0.00    +0.000 A 
ATOM     19  C   UNL     1       1.867   7.787  20.053  0.00  0.00    +0.000 A 
ATOM     20  N   UNL     1       1.210   8.867  20.530  0.00  0.00    +0.000 NA
ENDBRANCH  12  15
ENDBRANCH   1  13
BRANCH   5  21
ATOM     21  C   UNL     1       1.019  14.214  21.512  0.00  0.00    +0.000 C 
ATOM     22  O   UNL     1       1.996  14.542  22.180  0.00  0.00    +0.000 OA
ATOM     23  N   UNL     1       0.866  14.456  20.156  0.00  0.00    +0.000 N 
ATOM     24  H   UNL     1      -0.042  14.285  19.735  0.00  0.00    +0.000 HD
BRANCH  23  25
ATOM     25  C   UNL     1       1.854  14.918  19.256  0.00  0.00    +0.000 A 
ATOM     26  C   UNL     1       2.927  14.137  18.832  0.00  0.00    +0.000 A 
ATOM     27  C   UNL     1       3.845  14.632  17.901  0.00  0.00    +0.000 A 
ATOM     28  C   UNL     1       3.703  15.921  17.393  0.00  0.00    +0.000 A 
ATOM     29  C   UNL     1       2.640  16.721  17.812  0.00  0.00    +0.000 A 
ATOM     30  C   UNL     1       1.716  16.212  18.730  0.00  0.00    +0.000 A 
BRANCH  30  31
ATOM     31  O   UNL     1       0.657  16.984  19.133  0.00  0.00    +0.000 OA
ATOM     32  H   UNL     1      -0.109  16.401  19.271  0.00  0.00    +0.000 HD
ENDBRANCH  30  31
ENDBRANCH  23  25
ENDBRANCH   5  21
TORSDOF 5
ENDMDL
MODEL 3
REMARK VINA RESULT:      -7.6      4.552      9.174
REMARK  Name = 
REMARK  5 active torsions:
REMARK  status: ('A' for Active; 'I' for Inactive)
REMARK    1  A    between atoms: C_2  and  C_24
REMARK    2  A    between atoms: N_3  and  C_4
REMARK    3  A    between atoms: C_8  and  C_9
REMARK    4  A    between atoms: N_11  and  C_12
REMARK    5  A    between atoms: C_17  and  O_18
REMARK                            x       y       z     vdW  Elec       q    Type
REMARK                         _______ _______ _______ _____ _____    ______ ____
ROOT
ATOM      1  C   UNL     1       0.529  12.030  19.906  0.00  0.00    +0.000 A 
ATOM      2  S   UNL     1      -0.913  12.710  20.459  0.00  0.00    +0.000 S 
ATOM      3  C   UNL     1      -1.824  11.890  19.257  0.00  0.00    +0.000 A 
ATOM      4  C   UNL     1      -1.053  10.954  18.575  0.00  0.00    +0.000 A 
ATOM      5  C   UNL     1       0.350  11.027  18.976  0.00  0.00    +0.000 A 
ATOM      6  C   UNL     1      -1.595   9.985  17.546  0.00  0.00    +0.000 C 
ATOM      7  C   UNL     1      -2.978   9.438  17.903  0.00  0.00    +0.000 C 
ATOM      8  C   UNL     1      -4.136  10.371  17.554  0.00  0.00    +0.000 C 
ATOM      9  C   UNL     1      -3.878  11.864  17.755  0.00  0.00    +0.000 C 
ATOM     10  C   UNL     1      -3.289  12.215  19.121  0.00  0.00    +0.000 C 
ENDROOT
BRANCH   1  13
ATOM     11  O   UNL     1       1.999  14.047  18.676  0.00  0.00    +0.000 OA
ATOM     12  C   UNL     1       2.332  13.585  19.762  0.00  0.00    +0.000 C 
ATOM     13  N   UNL     1       1.669  12.579  20.454  0.00  0.00    +0.000 N 
ATOM     14  H   UNL     1       1.762  12.620  21.464  0.00  0.00    +0.000 HD
BRANCH  12  15
ATOM     15  C   UNL     1       3.511  14.154  20.486  0.00  0.00    +0.000 A 
ATOM     16  C   UNL     1       4.392  14.995  19.814  0.00  0.00    +0.000 A 
ATOM     17  C   UNL     1       5.520  15.446  20.492  0.00  0.00    +0.000 A 
ATOM     18  C   UNL     1       5.730  15.037  21.805  0.00  0.00    +0.000 A 
ATOM     19  C   UNL     1       4.788  14.211  22.401  0.00  0.00    +0.000 A 
ATOM     20  N   UNL     1       3.670  13.771  21.783  0.00  0.00    +0.000 NA
ENDBRANCH  12  15
ENDBRANCH   1  13
BRANCH   5  21
ATOM     21  C   UNL     1       1.432  10.169  18.459  0.00  0.00    +0.000 C 
ATOM     22  O   UNL     1       2.249  10.613  17.656  0.00  0.00    +0.000 OA
ATOM     23  N   UNL     1       1.371   8.851  18.884  0.00  0.00    +0.000 N 
ATOM     24  H   UNL     1       0.565   8.555  19.425  0.00  0.00    +0.000 HD
BRANCH  23  25
ATOM     25  C   UNL     1       2.330   7.837  18.655  0.00  0.00    +0.000 A 
ATOM     26  C   UNL     1       3.144   7.795  17.526  0.00  0.00    +0.000 A 
ATOM     27  C   UNL     1       4.109   6.795  17.379  0.00  0.00    +0.000 A 
ATOM     28  C   UNL     1       4.261   5.818  18.360  0.00  0.00    +0.000 A 
ATOM     29  C   UNL     1       3.450   5.837  19.494  0.00  0.00    +0.000 A 
ATOM     30  C   UNL     1       2.498   6.852  19.641  0.00  0.00    +0.000 A 
BRANCH  30  31
ATOM     31  O   UNL     1       1.709   6.891  20.762  0.00  0.00    +0.000 OA
ATOM     32  H   UNL     1       2.202   7.347  21.465  0.00  0.00    +0.000 HD
ENDBRANCH  30  31
ENDBRANCH  23  25
ENDBRANCH   5  21
TORSDOF 5
ENDMDL
MODEL 4
REMARK VINA RESULT:      -7.6      5.314      9.740
REMARK  Name = 
REMARK  5 active torsions:
REMARK  status: ('A' for Active; 'I' for Inactive)
REMARK    1  A    between atoms: C_2  and  C_24
REMARK    2  A    between atoms: N_3  and  C_4
REMARK    3  A    between atoms: C_8  and  C_9
REMARK    4  A    between atoms: N_11  and  C_12
REMARK    5  A    between atoms: C_17  and  O_18
REMARK                            x       y       z     vdW  Elec       q    Type
REMARK                         _______ _______ _______ _____ _____    ______ ____
ROOT
ATOM      1  C   UNL     1       0.067   9.884  21.127  0.00  0.00    +0.000 A 
ATOM      2  S   UNL     1       1.207   8.948  21.947  0.00  0.00    +0.000 S 
ATOM      3  C   UNL     1       1.667   8.144  20.501  0.00  0.00    +0.000 A 
ATOM      4  C   UNL     1       1.094   8.733  19.379  0.00  0.00    +0.000 A 
ATOM      5  C   UNL     1       0.150   9.784  19.753  0.00  0.00    +0.000 A 
ATOM      6  C   UNL     1       1.404   8.335  17.952  0.00  0.00    +0.000 C 
ATOM      7  C   UNL     1       2.877   7.990  17.729  0.00  0.00    +0.000 C 
ATOM      8  C   UNL     1       3.263   6.572  18.149  0.00  0.00    +0.000 C 
ATOM      9  C   UNL     1       2.580   6.036  19.407  0.00  0.00    +0.000 C 
ATOM     10  C   UNL     1       2.632   6.991  20.598  0.00  0.00    +0.000 C 
ENDROOT
BRANCH   1  13
ATOM     11  O   UNL     1       0.482  12.551  21.806  0.00  0.00    +0.000 OA
ATOM     12  C   UNL     1      -0.490  11.928  22.222  0.00  0.00    +0.000 C 
ATOM     13  N   UNL     1      -0.783  10.599  21.943  0.00  0.00    +0.000 N 
ATOM     14  H   UNL     1      -1.771  10.367  21.953  0.00  0.00    +0.000 HD
BRANCH  12  15
ATOM     15  C   UNL     1      -1.519  12.622  23.057  0.00  0.00    +0.000 A 
ATOM     16  C   UNL     1      -2.748  12.012  23.285  0.00  0.00    +0.000 A 
ATOM     17  C   UNL     1      -3.711  12.716  24.001  0.00  0.00    +0.000 A 
ATOM     18  C   UNL     1      -3.417  13.998  24.454  0.00  0.00    +0.000 A 
ATOM     19  C   UNL     1      -2.157  14.519  24.196  0.00  0.00    +0.000 A 
ATOM     20  N   UNL     1      -1.189  13.858  23.524  0.00  0.00    +0.000 NA
ENDBRANCH  12  15
ENDBRANCH   1  13
BRANCH   5  21
ATOM     21  C   UNL     1      -0.619  10.616  18.811  0.00  0.00    +0.000 C 
ATOM     22  O   UNL     1      -0.252  11.757  18.543  0.00  0.00    +0.000 OA
ATOM     23  N   UNL     1      -1.793  10.034  18.358  0.00  0.00    +0.000 N 
ATOM     24  H   UNL     1      -2.079   9.148  18.762  0.00  0.00    +0.000 HD
BRANCH  23  25
ATOM     25  C   UNL     1      -2.665  10.535  17.364  0.00  0.00    +0.000 A 
ATOM     26  C   UNL     1      -2.537  10.230  16.011  0.00  0.00    +0.000 A 
ATOM     27  C   UNL     1      -3.459  10.715  15.079  0.00  0.00    +0.000 A 
ATOM     28  C   UNL     1      -4.516  11.522  15.494  0.00  0.00    +0.000 A 
ATOM     29  C   UNL     1      -4.657  11.845  16.843  0.00  0.00    +0.000 A 
ATOM     30  C   UNL     1      -3.739  11.342  17.771  0.00  0.00    +0.000 A 
BRANCH  30  31
ATOM     31  O   UNL     1      -3.881  11.638  19.102  0.00  0.00    +0.000 OA
ATOM     32  H   UNL     1      -4.149  12.570  19.178  0.00  0.00    +0.000 HD
ENDBRANCH  30  31
ENDBRANCH  23  25
ENDBRANCH   5  21
TORSDOF 5
ENDMDL
MODEL 5
REMARK VINA RESULT:      -7.6      5.948     10.025
REMARK  Name = 
REMARK  5 active torsions:
REMARK  status: ('A' for Active; 'I' for Inactive)
REMARK    1  A    between atoms: C_2  and  C_24
REMARK    2  A    between atoms: N_3  and  C_4
REMARK    3  A    between atoms: C_8  and  C_9
REMARK    4  A    between atoms: N_11  and  C_12
REMARK    5  A    between atoms: C_17  and  O_18
REMARK                            x       y       z     vdW  Elec       q    Type
REMARK                         _______ _______ _______ _____ _____    ______ ____
ROOT
ATOM      1  C   UNL     1      -0.543  12.276  22.084  0.00  0.00    +0.000 A 
ATOM      2  S   UNL     1      -2.005  11.871  22.823  0.00  0.00    +0.000 S 
ATOM      3  C   UNL     1      -2.143  13.431  23.529  0.00  0.00    +0.000 A 
ATOM      4  C   UNL     1      -1.181  14.306  23.036  0.00  0.00    +0.000 A 
ATOM      5  C   UNL     1      -0.235  13.619  22.159  0.00  0.00    +0.000 A 
ATOM      6  C   UNL     1      -1.118  15.782  23.366  0.00  0.00    +0.000 C 
ATOM      7  C   UNL     1      -2.496  16.438  23.460  0.00  0.00    +0.000 C 
ATOM      8  C   UNL     1      -3.207  16.226  24.796  0.00  0.00    +0.000 C 
ATOM      9  C   UNL     1      -3.015  14.856  25.447  0.00  0.00    +0.000 C 
ATOM     10  C   UNL     1      -3.263  13.680  24.505  0.00  0.00    +0.000 C 
ENDROOT
BRANCH   1  13
ATOM     11  O   UNL     1      -0.573  11.703  19.361  0.00  0.00    +0.000 OA
ATOM     12  C   UNL     1       0.057  11.010  20.154  0.00  0.00    +0.000 C 
ATOM     13  N   UNL     1       0.132  11.211  21.526  0.00  0.00    +0.000 N 
ATOM     14  H   UNL     1       0.991  10.888  21.960  0.00  0.00    +0.000 HD
BRANCH  12  15
ATOM     15  C   UNL     1       0.886   9.870  19.654  0.00  0.00    +0.000 A 
ATOM     16  C   UNL     1       1.272   9.833  18.318  0.00  0.00    +0.000 A 
ATOM     17  C   UNL     1       1.978   8.722  17.866  0.00  0.00    +0.000 A 
ATOM     18  C   UNL     1       2.264   7.692  18.757  0.00  0.00    +0.000 A 
ATOM     19  C   UNL     1       1.855   7.824  20.077  0.00  0.00    +0.000 A 
ATOM     20  N   UNL     1       1.189   8.896  20.557  0.00  0.00    +0.000 NA
ENDBRANCH  12  15
ENDBRANCH   1  13
BRANCH   5  21
ATOM     21  C   UNL     1       0.898  14.253  21.460  0.00  0.00    +0.000 C 
ATOM     22  O   UNL     1       1.950  14.477  22.054  0.00  0.00    +0.000 OA
ATOM     23  N   UNL     1       0.626  14.634  20.156  0.00  0.00    +0.000 N 
ATOM     24  H   UNL     1      -0.325  14.539  19.814  0.00  0.00    +0.000 HD
BRANCH  23  25
ATOM     25  C   UNL     1       1.543  15.146  19.209  0.00  0.00    +0.000 A 
ATOM     26  C   UNL     1       1.496  16.454  18.730  0.00  0.00    +0.000 A 
ATOM     27  C   UNL     1       2.460  16.919  17.831  0.00  0.00    +0.000 A 
ATOM     28  C   UNL     1       3.477  16.074  17.394  0.00  0.00    +0.000 A 
ATOM     29  C   UNL     1       3.537  14.760  17.856  0.00  0.00    +0.000 A 
ATOM     30  C   UNL     1       2.578  14.307  18.768  0.00  0.00    +0.000 A 
BRANCH  30  31
ATOM     31  O   UNL     1       2.639  13.022  19.243  0.00  0.00    +0.000 OA
ATOM     32  H   UNL     1       2.914  12.442  18.512  0.00  0.00    +0.000 HD
ENDBRANCH  30  31
ENDBRANCH  23  25
ENDBRANCH   5  21
TORSDOF 5
ENDMDL
MODEL 6
REMARK VINA RESULT:      -7.3      5.183      9.685
REMARK  Name = 
REMARK  5 active torsions:
REMARK  status: ('A' for Active; 'I' for Inactive)
REMARK    1  A    between atoms: C_2  and  C_24
REMARK    2  A    between atoms: N_3  and  C_4
REMARK    3  A    between atoms: C_8  and  C_9
REMARK    4  A    between atoms: N_11  and  C_12
REMARK    5  A    between atoms: C_17  and  O_18
REMARK                            x       y       z     vdW  Elec       q    Type
REMARK                         _______ _______ _______ _____ _____    ______ ____
ROOT
ATOM      1  C   UNL     1       0.211   9.963  20.914  0.00  0.00    +0.000 A 
ATOM      2  S   UNL     1       0.740   8.489  21.543  0.00  0.00    +0.000 S 
ATOM      3  C   UNL     1       1.471   8.053  20.052  0.00  0.00    +0.000 A 
ATOM      4  C   UNL     1       1.479   9.114  19.152  0.00  0.00    +0.000 A 
ATOM      5  C   UNL     1       0.740  10.261  19.675  0.00  0.00    +0.000 A 
ATOM      6  C   UNL     1       2.162   9.085  17.801  0.00  0.00    +0.000 C 
ATOM      7  C   UNL     1       3.495   8.336  17.816  0.00  0.00    +0.000 C 
ATOM      8  C   UNL     1       3.367   6.816  17.722  0.00  0.00    +0.000 C 
ATOM      9  C   UNL     1       2.183   6.196  18.465  0.00  0.00    +0.000 C 
ATOM     10  C   UNL     1       2.042   6.666  19.911  0.00  0.00    +0.000 C 
ENDROOT
BRANCH   1  13
ATOM     11  O   UNL     1       0.723  12.493  21.953  0.00  0.00    +0.000 OA
ATOM     12  C   UNL     1      -0.329  11.906  22.187  0.00  0.00    +0.000 C 
ATOM     13  N   UNL     1      -0.676  10.645  21.719  0.00  0.00    +0.000 N 
ATOM     14  H   UNL     1      -1.672  10.492  21.599  0.00  0.00    +0.000 HD
BRANCH  12  15
ATOM     15  C   UNL     1      -1.396  12.579  22.990  0.00  0.00    +0.000 A 
ATOM     16  C   UNL     1      -2.607  11.930  23.208  0.00  0.00    +0.000 A 
ATOM     17  C   UNL     1      -3.607  12.614  23.893  0.00  0.00    +0.000 A 
ATOM     18  C   UNL     1      -3.366  13.914  24.325  0.00  0.00    +0.000 A 
ATOM     19  C   UNL     1      -2.121  14.475  24.079  0.00  0.00    +0.000 A 
ATOM     20  N   UNL     1      -1.118  13.835  23.438  0.00  0.00    +0.000 NA
ENDBRANCH  12  15
ENDBRANCH   1  13
BRANCH   5  21
ATOM     21  C   UNL     1       0.565  11.551  18.984  0.00  0.00    +0.000 C 
ATOM     22  O   UNL     1      -0.362  11.714  18.194  0.00  0.00    +0.000 OA
ATOM     23  N   UNL     1       1.563  12.479  19.239  0.00  0.00    +0.000 N 
ATOM     24  H   UNL     1       2.364  12.186  19.789  0.00  0.00    +0.000 HD
BRANCH  23  25
ATOM     25  C   UNL     1       1.598  13.829  18.822  0.00  0.00    +0.000 A 
ATOM     26  C   UNL     1       0.601  14.751  19.130  0.00  0.00    +0.000 A 
ATOM     27  C   UNL     1       0.716  16.086  18.732  0.00  0.00    +0.000 A 
ATOM     28  C   UNL     1       1.829  16.509  18.010  0.00  0.00    +0.000 A 
ATOM     29  C   UNL     1       2.834  15.599  17.684  0.00  0.00    +0.000 A 
ATOM     30  C   UNL     1       2.720  14.269  18.101  0.00  0.00    +0.000 A 
BRANCH  30  31
ATOM     31  O   UNL     1       3.713  13.371  17.802  0.00  0.00    +0.000 OA
ATOM     32  H   UNL     1       3.772  12.732  18.531  0.00  0.00    +0.000 HD
ENDBRANCH  30  31
ENDBRANCH  23  25
ENDBRANCH   5  21
TORSDOF 5
ENDMDL
MODEL 7
REMARK VINA RESULT:      -7.3      7.004     11.286
REMARK  Name = 
REMARK  5 active torsions:
REMARK  status: ('A' for Active; 'I' for Inactive)
REMARK    1  A    between atoms: C_2  and  C_24
REMARK    2  A    between atoms: N_3  and  C_4
REMARK    3  A    between atoms: C_8  and  C_9
REMARK    4  A    between atoms: N_11  and  C_12
REMARK    5  A    between atoms: C_17  and  O_18
REMARK                            x       y       z     vdW  Elec       q    Type
REMARK                         _______ _______ _______ _____ _____    ______ ____
ROOT
ATOM      1  C   UNL     1      -1.804  14.889  20.639  0.00  0.00    +0.000 A 
ATOM      2  S   UNL     1      -3.133  15.841  21.061  0.00  0.00    +0.000 S 
ATOM      3  C   UNL     1      -3.825  14.564  21.976  0.00  0.00    +0.000 A 
ATOM      4  C   UNL     1      -2.946  13.495  22.117  0.00  0.00    +0.000 A 
ATOM      5  C   UNL     1      -1.731  13.697  21.331  0.00  0.00    +0.000 A 
ATOM      6  C   UNL     1      -3.214  12.274  22.972  0.00  0.00    +0.000 C 
ATOM      7  C   UNL     1      -3.933  12.601  24.281  0.00  0.00    +0.000 C 
ATOM      8  C   UNL     1      -5.446  12.770  24.145  0.00  0.00    +0.000 C 
ATOM      9  C   UNL     1      -5.933  13.450  22.865  0.00  0.00    +0.000 C 
ATOM     10  C   UNL     1      -5.209  14.755  22.542  0.00  0.00    +0.000 C 
ENDROOT
BRANCH   1  13
ATOM     11  O   UNL     1       0.402  16.491  21.198  0.00  0.00    +0.000 OA
ATOM     12  C   UNL     1       0.085  16.219  20.044  0.00  0.00    +0.000 C 
ATOM     13  N   UNL     1      -0.995  15.433  19.664  0.00  0.00    +0.000 N 
ATOM     14  H   UNL     1      -0.876  14.935  18.787  0.00  0.00    +0.000 HD
BRANCH  12  15
ATOM     15  C   UNL     1       0.932  16.693  18.906  0.00  0.00    +0.000 A 
ATOM     16  C   UNL     1       0.419  17.621  18.005  0.00  0.00    +0.000 A 
ATOM     17  C   UNL     1       1.203  17.984  16.915  0.00  0.00    +0.000 A 
ATOM     18  C   UNL     1       2.458  17.404  16.759  0.00  0.00    +0.000 A 
ATOM     19  C   UNL     1       2.895  16.501  17.718  0.00  0.00    +0.000 A 
ATOM     20  N   UNL     1       2.173  16.141  18.802  0.00  0.00    +0.000 NA
ENDBRANCH  12  15
ENDBRANCH   1  13
BRANCH   5  21
ATOM     21  C   UNL     1      -0.590  12.766  21.266  0.00  0.00    +0.000 C 
ATOM     22  O   UNL     1       0.505  13.091  21.717  0.00  0.00    +0.000 OA
ATOM     23  N   UNL     1      -0.852  11.585  20.591  0.00  0.00    +0.000 N 
ATOM     24  H   UNL     1      -1.748  11.484  20.125  0.00  0.00    +0.000 HD
BRANCH  23  25
ATOM     25  C   UNL     1      -0.001  10.462  20.476  0.00  0.00    +0.000 A 
ATOM     26  C   UNL     1       0.210   9.553  21.510  0.00  0.00    +0.000 A 
ATOM     27  C   UNL     1       1.025   8.433  21.321  0.00  0.00    +0.000 A 
ATOM     28  C   UNL     1       1.647   8.218  20.093  0.00  0.00    +0.000 A 
ATOM     29  C   UNL     1       1.455   9.121  19.048  0.00  0.00    +0.000 A 
ATOM     30  C   UNL     1       0.624  10.229  19.241  0.00  0.00    +0.000 A 
BRANCH  30  31
ATOM     31  O   UNL     1       0.414  11.113  18.212  0.00  0.00    +0.000 OA
ATOM     32  H   UNL     1      -0.217  11.787  18.516  0.00  0.00    +0.000 HD
ENDBRANCH  30  31
ENDBRANCH  23  25
ENDBRANCH   5  21
TORSDOF 5
ENDMDL
MODEL 8
REMARK VINA RESULT:      -7.2      5.587      9.751
REMARK  Name = 
REMARK  5 active torsions:
REMARK  status: ('A' for Active; 'I' for Inactive)
REMARK    1  A    between atoms: C_2  and  C_24
REMARK    2  A    between atoms: N_3  and  C_4
REMARK    3  A    between atoms: C_8  and  C_9
REMARK    4  A    between atoms: N_11  and  C_12
REMARK    5  A    between atoms: C_17  and  O_18
REMARK                            x       y       z     vdW  Elec       q    Type
REMARK                         _______ _______ _______ _____ _____    ______ ____
ROOT
ATOM      1  C   UNL     1      -0.424  12.059  21.332  0.00  0.00    +0.000 A 
ATOM      2  S   UNL     1      -1.332  11.630  22.689  0.00  0.00    +0.000 S 
ATOM      3  C   UNL     1      -1.861  13.248  22.914  0.00  0.00    +0.000 A 
ATOM      4  C   UNL     1      -1.504  14.061  21.842  0.00  0.00    +0.000 A 
ATOM      5  C   UNL     1      -0.659  13.344  20.889  0.00  0.00    +0.000 A 
ATOM      6  C   UNL     1      -1.932  15.504  21.683  0.00  0.00    +0.000 C 
ATOM      7  C   UNL     1      -3.367  15.762  22.145  0.00  0.00    +0.000 C 
ATOM      8  C   UNL     1      -3.522  15.939  23.655  0.00  0.00    +0.000 C 
ATOM      9  C   UNL     1      -2.631  15.057  24.529  0.00  0.00    +0.000 C 
ATOM     10  C   UNL     1      -2.657  13.577  24.149  0.00  0.00    +0.000 C 
ENDROOT
BRANCH   1  13
ATOM     11  O   UNL     1      -1.106  10.278  19.305  0.00  0.00    +0.000 OA
ATOM     12  C   UNL     1      -0.009  10.233  19.854  0.00  0.00    +0.000 C 
ATOM     13  N   UNL     1       0.422  11.073  20.874  0.00  0.00    +0.000 N 
ATOM     14  H   UNL     1       1.425  11.228  20.905  0.00  0.00    +0.000 HD
BRANCH  12  15
ATOM     15  C   UNL     1       1.019   9.251  19.390  0.00  0.00    +0.000 A 
ATOM     16  C   UNL     1       1.509   9.329  18.090  0.00  0.00    +0.000 A 
ATOM     17  C   UNL     1       2.407   8.355  17.665  0.00  0.00    +0.000 A 
ATOM     18  C   UNL     1       2.774   7.340  18.544  0.00  0.00    +0.000 A 
ATOM     19  C   UNL     1       2.248   7.353  19.828  0.00  0.00    +0.000 A 
ATOM     20  N   UNL     1       1.392   8.294  20.284  0.00  0.00    +0.000 NA
ENDBRANCH  12  15
ENDBRANCH   1  13
BRANCH   5  21
ATOM     21  C   UNL     1      -0.118  13.905  19.638  0.00  0.00    +0.000 C 
ATOM     22  O   UNL     1      -0.542  13.525  18.550  0.00  0.00    +0.000 OA
ATOM     23  N   UNL     1       0.934  14.791  19.814  0.00  0.00    +0.000 N 
ATOM     24  H   UNL     1       1.306  14.917  20.750  0.00  0.00    +0.000 HD
BRANCH  23  25
ATOM     25  C   UNL     1       1.566  15.572  18.819  0.00  0.00    +0.000 A 
ATOM     26  C   UNL     1       1.093  16.816  18.410  0.00  0.00    +0.000 A 
ATOM     27  C   UNL     1       1.789  17.566  17.457  0.00  0.00    +0.000 A 
ATOM     28  C   UNL     1       2.963  17.069  16.896  0.00  0.00    +0.000 A 
ATOM     29  C   UNL     1       3.449  15.822  17.287  0.00  0.00    +0.000 A 
ATOM     30  C   UNL     1       2.755  15.086  18.253  0.00  0.00    +0.000 A 
BRANCH  30  31
ATOM     31  O   UNL     1       3.235  13.867  18.658  0.00  0.00    +0.000 OA
ATOM     32  H   UNL     1       2.698  13.175  18.238  0.00  0.00    +0.000 HD
ENDBRANCH  30  31
ENDBRANCH  23  25
ENDBRANCH   5  21
TORSDOF 5
ENDMDL
MODEL 9
REMARK VINA RESULT:      -7.2      8.891     12.214
REMARK  Name = 
REMARK  5 active torsions:
REMARK  status: ('A' for Active; 'I' for Inactive)
REMARK    1  A    between atoms: C_2  and  C_24
REMARK    2  A    between atoms: N_3  and  C_4
REMARK    3  A    between atoms: C_8  and  C_9
REMARK    4  A    between atoms: N_11  and  C_12
REMARK    5  A    between atoms: C_17  and  O_18
REMARK                            x       y       z     vdW  Elec       q    Type
REMARK                         _______ _______ _______ _____ _____    ______ ____
ROOT
ATOM      1  C   UNL     1      -1.400  13.364  21.782  0.00  0.00    +0.000 A 
ATOM      2  S   UNL     1      -0.642  14.663  22.548  0.00  0.00    +0.000 S 
ATOM      3  C   UNL     1       0.825  14.375  21.703  0.00  0.00    +0.000 A 
ATOM      4  C   UNL     1       0.666  13.421  20.703  0.00  0.00    +0.000 A 
ATOM      5  C   UNL     1      -0.670  12.829  20.739  0.00  0.00    +0.000 A 
ATOM      6  C   UNL     1       1.738  13.041  19.704  0.00  0.00    +0.000 C 
ATOM      7  C   UNL     1       2.572  14.233  19.232  0.00  0.00    +0.000 C 
ATOM      8  C   UNL     1       3.688  14.642  20.193  0.00  0.00    +0.000 C 
ATOM      9  C   UNL     1       3.365  14.534  21.683  0.00  0.00    +0.000 C 
ATOM     10  C   UNL     1       2.040  15.183  22.080  0.00  0.00    +0.000 C 
ENDROOT
BRANCH   1  13
ATOM     11  O   UNL     1      -3.824  14.175  20.682  0.00  0.00    +0.000 OA
ATOM     12  C   UNL     1      -3.781  13.474  21.688  0.00  0.00    +0.000 C 
ATOM     13  N   UNL     1      -2.625  13.021  22.312  0.00  0.00    +0.000 N 
ATOM     14  H   UNL     1      -2.721  12.138  22.803  0.00  0.00    +0.000 HD
BRANCH  12  15
ATOM     15  C   UNL     1      -5.049  12.979  22.309  0.00  0.00    +0.000 A 
ATOM     16  C   UNL     1      -6.144  12.689  21.501  0.00  0.00    +0.000 A 
ATOM     17  C   UNL     1      -7.332  12.305  22.116  0.00  0.00    +0.000 A 
ATOM     18  C   UNL     1      -7.385  12.232  23.504  0.00  0.00    +0.000 A 
ATOM     19  C   UNL     1      -6.237  12.521  24.227  0.00  0.00    +0.000 A 
ATOM     20  N   UNL     1      -5.060  12.876  23.667  0.00  0.00    +0.000 NA
ENDBRANCH  12  15
ENDBRANCH   1  13
BRANCH   5  21
ATOM     21  C   UNL     1      -1.174  11.800  19.813  0.00  0.00    +0.000 C 
ATOM     22  O   UNL     1      -0.961  10.610  20.028  0.00  0.00    +0.000 OA
ATOM     23  N   UNL     1      -1.800  12.302  18.683  0.00  0.00    +0.000 N 
ATOM     24  H   UNL     1      -1.786  13.306  18.530  0.00  0.00    +0.000 HD
BRANCH  23  25
ATOM     25  C   UNL     1      -2.484  11.566  17.689  0.00  0.00    +0.000 A 
ATOM     26  C   UNL     1      -1.853  10.662  16.837  0.00  0.00    +0.000 A 
ATOM     27  C   UNL     1      -2.591   9.925  15.906  0.00  0.00    +0.000 A 
ATOM     28  C   UNL     1      -3.970  10.094  15.812  0.00  0.00    +0.000 A 
ATOM     29  C   UNL     1      -4.619  11.000  16.650  0.00  0.00    +0.000 A 
ATOM     30  C   UNL     1      -3.875  11.721  17.591  0.00  0.00    +0.000 A 
BRANCH  30  31
ATOM     31  O   UNL     1      -4.508  12.600  18.433  0.00  0.00    +0.000 OA
ATOM     32  H   UNL     1      -4.089  13.471  18.330  0.00  0.00    +0.000 HD
ENDBRANCH  30  31
ENDBRANCH  23  25
ENDBRANCH   5  21
TORSDOF 5
ENDMDL
