MODEL 1
REMARK VINA RESULT:      -9.3      0.000      0.000
REMARK  Name = 
REMARK  9 active torsions:
REMARK  status: ('A' for Active; 'I' for Inactive)
REMARK    1  A    between atoms: C_1  and  C_2
REMARK    2  A    between atoms: N_6  and  C_7
REMARK    3  A    between atoms: C_9  and  C_10
REMARK    4  A    between atoms: C_14  and  N_15
REMARK    5  A    between atoms: N_21  and  C_22
REMARK    6  A    between atoms: C_25  and  N_26
REMARK    7  A    between atoms: N_26  and  C_27
REMARK    8  A    between atoms: C_31  and  C_32
REMARK    9  A    between atoms: C_32  and  O_33
REMARK                            x       y       z     vdW  Elec       q    Type
REMARK                         _______ _______ _______ _____ _____    ______ ____
ROOT
ATOM      1  C   UNL     1      -0.755   9.845  21.955  0.00  0.00    +0.000 C 
ATOM      2  C   UNL     1       0.171   9.561  20.820  0.00  0.00    +0.000 A 
ATOM      3  C   UNL     1       1.205   8.672  20.989  0.00  0.00    +0.000 A 
ATOM      4  N   UNL     1       2.078   8.360  20.029  0.00  0.00    +0.000 NA
ATOM      5  C   UNL     1       1.928   8.972  18.846  0.00  0.00    +0.000 A 
ATOM      6  N   UNL     1       2.750   8.580  17.784  0.00  0.00    +0.000 N 
ATOM      7  N   UNL     1       1.008   9.913  18.607  0.00  0.00    +0.000 NA
ATOM      8  C   UNL     1       0.128  10.202  19.583  0.00  0.00    +0.000 A 
ATOM      9  H   UNL     1       2.439   9.050  16.943  0.00  0.00    +0.000 HD
ENDROOT
BRANCH   6  10
ATOM     10  C   UNL     1       3.241   7.278  17.571  0.00  0.00    +0.000 A 
ATOM     11  C   UNL     1       4.388   7.102  16.806  0.00  0.00    +0.000 A 
ATOM     12  C   UNL     1       4.931   5.826  16.627  0.00  0.00    +0.000 A 
ATOM     13  C   UNL     1       4.291   4.718  17.211  0.00  0.00    +0.000 A 
ATOM     14  C   UNL     1       3.096   4.834  17.935  0.00  0.00    +0.000 A 
ATOM     15  C   UNL     1       2.599   6.133  18.093  0.00  0.00    +0.000 A 
BRANCH  14  16
ATOM     16  N   UNL     1       2.446   3.743  18.438  0.00  0.00    +0.000 N 
ATOM     17  C   UNL     1       3.079   2.464  18.797  0.00  0.00    +0.000 C 
ATOM     18  C   UNL     1       1.909   1.736  19.533  0.00  0.00    +0.000 C 
ATOM     19  C   UNL     1       0.746   2.154  18.635  0.00  0.00    +0.000 C 
ATOM     20  C   UNL     1       1.026   3.644  18.853  0.00  0.00    +0.000 C 
ATOM     21  C   UNL     1       0.953   3.707  20.395  0.00  0.00    +0.000 C 
ATOM     22  N   UNL     1       1.489   2.377  20.821  0.00  0.00    +0.000 NA
ATOM     23  C   UNL     1       2.584   2.529  21.773  0.00  0.00    +0.000 C 
ENDBRANCH  14  16
BRANCH  12  24
ATOM     24  C   UNL     1       6.214   5.652  15.862  0.00  0.00    +0.000 C 
ATOM     25  F   UNL     1       7.294   6.185  16.499  0.00  0.00    +0.000 F 
ATOM     26  F   UNL     1       6.527   4.344  15.641  0.00  0.00    +0.000 F 
ENDBRANCH  12  24
ENDBRANCH   6  10
BRANCH   8  27
ATOM     27  N   UNL     1      -0.879  11.164  19.346  0.00  0.00    +0.000 N 
ATOM     28  H   UNL     1      -1.035  11.741  20.159  0.00  0.00    +0.000 HD
BRANCH  27  29
ATOM     29  C   UNL     1      -2.011  11.039  18.513  0.00  0.00    +0.000 A 
ATOM     30  C   UNL     1      -3.210  11.670  18.864  0.00  0.00    +0.000 A 
ATOM     31  C   UNL     1      -4.295  11.686  17.984  0.00  0.00    +0.000 A 
ATOM     32  C   UNL     1      -4.182  11.094  16.726  0.00  0.00    +0.000 A 
ATOM     33  C   UNL     1      -3.000  10.438  16.358  0.00  0.00    +0.000 A 
ATOM     34  C   UNL     1      -1.938  10.386  17.274  0.00  0.00    +0.000 A 
BRANCH  33  35
ATOM     35  C   UNL     1      -2.825   9.908  14.960  0.00  0.00    +0.000 C 
BRANCH  35  36
ATOM     36  O   UNL     1      -4.038   9.979  14.226  0.00  0.00    +0.000 OA
ATOM     37  H   UNL     1      -4.223   9.075  13.918  0.00  0.00    +0.000 HD
ENDBRANCH  35  36
ENDBRANCH  33  35
ENDBRANCH  27  29
ENDBRANCH   8  27
TORSDOF 7
ENDMDL
MODEL 2
REMARK VINA RESULT:      -9.3      1.313      1.774
REMARK  Name = 
REMARK  9 active torsions:
REMARK  status: ('A' for Active; 'I' for Inactive)
REMARK    1  A    between atoms: C_1  and  C_2
REMARK    2  A    between atoms: N_6  and  C_7
REMARK    3  A    between atoms: C_9  and  C_10
REMARK    4  A    between atoms: C_14  and  N_15
REMARK    5  A    between atoms: N_21  and  C_22
REMARK    6  A    between atoms: C_25  and  N_26
REMARK    7  A    between atoms: N_26  and  C_27
REMARK    8  A    between atoms: C_31  and  C_32
REMARK    9  A    between atoms: C_32  and  O_33
REMARK                            x       y       z     vdW  Elec       q    Type
REMARK                         _______ _______ _______ _____ _____    ______ ____
ROOT
ATOM      1  C   UNL     1      -0.747  10.093  20.922  0.00  0.00    +0.000 C 
ATOM      2  C   UNL     1       0.324   9.687  19.965  0.00  0.00    +0.000 A 
ATOM      3  C   UNL     1       1.240   8.732  20.332  0.00  0.00    +0.000 A 
ATOM      4  N   UNL     1       2.228   8.310  19.540  0.00  0.00    +0.000 NA
ATOM      5  C   UNL     1       2.322   8.876  18.328  0.00  0.00    +0.000 A 
ATOM      6  N   UNL     1       3.270   8.374  17.431  0.00  0.00    +0.000 N 
ATOM      7  N   UNL     1       1.534   9.873  17.910  0.00  0.00    +0.000 NA
ATOM      8  C   UNL     1       0.534  10.272  18.718  0.00  0.00    +0.000 A 
ATOM      9  H   UNL     1       3.138   8.827  16.535  0.00  0.00    +0.000 HD
ENDROOT
BRANCH   6  10
ATOM     10  C   UNL     1       3.680   7.030  17.344  0.00  0.00    +0.000 A 
ATOM     11  C   UNL     1       4.851   6.720  16.664  0.00  0.00    +0.000 A 
ATOM     12  C   UNL     1       5.313   5.401  16.613  0.00  0.00    +0.000 A 
ATOM     13  C   UNL     1       4.566   4.386  17.240  0.00  0.00    +0.000 A 
ATOM     14  C   UNL     1       3.345   4.637  17.880  0.00  0.00    +0.000 A 
ATOM     15  C   UNL     1       2.932   5.974  17.912  0.00  0.00    +0.000 A 
BRANCH  14  16
ATOM     16  N   UNL     1       2.595   3.634  18.424  0.00  0.00    +0.000 N 
ATOM     17  C   UNL     1       3.124   2.381  18.986  0.00  0.00    +0.000 C 
ATOM     18  C   UNL     1       1.850   1.783  19.664  0.00  0.00    +0.000 C 
ATOM     19  C   UNL     1       0.808   2.140  18.605  0.00  0.00    +0.000 C 
ATOM     20  C   UNL     1       1.136   3.634  18.690  0.00  0.00    +0.000 C 
ATOM     21  C   UNL     1       0.905   3.871  20.199  0.00  0.00    +0.000 C 
ATOM     22  N   UNL     1       1.329   2.579  20.822  0.00  0.00    +0.000 NA
ATOM     23  C   UNL     1       2.325   2.798  21.866  0.00  0.00    +0.000 C 
ENDBRANCH  14  16
BRANCH  12  24
ATOM     24  C   UNL     1       6.620   5.084  15.941  0.00  0.00    +0.000 C 
ATOM     25  F   UNL     1       7.349   4.142  16.603  0.00  0.00    +0.000 F 
ATOM     26  F   UNL     1       6.463   4.603  14.675  0.00  0.00    +0.000 F 
ENDBRANCH  12  24
ENDBRANCH   6  10
BRANCH   8  27
ATOM     27  N   UNL     1      -0.338  11.296  18.286  0.00  0.00    +0.000 N 
ATOM     28  H   UNL     1      -0.124  12.175  18.734  0.00  0.00    +0.000 HD
BRANCH  27  29
ATOM     29  C   UNL     1      -1.689  11.171  17.898  0.00  0.00    +0.000 A 
ATOM     30  C   UNL     1      -2.044  10.277  16.881  0.00  0.00    +0.000 A 
ATOM     31  C   UNL     1      -3.386  10.027  16.585  0.00  0.00    +0.000 A 
ATOM     32  C   UNL     1      -4.392  10.648  17.326  0.00  0.00    +0.000 A 
ATOM     33  C   UNL     1      -4.064  11.562  18.335  0.00  0.00    +0.000 A 
ATOM     34  C   UNL     1      -2.711  11.842  18.586  0.00  0.00    +0.000 A 
BRANCH  33  35
ATOM     35  C   UNL     1      -5.135  12.139  19.221  0.00  0.00    +0.000 C 
BRANCH  35  36
ATOM     36  O   UNL     1      -5.007  13.548  19.336  0.00  0.00    +0.000 OA
ATOM     37  H   UNL     1      -5.736  13.842  19.909  0.00  0.00    +0.000 HD
ENDBRANCH  35  36
ENDBRANCH  33  35
ENDBRANCH  27  29
ENDBRANCH   8  27
TORSDOF 7
ENDMDL
MODEL 3
REMARK VINA RESULT:      -8.9      2.671      3.219
REMARK  Name = 
REMARK  9 active torsions:
REMARK  status: ('A' for Active; 'I' for Inactive)
REMARK    1  A    between atoms: C_1  and  C_2
REMARK    2  A    between atoms: N_6  and  C_7
REMARK    3  A    between atoms: C_9  and  C_10
REMARK    4  A    between atoms: C_14  and  N_15
REMARK    5  A    between atoms: N_21  and  C_22
REMARK    6  A    between atoms: C_25  and  N_26
REMARK    7  A    between atoms: N_26  and  C_27
REMARK    8  A    between atoms: C_31  and  C_32
REMARK    9  A    between atoms: C_32  and  O_33
REMARK                            x       y       z     vdW  Elec       q    Type
REMARK                         _______ _______ _______ _____ _____    ______ ____
ROOT
ATOM      1  C   UNL     1      -0.567  10.098  20.840  0.00  0.00    +0.000 C 
ATOM      2  C   UNL     1       0.507   9.662  19.902  0.00  0.00    +0.000 A 
ATOM      3  C   UNL     1       1.341   8.628  20.253  0.00  0.00    +0.000 A 
ATOM      4  N   UNL     1       2.326   8.174  19.474  0.00  0.00    +0.000 NA
ATOM      5  C   UNL     1       2.503   8.786  18.295  0.00  0.00    +0.000 A 
ATOM      6  N   UNL     1       3.446   8.260  17.407  0.00  0.00    +0.000 N 
ATOM      7  N   UNL     1       1.802   9.854  17.899  0.00  0.00    +0.000 NA
ATOM      8  C   UNL     1       0.803  10.286  18.692  0.00  0.00    +0.000 A 
ATOM      9  H   UNL     1       3.379   8.761  16.529  0.00  0.00    +0.000 HD
ENDROOT
BRANCH   6  10
ATOM     10  C   UNL     1       3.765   6.895  17.270  0.00  0.00    +0.000 A 
ATOM     11  C   UNL     1       4.863   6.528  16.501  0.00  0.00    +0.000 A 
ATOM     12  C   UNL     1       5.237   5.185  16.396  0.00  0.00    +0.000 A 
ATOM     13  C   UNL     1       4.476   4.205  17.060  0.00  0.00    +0.000 A 
ATOM     14  C   UNL     1       3.322   4.517  17.791  0.00  0.00    +0.000 A 
ATOM     15  C   UNL     1       2.996   5.875  17.874  0.00  0.00    +0.000 A 
BRANCH  14  16
ATOM     16  N   UNL     1       2.552   3.549  18.373  0.00  0.00    +0.000 N 
ATOM     17  C   UNL     1       3.050   2.281  18.927  0.00  0.00    +0.000 C 
ATOM     18  C   UNL     1       1.779   1.742  19.658  0.00  0.00    +0.000 C 
ATOM     19  C   UNL     1       0.714   2.133  18.635  0.00  0.00    +0.000 C 
ATOM     20  C   UNL     1       1.105   3.612  18.692  0.00  0.00    +0.000 C 
ATOM     21  C   UNL     1       0.941   3.872  20.207  0.00  0.00    +0.000 C 
ATOM     22  N   UNL     1       1.335   2.569  20.827  0.00  0.00    +0.000 NA
ATOM     23  C   UNL     1       2.377   2.755  21.830  0.00  0.00    +0.000 C 
ENDBRANCH  14  16
BRANCH  12  24
ATOM     24  C   UNL     1       6.470   4.803  15.626  0.00  0.00    +0.000 C 
ATOM     25  F   UNL     1       7.478   4.342  16.420  0.00  0.00    +0.000 F 
ATOM     26  F   UNL     1       6.243   3.817  14.714  0.00  0.00    +0.000 F 
ENDBRANCH  12  24
ENDBRANCH   6  10
BRANCH   8  27
ATOM     27  N   UNL     1       0.020  11.387  18.280  0.00  0.00    +0.000 N 
ATOM     28  H   UNL     1      -0.436  11.206  17.398  0.00  0.00    +0.000 HD
BRANCH  27  29
ATOM     29  C   UNL     1       0.263  12.757  18.522  0.00  0.00    +0.000 A 
ATOM     30  C   UNL     1      -0.714  13.539  19.148  0.00  0.00    +0.000 A 
ATOM     31  C   UNL     1      -0.440  14.854  19.531  0.00  0.00    +0.000 A 
ATOM     32  C   UNL     1       0.829  15.392  19.320  0.00  0.00    +0.000 A 
ATOM     33  C   UNL     1       1.819  14.637  18.677  0.00  0.00    +0.000 A 
ATOM     34  C   UNL     1       1.511  13.336  18.251  0.00  0.00    +0.000 A 
BRANCH  33  35
ATOM     35  C   UNL     1       3.224  15.163  18.559  0.00  0.00    +0.000 C 
BRANCH  35  36
ATOM     36  O   UNL     1       3.755  14.930  17.263  0.00  0.00    +0.000 OA
ATOM     37  H   UNL     1       4.020  15.799  16.917  0.00  0.00    +0.000 HD
ENDBRANCH  35  36
ENDBRANCH  33  35
ENDBRANCH  27  29
ENDBRANCH   8  27
TORSDOF 7
ENDMDL
MODEL 4
REMARK VINA RESULT:      -8.9      4.386      9.676
REMARK  Name = 
REMARK  9 active torsions:
REMARK  status: ('A' for Active; 'I' for Inactive)
REMARK    1  A    between atoms: C_1  and  C_2
REMARK    2  A    between atoms: N_6  and  C_7
REMARK    3  A    between atoms: C_9  and  C_10
REMARK    4  A    between atoms: C_14  and  N_15
REMARK    5  A    between atoms: N_21  and  C_22
REMARK    6  A    between atoms: C_25  and  N_26
REMARK    7  A    between atoms: N_26  and  C_27
REMARK    8  A    between atoms: C_31  and  C_32
REMARK    9  A    between atoms: C_32  and  O_33
REMARK                            x       y       z     vdW  Elec       q    Type
REMARK                         _______ _______ _______ _____ _____    ______ ____
ROOT
ATOM      1  C   UNL     1       3.580   6.552  17.527  0.00  0.00    +0.000 C 
ATOM      2  C   UNL     1       2.702   7.454  18.327  0.00  0.00    +0.000 A 
ATOM      3  C   UNL     1       2.204   8.602  17.759  0.00  0.00    +0.000 A 
ATOM      4  N   UNL     1       1.413   9.463  18.402  0.00  0.00    +0.000 NA
ATOM      5  C   UNL     1       1.113   9.182  19.677  0.00  0.00    +0.000 A 
ATOM      6  N   UNL     1       0.193   9.998  20.342  0.00  0.00    +0.000 N 
ATOM      7  N   UNL     1       1.616   8.137  20.346  0.00  0.00    +0.000 NA
ATOM      8  C   UNL     1       2.399   7.273  19.675  0.00  0.00    +0.000 A 
ATOM      9  H   UNL     1      -0.008   9.590  21.246  0.00  0.00    +0.000 HD
ENDROOT
BRANCH   6  10
ATOM     10  C   UNL     1      -0.906  10.644  19.742  0.00  0.00    +0.000 A 
ATOM     11  C   UNL     1      -1.306  10.259  18.468  0.00  0.00    +0.000 A 
ATOM     12  C   UNL     1      -2.429  10.842  17.873  0.00  0.00    +0.000 A 
ATOM     13  C   UNL     1      -3.137  11.840  18.569  0.00  0.00    +0.000 A 
ATOM     14  C   UNL     1      -2.734  12.310  19.826  0.00  0.00    +0.000 A 
ATOM     15  C   UNL     1      -1.611  11.688  20.383  0.00  0.00    +0.000 A 
BRANCH  14  16
ATOM     16  N   UNL     1      -3.389  13.327  20.461  0.00  0.00    +0.000 N 
ATOM     17  C   UNL     1      -4.793  13.297  20.897  0.00  0.00    +0.000 C 
ATOM     18  C   UNL     1      -4.877  14.597  21.761  0.00  0.00    +0.000 C 
ATOM     19  C   UNL     1      -4.032  15.530  20.896  0.00  0.00    +0.000 C 
ATOM     20  C   UNL     1      -2.817  14.600  20.962  0.00  0.00    +0.000 C 
ATOM     21  C   UNL     1      -2.643  14.498  22.494  0.00  0.00    +0.000 C 
ATOM     22  N   UNL     1      -4.046  14.571  23.008  0.00  0.00    +0.000 NA
ATOM     23  C   UNL     1      -4.348  13.440  23.879  0.00  0.00    +0.000 C 
ENDBRANCH  14  16
BRANCH  12  24
ATOM     24  C   UNL     1      -2.902  10.368  16.527  0.00  0.00    +0.000 C 
ATOM     25  F   UNL     1      -4.253  10.453  16.372  0.00  0.00    +0.000 F 
ATOM     26  F   UNL     1      -2.369  11.081  15.495  0.00  0.00    +0.000 F 
ENDBRANCH  12  24
ENDBRANCH   6  10
BRANCH   8  27
ATOM     27  N   UNL     1       2.912   6.139  20.345  0.00  0.00    +0.000 N 
ATOM     28  H   UNL     1       3.900   6.235  20.526  0.00  0.00    +0.000 HD
BRANCH  27  29
ATOM     29  C   UNL     1       2.484   4.800  20.224  0.00  0.00    +0.000 A 
ATOM     30  C   UNL     1       1.127   4.485  20.356  0.00  0.00    +0.000 A 
ATOM     31  C   UNL     1       0.663   3.194  20.093  0.00  0.00    +0.000 A 
ATOM     32  C   UNL     1       1.551   2.207  19.665  0.00  0.00    +0.000 A 
ATOM     33  C   UNL     1       2.918   2.491  19.545  0.00  0.00    +0.000 A 
ATOM     34  C   UNL     1       3.376   3.779  19.863  0.00  0.00    +0.000 A 
BRANCH  33  35
ATOM     35  C   UNL     1       3.861   1.472  18.963  0.00  0.00    +0.000 C 
BRANCH  35  36
ATOM     36  O   UNL     1       5.062   1.392  19.716  0.00  0.00    +0.000 OA
ATOM     37  H   UNL     1       4.949   0.646  20.331  0.00  0.00    +0.000 HD
ENDBRANCH  35  36
ENDBRANCH  33  35
ENDBRANCH  27  29
ENDBRANCH   8  27
TORSDOF 7
ENDMDL
MODEL 5
REMARK VINA RESULT:      -8.8      2.455      4.151
REMARK  Name = 
REMARK  9 active torsions:
REMARK  status: ('A' for Active; 'I' for Inactive)
REMARK    1  A    between atoms: C_1  and  C_2
REMARK    2  A    between atoms: N_6  and  C_7
REMARK    3  A    between atoms: C_9  and  C_10
REMARK    4  A    between atoms: C_14  and  N_15
REMARK    5  A    between atoms: N_21  and  C_22
REMARK    6  A    between atoms: C_25  and  N_26
REMARK    7  A    between atoms: N_26  and  C_27
REMARK    8  A    between atoms: C_31  and  C_32
REMARK    9  A    between atoms: C_32  and  O_33
REMARK                            x       y       z     vdW  Elec       q    Type
REMARK                         _______ _______ _______ _____ _____    ______ ____
ROOT
ATOM      1  C   UNL     1      -1.233  10.994  22.715  0.00  0.00    +0.000 C 
ATOM      2  C   UNL     1      -0.382  10.398  21.645  0.00  0.00    +0.000 A 
ATOM      3  C   UNL     1       0.643   9.547  21.983  0.00  0.00    +0.000 A 
ATOM      4  N   UNL     1       1.451   8.970  21.091  0.00  0.00    +0.000 NA
ATOM      5  C   UNL     1       1.244   9.264  19.800  0.00  0.00    +0.000 A 
ATOM      6  N   UNL     1       1.994   8.587  18.833  0.00  0.00    +0.000 N 
ATOM      7  N   UNL     1       0.331  10.145  19.375  0.00  0.00    +0.000 NA
ATOM      8  C   UNL     1      -0.484  10.704  20.289  0.00  0.00    +0.000 A 
ATOM      9  H   UNL     1       1.643   8.837  17.917  0.00  0.00    +0.000 HD
ENDROOT
BRANCH   6  10
ATOM     10  C   UNL     1       2.445   7.257  18.936  0.00  0.00    +0.000 A 
ATOM     11  C   UNL     1       1.651   6.319  19.586  0.00  0.00    +0.000 A 
ATOM     12  C   UNL     1       2.047   4.980  19.651  0.00  0.00    +0.000 A 
ATOM     13  C   UNL     1       3.269   4.595  19.070  0.00  0.00    +0.000 A 
ATOM     14  C   UNL     1       4.136   5.513  18.463  0.00  0.00    +0.000 A 
ATOM     15  C   UNL     1       3.691   6.839  18.416  0.00  0.00    +0.000 A 
BRANCH  14  16
ATOM     16  N   UNL     1       5.353   5.139  17.966  0.00  0.00    +0.000 N 
ATOM     17  C   UNL     1       5.604   3.959  17.124  0.00  0.00    +0.000 C 
ATOM     18  C   UNL     1       7.079   4.207  16.675  0.00  0.00    +0.000 C 
ATOM     19  C   UNL     1       7.655   4.747  17.983  0.00  0.00    +0.000 C 
ATOM     20  C   UNL     1       6.632   5.885  18.042  0.00  0.00    +0.000 C 
ATOM     21  C   UNL     1       6.900   6.554  16.674  0.00  0.00    +0.000 C 
ATOM     22  N   UNL     1       7.268   5.404  15.792  0.00  0.00    +0.000 NA
ATOM     23  C   UNL     1       6.439   5.372  14.592  0.00  0.00    +0.000 C 
ENDBRANCH  14  16
BRANCH  12  24
ATOM     24  C   UNL     1       1.147   3.957  20.288  0.00  0.00    +0.000 C 
ATOM     25  F   UNL     1       1.126   2.770  19.618  0.00  0.00    +0.000 F 
ATOM     26  F   UNL     1       1.513   3.651  21.564  0.00  0.00    +0.000 F 
ENDBRANCH  12  24
ENDBRANCH   6  10
BRANCH   8  27
ATOM     27  N   UNL     1      -1.484  11.608  19.866  0.00  0.00    +0.000 N 
ATOM     28  H   UNL     1      -1.719  12.265  20.595  0.00  0.00    +0.000 HD
BRANCH  27  29
ATOM     29  C   UNL     1      -2.538  11.365  18.960  0.00  0.00    +0.000 A 
ATOM     30  C   UNL     1      -3.769  12.010  19.131  0.00  0.00    +0.000 A 
ATOM     31  C   UNL     1      -4.773  11.901  18.166  0.00  0.00    +0.000 A 
ATOM     32  C   UNL     1      -4.546  11.168  17.001  0.00  0.00    +0.000 A 
ATOM     33  C   UNL     1      -3.331  10.496  16.815  0.00  0.00    +0.000 A 
ATOM     34  C   UNL     1      -2.352  10.572  17.817  0.00  0.00    +0.000 A 
BRANCH  33  35
ATOM     35  C   UNL     1      -3.030   9.809  15.510  0.00  0.00    +0.000 C 
BRANCH  35  36
ATOM     36  O   UNL     1      -3.146  10.708  14.416  0.00  0.00    +0.000 OA
ATOM     37  H   UNL     1      -4.097  10.784  14.226  0.00  0.00    +0.000 HD
ENDBRANCH  35  36
ENDBRANCH  33  35
ENDBRANCH  27  29
ENDBRANCH   8  27
TORSDOF 7
ENDMDL
MODEL 6
REMARK VINA RESULT:      -8.8      1.069      1.441
REMARK  Name = 
REMARK  9 active torsions:
REMARK  status: ('A' for Active; 'I' for Inactive)
REMARK    1  A    between atoms: C_1  and  C_2
REMARK    2  A    between atoms: N_6  and  C_7
REMARK    3  A    between atoms: C_9  and  C_10
REMARK    4  A    between atoms: C_14  and  N_15
REMARK    5  A    between atoms: N_21  and  C_22
REMARK    6  A    between atoms: C_25  and  N_26
REMARK    7  A    between atoms: N_26  and  C_27
REMARK    8  A    between atoms: C_31  and  C_32
REMARK    9  A    between atoms: C_32  and  O_33
REMARK                            x       y       z     vdW  Elec       q    Type
REMARK                         _______ _______ _______ _____ _____    ______ ____
ROOT
ATOM      1  C   UNL     1      -1.221  10.916  22.309  0.00  0.00    +0.000 C 
ATOM      2  C   UNL     1      -0.380  10.571  21.126  0.00  0.00    +0.000 A 
ATOM      3  C   UNL     1       0.786   9.865  21.299  0.00  0.00    +0.000 A 
ATOM      4  N   UNL     1       1.595   9.515  20.298  0.00  0.00    +0.000 NA
ATOM      5  C   UNL     1       1.240   9.898  19.063  0.00  0.00    +0.000 A 
ATOM      6  N   UNL     1       2.001   9.447  17.981  0.00  0.00    +0.000 N 
ATOM      7  N   UNL     1       0.172  10.660  18.800  0.00  0.00    +0.000 NA
ATOM      8  C   UNL     1      -0.640  10.989  19.822  0.00  0.00    +0.000 A 
ATOM      9  H   UNL     1       1.542   9.727  17.123  0.00  0.00    +0.000 HD
ENDROOT
BRANCH   6  10
ATOM     10  C   UNL     1       2.655   8.203  17.906  0.00  0.00    +0.000 A 
ATOM     11  C   UNL     1       3.897   8.125  17.285  0.00  0.00    +0.000 A 
ATOM     12  C   UNL     1       4.595   6.914  17.249  0.00  0.00    +0.000 A 
ATOM     13  C   UNL     1       4.018   5.769  17.829  0.00  0.00    +0.000 A 
ATOM     14  C   UNL     1       2.741   5.780  18.406  0.00  0.00    +0.000 A 
ATOM     15  C   UNL     1       2.087   7.018  18.426  0.00  0.00    +0.000 A 
BRANCH  14  16
ATOM     16  N   UNL     1       2.162   4.647  18.903  0.00  0.00    +0.000 N 
ATOM     17  C   UNL     1       1.430   3.645  18.111  0.00  0.00    +0.000 C 
ATOM     18  C   UNL     1       1.246   2.499  19.157  0.00  0.00    +0.000 C 
ATOM     19  C   UNL     1       0.936   3.335  20.397  0.00  0.00    +0.000 C 
ATOM     20  C   UNL     1       2.251   4.113  20.284  0.00  0.00    +0.000 C 
ATOM     21  C   UNL     1       3.256   2.939  20.299  0.00  0.00    +0.000 C 
ATOM     22  N   UNL     1       2.521   1.844  19.594  0.00  0.00    +0.000 NA
ATOM     23  C   UNL     1       3.304   1.310  18.486  0.00  0.00    +0.000 C 
ENDBRANCH  14  16
BRANCH  12  24
ATOM     24  C   UNL     1       5.970   6.853  16.644  0.00  0.00    +0.000 C 
ATOM     25  F   UNL     1       6.855   7.703  17.238  0.00  0.00    +0.000 F 
ATOM     26  F   UNL     1       6.535   5.616  16.731  0.00  0.00    +0.000 F 
ENDBRANCH  12  24
ENDBRANCH   6  10
BRANCH   8  27
ATOM     27  N   UNL     1      -1.796  11.759  19.568  0.00  0.00    +0.000 N 
ATOM     28  H   UNL     1      -2.116  12.229  20.401  0.00  0.00    +0.000 HD
BRANCH  27  29
ATOM     29  C   UNL     1      -2.824  11.490  18.639  0.00  0.00    +0.000 A 
ATOM     30  C   UNL     1      -4.139  11.880  18.920  0.00  0.00    +0.000 A 
ATOM     31  C   UNL     1      -5.142  11.760  17.955  0.00  0.00    +0.000 A 
ATOM     32  C   UNL     1      -4.833  11.276  16.684  0.00  0.00    +0.000 A 
ATOM     33  C   UNL     1      -3.530  10.859  16.384  0.00  0.00    +0.000 A 
ATOM     34  C   UNL     1      -2.545  10.937  17.380  0.00  0.00    +0.000 A 
BRANCH  33  35
ATOM     35  C   UNL     1      -3.161  10.456  14.981  0.00  0.00    +0.000 C 
BRANCH  35  36
ATOM     36  O   UNL     1      -4.296  10.000  14.260  0.00  0.00    +0.000 OA
ATOM     37  H   UNL     1      -4.716   9.319  14.814  0.00  0.00    +0.000 HD
ENDBRANCH  35  36
ENDBRANCH  33  35
ENDBRANCH  27  29
ENDBRANCH   8  27
TORSDOF 7
ENDMDL
MODEL 7
REMARK VINA RESULT:      -8.7      1.096      1.617
REMARK  Name = 
REMARK  9 active torsions:
REMARK  status: ('A' for Active; 'I' for Inactive)
REMARK    1  A    between atoms: C_1  and  C_2
REMARK    2  A    between atoms: N_6  and  C_7
REMARK    3  A    between atoms: C_9  and  C_10
REMARK    4  A    between atoms: C_14  and  N_15
REMARK    5  A    between atoms: N_21  and  C_22
REMARK    6  A    between atoms: C_25  and  N_26
REMARK    7  A    between atoms: N_26  and  C_27
REMARK    8  A    between atoms: C_31  and  C_32
REMARK    9  A    between atoms: C_32  and  O_33
REMARK                            x       y       z     vdW  Elec       q    Type
REMARK                         _______ _______ _______ _____ _____    ______ ____
ROOT
ATOM      1  C   UNL     1      -0.858  10.343  22.180  0.00  0.00    +0.000 C 
ATOM      2  C   UNL     1      -0.042   9.968  20.989  0.00  0.00    +0.000 A 
ATOM      3  C   UNL     1       1.156   9.317  21.160  0.00  0.00    +0.000 A 
ATOM      4  N   UNL     1       1.948   8.944  20.152  0.00  0.00    +0.000 NA
ATOM      5  C   UNL     1       1.540   9.248  18.912  0.00  0.00    +0.000 A 
ATOM      6  N   UNL     1       2.285   8.769  17.830  0.00  0.00    +0.000 N 
ATOM      7  N   UNL     1       0.435   9.954  18.645  0.00  0.00    +0.000 NA
ATOM      8  C   UNL     1      -0.357  10.305  19.674  0.00  0.00    +0.000 A 
ATOM      9  H   UNL     1       1.789   8.985  16.974  0.00  0.00    +0.000 HD
ENDROOT
BRANCH   6  10
ATOM     10  C   UNL     1       2.985   7.548  17.799  0.00  0.00    +0.000 A 
ATOM     11  C   UNL     1       4.300   7.531  17.349  0.00  0.00    +0.000 A 
ATOM     12  C   UNL     1       5.038   6.343  17.363  0.00  0.00    +0.000 A 
ATOM     13  C   UNL     1       4.427   5.159  17.817  0.00  0.00    +0.000 A 
ATOM     14  C   UNL     1       3.085   5.111  18.218  0.00  0.00    +0.000 A 
ATOM     15  C   UNL     1       2.394   6.327  18.194  0.00  0.00    +0.000 A 
BRANCH  14  16
ATOM     16  N   UNL     1       2.484   3.942  18.590  0.00  0.00    +0.000 N 
ATOM     17  C   UNL     1       3.181   2.682  18.891  0.00  0.00    +0.000 C 
ATOM     18  C   UNL     1       2.022   1.821  19.488  0.00  0.00    +0.000 C 
ATOM     19  C   UNL     1       0.890   2.235  18.549  0.00  0.00    +0.000 C 
ATOM     20  C   UNL     1       1.051   3.717  18.899  0.00  0.00    +0.000 C 
ATOM     21  C   UNL     1       0.878   3.648  20.434  0.00  0.00    +0.000 C 
ATOM     22  N   UNL     1       1.479   2.326  20.791  0.00  0.00    +0.000 NA
ATOM     23  C   UNL     1       2.499   2.471  21.823  0.00  0.00    +0.000 C 
ENDBRANCH  14  16
BRANCH  12  24
ATOM     24  C   UNL     1       6.482   6.347  16.946  0.00  0.00    +0.000 C 
ATOM     25  F   UNL     1       6.680   5.853  15.691  0.00  0.00    +0.000 F 
ATOM     26  F   UNL     1       7.030   7.595  16.940  0.00  0.00    +0.000 F 
ENDBRANCH  12  24
ENDBRANCH   6  10
BRANCH   8  27
ATOM     27  N   UNL     1      -1.550  11.017  19.418  0.00  0.00    +0.000 N 
ATOM     28  H   UNL     1      -2.093  11.140  20.260  0.00  0.00    +0.000 HD
BRANCH  27  29
ATOM     29  C   UNL     1      -2.327  11.003  18.239  0.00  0.00    +0.000 A 
ATOM     30  C   UNL     1      -1.968  10.165  17.177  0.00  0.00    +0.000 A 
ATOM     31  C   UNL     1      -2.802  10.024  16.065  0.00  0.00    +0.000 A 
ATOM     32  C   UNL     1      -4.022  10.698  16.018  0.00  0.00    +0.000 A 
ATOM     33  C   UNL     1      -4.395  11.559  17.058  0.00  0.00    +0.000 A 
ATOM     34  C   UNL     1      -3.522  11.730  18.144  0.00  0.00    +0.000 A 
BRANCH  33  35
ATOM     35  C   UNL     1      -5.761  12.190  17.075  0.00  0.00    +0.000 C 
BRANCH  35  36
ATOM     36  O   UNL     1      -6.533  11.719  18.169  0.00  0.00    +0.000 OA
ATOM     37  H   UNL     1      -5.918  11.623  18.916  0.00  0.00    +0.000 HD
ENDBRANCH  35  36
ENDBRANCH  33  35
ENDBRANCH  27  29
ENDBRANCH   8  27
TORSDOF 7
ENDMDL
MODEL 8
REMARK VINA RESULT:      -8.6      4.350      9.659
REMARK  Name = 
REMARK  9 active torsions:
REMARK  status: ('A' for Active; 'I' for Inactive)
REMARK    1  A    between atoms: C_1  and  C_2
REMARK    2  A    between atoms: N_6  and  C_7
REMARK    3  A    between atoms: C_9  and  C_10
REMARK    4  A    between atoms: C_14  and  N_15
REMARK    5  A    between atoms: N_21  and  C_22
REMARK    6  A    between atoms: C_25  and  N_26
REMARK    7  A    between atoms: N_26  and  C_27
REMARK    8  A    between atoms: C_31  and  C_32
REMARK    9  A    between atoms: C_32  and  O_33
REMARK                            x       y       z     vdW  Elec       q    Type
REMARK                         _______ _______ _______ _____ _____    ______ ____
ROOT
ATOM      1  C   UNL     1       3.408   6.527  17.528  0.00  0.00    +0.000 C 
ATOM      2  C   UNL     1       2.616   7.434  18.409  0.00  0.00    +0.000 A 
ATOM      3  C   UNL     1       2.141   8.624  17.914  0.00  0.00    +0.000 A 
ATOM      4  N   UNL     1       1.425   9.492  18.631  0.00  0.00    +0.000 NA
ATOM      5  C   UNL     1       1.181   9.172  19.910  0.00  0.00    +0.000 A 
ATOM      6  N   UNL     1       0.336  10.001  20.655  0.00  0.00    +0.000 N 
ATOM      7  N   UNL     1       1.671   8.081  20.509  0.00  0.00    +0.000 NA
ATOM      8  C   UNL     1       2.376   7.210  19.764  0.00  0.00    +0.000 A 
ATOM      9  H   UNL     1       0.165   9.565  21.552  0.00  0.00    +0.000 HD
ENDROOT
BRANCH   6  10
ATOM     10  C   UNL     1      -0.762  10.717  20.141  0.00  0.00    +0.000 A 
ATOM     11  C   UNL     1      -1.214  10.438  18.857  0.00  0.00    +0.000 A 
ATOM     12  C   UNL     1      -2.339  11.093  18.345  0.00  0.00    +0.000 A 
ATOM     13  C   UNL     1      -2.995  12.055  19.135  0.00  0.00    +0.000 A 
ATOM     14  C   UNL     1      -2.538  12.420  20.409  0.00  0.00    +0.000 A 
ATOM     15  C   UNL     1      -1.416  11.730  20.880  0.00  0.00    +0.000 A 
BRANCH  14  16
ATOM     16  N   UNL     1      -3.142  13.405  21.138  0.00  0.00    +0.000 N 
ATOM     17  C   UNL     1      -4.308  14.192  20.707  0.00  0.00    +0.000 C 
ATOM     18  C   UNL     1      -4.678  14.943  22.026  0.00  0.00    +0.000 C 
ATOM     19  C   UNL     1      -3.275  15.275  22.531  0.00  0.00    +0.000 C 
ATOM     20  C   UNL     1      -2.857  13.802  22.538  0.00  0.00    +0.000 C 
ATOM     21  C   UNL     1      -3.956  13.217  23.454  0.00  0.00    +0.000 C 
ATOM     22  N   UNL     1      -5.153  14.056  23.137  0.00  0.00    +0.000 NA
ATOM     23  C   UNL     1      -6.294  13.227  22.764  0.00  0.00    +0.000 C 
ENDBRANCH  14  16
BRANCH  12  24
ATOM     24  C   UNL     1      -2.868  10.731  16.985  0.00  0.00    +0.000 C 
ATOM     25  F   UNL     1      -3.348   9.457  16.918  0.00  0.00    +0.000 F 
ATOM     26  F   UNL     1      -3.897  11.531  16.585  0.00  0.00    +0.000 F 
ENDBRANCH  12  24
ENDBRANCH   6  10
BRANCH   8  27
ATOM     27  N   UNL     1       2.872   6.030  20.360  0.00  0.00    +0.000 N 
ATOM     28  H   UNL     1       3.861   6.099  20.549  0.00  0.00    +0.000 HD
BRANCH  27  29
ATOM     29  C   UNL     1       2.425   4.707  20.155  0.00  0.00    +0.000 A 
ATOM     30  C   UNL     1       1.099   4.364  20.442  0.00  0.00    +0.000 A 
ATOM     31  C   UNL     1       0.597   3.105  20.107  0.00  0.00    +0.000 A 
ATOM     32  C   UNL     1       1.410   2.181  19.450  0.00  0.00    +0.000 A 
ATOM     33  C   UNL     1       2.747   2.491  19.170  0.00  0.00    +0.000 A 
ATOM     34  C   UNL     1       3.251   3.741  19.560  0.00  0.00    +0.000 A 
BRANCH  33  35
ATOM     35  C   UNL     1       3.593   1.553  18.352  0.00  0.00    +0.000 C 
BRANCH  35  36
ATOM     36  O   UNL     1       4.427   2.264  17.449  0.00  0.00    +0.000 OA
ATOM     37  H   UNL     1       5.142   2.649  17.985  0.00  0.00    +0.000 HD
ENDBRANCH  35  36
ENDBRANCH  33  35
ENDBRANCH  27  29
ENDBRANCH   8  27
TORSDOF 7
ENDMDL
MODEL 9
REMARK VINA RESULT:      -8.6      2.611      3.375
REMARK  Name = 
REMARK  9 active torsions:
REMARK  status: ('A' for Active; 'I' for Inactive)
REMARK    1  A    between atoms: C_1  and  C_2
REMARK    2  A    between atoms: N_6  and  C_7
REMARK    3  A    between atoms: C_9  and  C_10
REMARK    4  A    between atoms: C_14  and  N_15
REMARK    5  A    between atoms: N_21  and  C_22
REMARK    6  A    between atoms: C_25  and  N_26
REMARK    7  A    between atoms: N_26  and  C_27
REMARK    8  A    between atoms: C_31  and  C_32
REMARK    9  A    between atoms: C_32  and  O_33
REMARK                            x       y       z     vdW  Elec       q    Type
REMARK                         _______ _______ _______ _____ _____    ______ ____
ROOT
ATOM      1  C   UNL     1      -0.437  10.156  20.468  0.00  0.00    +0.000 C 
ATOM      2  C   UNL     1       0.687   9.653  19.625  0.00  0.00    +0.000 A 
ATOM      3  C   UNL     1       1.347   8.502  19.985  0.00  0.00    +0.000 A 
ATOM      4  N   UNL     1       2.361   7.982  19.290  0.00  0.00    +0.000 NA
ATOM      5  C   UNL     1       2.751   8.644  18.192  0.00  0.00    +0.000 A 
ATOM      6  N   UNL     1       3.729   8.065  17.377  0.00  0.00    +0.000 N 
ATOM      7  N   UNL     1       2.231   9.815  17.806  0.00  0.00    +0.000 NA
ATOM      8  C   UNL     1       1.200  10.314  18.511  0.00  0.00    +0.000 A 
ATOM      9  H   UNL     1       3.828   8.628  16.541  0.00  0.00    +0.000 HD
ENDROOT
BRANCH   6  10
ATOM     10  C   UNL     1       3.903   6.684  17.169  0.00  0.00    +0.000 A 
ATOM     11  C   UNL     1       4.869   6.249  16.268  0.00  0.00    +0.000 A 
ATOM     12  C   UNL     1       5.103   4.883  16.085  0.00  0.00    +0.000 A 
ATOM     13  C   UNL     1       4.334   3.951  16.806  0.00  0.00    +0.000 A 
ATOM     14  C   UNL     1       3.304   4.336  17.675  0.00  0.00    +0.000 A 
ATOM     15  C   UNL     1       3.116   5.714  17.830  0.00  0.00    +0.000 A 
BRANCH  14  16
ATOM     16  N   UNL     1       2.518   3.420  18.316  0.00  0.00    +0.000 N 
ATOM     17  C   UNL     1       2.990   2.162  18.914  0.00  0.00    +0.000 C 
ATOM     18  C   UNL     1       1.720   1.696  19.697  0.00  0.00    +0.000 C 
ATOM     19  C   UNL     1       0.644   2.076  18.682  0.00  0.00    +0.000 C 
ATOM     20  C   UNL     1       1.082   3.543  18.665  0.00  0.00    +0.000 C 
ATOM     21  C   UNL     1       0.963   3.874  20.170  0.00  0.00    +0.000 C 
ATOM     22  N   UNL     1       1.331   2.587  20.838  0.00  0.00    +0.000 NA
ATOM     23  C   UNL     1       2.402   2.783  21.808  0.00  0.00    +0.000 C 
ENDBRANCH  14  16
BRANCH  12  24
ATOM     24  C   UNL     1       6.200   4.422  15.167  0.00  0.00    +0.000 C 
ATOM     25  F   UNL     1       5.740   3.962  13.970  0.00  0.00    +0.000 F 
ATOM     26  F   UNL     1       7.088   5.410  14.863  0.00  0.00    +0.000 F 
ENDBRANCH  12  24
ENDBRANCH   6  10
BRANCH   8  27
ATOM     27  N   UNL     1       0.605  11.529  18.103  0.00  0.00    +0.000 N 
ATOM     28  H   UNL     1       0.263  11.471  17.156  0.00  0.00    +0.000 HD
BRANCH  27  29
ATOM     29  C   UNL     1       0.956  12.837  18.501  0.00  0.00    +0.000 A 
ATOM     30  C   UNL     1       2.194  13.372  18.128  0.00  0.00    +0.000 A 
ATOM     31  C   UNL     1       2.500  14.711  18.380  0.00  0.00    +0.000 A 
ATOM     32  C   UNL     1       1.555  15.541  18.984  0.00  0.00    +0.000 A 
ATOM     33  C   UNL     1       0.316  15.025  19.386  0.00  0.00    +0.000 A 
ATOM     34  C   UNL     1       0.044  13.665  19.172  0.00  0.00    +0.000 A 
BRANCH  33  35
ATOM     35  C   UNL     1      -0.754  15.939  19.921  0.00  0.00    +0.000 C 
BRANCH  35  36
ATOM     36  O   UNL     1      -2.033  15.327  19.859  0.00  0.00    +0.000 OA
ATOM     37  H   UNL     1      -2.395  15.359  20.761  0.00  0.00    +0.000 HD
ENDBRANCH  35  36
ENDBRANCH  33  35
ENDBRANCH  27  29
ENDBRANCH   8  27
TORSDOF 7
ENDMDL
