MODEL 1
REMARK VINA RESULT:      -7.1      0.000      0.000
REMARK  Name = 
REMARK  17 active torsions:
REMARK  status: ('A' for Active; 'I' for Inactive)
REMARK    1  A    between atoms: C_1  and  C_2
REMARK    2  A    between atoms: C_2  and  N_3
REMARK    3  A    between atoms: N_3  and  C_4
REMARK    4  A    between atoms: N_3  and  C_6
REMARK    5  A    between atoms: C_4  and  C_5
REMARK    6  A    between atoms: C_6  and  C_7
REMARK    7  A    between atoms: C_7  and  C_8
REMARK    8  A    between atoms: C_8  and  N_9
REMARK    9  A    between atoms: N_9  and  C_10
REMARK   10  A    between atoms: C_10  and  C_11
REMARK   11  A    between atoms: C_22  and  C_23
REMARK   12  A    between atoms: C_25  and  O_26
REMARK   13  A    between atoms: O_26  and  C_27
REMARK   14  A    between atoms: C_28  and  O_29
REMARK   15  A    between atoms: O_29  and  C_30
REMARK   16  A    between atoms: C_31  and  O_32
REMARK   17  A    between atoms: O_32  and  C_33
REMARK                            x       y       z     vdW  Elec       q    Type
REMARK                         _______ _______ _______ _____ _____    ______ ____
ROOT
ATOM      1  C   UNL     1       4.381   6.864  17.485  0.00  0.00    +0.000 A 
ATOM      2  C   UNL     1       4.479   5.624  18.116  0.00  0.00    +0.000 A 
ATOM      3  C   UNL     1       3.509   5.309  19.069  0.00  0.00    +0.000 A 
ATOM      4  C   UNL     1       2.530   6.258  19.353  0.00  0.00    +0.000 A 
ATOM      5  N   UNL     1       1.676   5.674  20.263  0.00  0.00    +0.000 N 
ATOM      6  C   UNL     1       2.114   4.427  20.631  0.00  0.00    +0.000 A 
ATOM      7  C   UNL     1       1.572   3.516  21.546  0.00  0.00    +0.000 A 
ATOM      8  C   UNL     1       2.229   2.286  21.695  0.00  0.00    +0.000 A 
ATOM      9  C   UNL     1       3.364   1.988  20.953  0.00  0.00    +0.000 A 
ATOM     10  C   UNL     1       3.885   2.912  20.039  0.00  0.00    +0.000 A 
ATOM     11  C   UNL     1       3.249   4.159  19.878  0.00  0.00    +0.000 A 
ATOM     12  C   UNL     1       2.515   7.521  18.749  0.00  0.00    +0.000 A 
ATOM     13  N   UNL     1       3.441   7.784  17.792  0.00  0.00    +0.000 NA
ATOM     14  H   UNL     1       0.830   6.104  20.617  0.00  0.00    +0.000 HD
ENDROOT
BRANCH  12  15
ATOM     15  C   UNL     1       1.596   8.602  19.104  0.00  0.00    +0.000 A 
ATOM     16  C   UNL     1       1.500   9.051  20.421  0.00  0.00    +0.000 A 
ATOM     17  C   UNL     1       0.637  10.084  20.788  0.00  0.00    +0.000 A 
ATOM     18  C   UNL     1      -0.168  10.703  19.810  0.00  0.00    +0.000 A 
ATOM     19  C   UNL     1      -0.076  10.281  18.466  0.00  0.00    +0.000 A 
ATOM     20  C   UNL     1       0.815   9.247  18.133  0.00  0.00    +0.000 A 
BRANCH  17  21
ATOM     21  O   UNL     1       0.530  10.518  22.090  0.00  0.00    +0.000 OA
ATOM     22  C   UNL     1      -0.168   9.649  22.982  0.00  0.00    +0.000 C 
ENDBRANCH  17  21
BRANCH  18  23
ATOM     23  O   UNL     1      -1.045  11.650  20.289  0.00  0.00    +0.000 OA
ATOM     24  C   UNL     1      -0.666  13.014  20.146  0.00  0.00    +0.000 C 
ENDBRANCH  18  23
BRANCH  19  25
ATOM     25  O   UNL     1      -0.895  10.875  17.541  0.00  0.00    +0.000 OA
ATOM     26  C   UNL     1      -2.056  10.169  17.118  0.00  0.00    +0.000 C 
ENDBRANCH  19  25
ENDBRANCH  12  15
BRANCH   1  27
ATOM     27  C   UNL     1       5.285   7.181  16.312  0.00  0.00    +0.000 C 
BRANCH  27  28
ATOM     28  N   UNL     1       5.075   6.288  15.160  0.00  0.00    +0.000 NA
ATOM     29  H   UNL     1       4.283   5.678  15.364  0.00  0.00    +0.000 HD
BRANCH  28  30
ATOM     30  C   UNL     1       6.260   5.468  14.888  0.00  0.00    +0.000 C 
BRANCH  30  31
ATOM     31  C   UNL     1       5.811   4.067  14.474  0.00  0.00    +0.000 C 
BRANCH  31  32
ATOM     32  C   UNL     1       6.524   3.632  13.190  0.00  0.00    +0.000 C 
BRANCH  32  33
ATOM     33  N   UNL     1       5.675   2.889  12.238  0.00  0.00    +0.000 NA
BRANCH  33  35
ATOM     34  C   UNL     1       3.587   3.132  10.831  0.00  0.00    +0.000 C 
ATOM     35  C   UNL     1       4.666   3.806  11.672  0.00  0.00    +0.000 C 
ENDBRANCH  33  35
BRANCH  33  36
ATOM     36  C   UNL     1       6.429   2.134  11.227  0.00  0.00    +0.000 C 
ATOM     37  C   UNL     1       6.159   0.634  11.173  0.00  0.00    +0.000 C 
ENDBRANCH  33  36
ENDBRANCH  32  33
ENDBRANCH  31  32
ENDBRANCH  30  31
ENDBRANCH  28  30
ENDBRANCH  27  28
ENDBRANCH   1  27
TORSDOF 12
ENDMDL
MODEL 2
REMARK VINA RESULT:      -7.0      4.527      8.444
REMARK  Name = 
REMARK  17 active torsions:
REMARK  status: ('A' for Active; 'I' for Inactive)
REMARK    1  A    between atoms: C_1  and  C_2
REMARK    2  A    between atoms: C_2  and  N_3
REMARK    3  A    between atoms: N_3  and  C_4
REMARK    4  A    between atoms: N_3  and  C_6
REMARK    5  A    between atoms: C_4  and  C_5
REMARK    6  A    between atoms: C_6  and  C_7
REMARK    7  A    between atoms: C_7  and  C_8
REMARK    8  A    between atoms: C_8  and  N_9
REMARK    9  A    between atoms: N_9  and  C_10
REMARK   10  A    between atoms: C_10  and  C_11
REMARK   11  A    between atoms: C_22  and  C_23
REMARK   12  A    between atoms: C_25  and  O_26
REMARK   13  A    between atoms: O_26  and  C_27
REMARK   14  A    between atoms: C_28  and  O_29
REMARK   15  A    between atoms: O_29  and  C_30
REMARK   16  A    between atoms: C_31  and  O_32
REMARK   17  A    between atoms: O_32  and  C_33
REMARK                            x       y       z     vdW  Elec       q    Type
REMARK                         _______ _______ _______ _____ _____    ______ ____
ROOT
ATOM      1  C   UNL     1       7.307   6.838  17.525  0.00  0.00    +0.000 A 
ATOM      2  C   UNL     1       7.672   6.420  16.245  0.00  0.00    +0.000 A 
ATOM      3  C   UNL     1       6.808   5.547  15.582  0.00  0.00    +0.000 A 
ATOM      4  C   UNL     1       5.660   5.123  16.247  0.00  0.00    +0.000 A 
ATOM      5  N   UNL     1       4.965   4.335  15.356  0.00  0.00    +0.000 N 
ATOM      6  C   UNL     1       5.659   4.174  14.183  0.00  0.00    +0.000 A 
ATOM      7  C   UNL     1       5.336   3.431  13.041  0.00  0.00    +0.000 A 
ATOM      8  C   UNL     1       6.237   3.480  11.966  0.00  0.00    +0.000 A 
ATOM      9  C   UNL     1       7.393   4.246  12.038  0.00  0.00    +0.000 A 
ATOM     10  C   UNL     1       7.693   4.985  13.188  0.00  0.00    +0.000 A 
ATOM     11  C   UNL     1       6.809   4.945  14.285  0.00  0.00    +0.000 A 
ATOM     12  C   UNL     1       5.373   5.508  17.561  0.00  0.00    +0.000 A 
ATOM     13  N   UNL     1       6.203   6.395  18.166  0.00  0.00    +0.000 NA
ATOM     14  H   UNL     1       4.056   3.926  15.536  0.00  0.00    +0.000 HD
ENDROOT
BRANCH  12  15
ATOM     15  C   UNL     1       4.258   4.991  18.354  0.00  0.00    +0.000 A 
ATOM     16  C   UNL     1       3.473   5.852  19.124  0.00  0.00    +0.000 A 
ATOM     17  C   UNL     1       2.399   5.388  19.885  0.00  0.00    +0.000 A 
ATOM     18  C   UNL     1       2.085   4.014  19.888  0.00  0.00    +0.000 A 
ATOM     19  C   UNL     1       2.850   3.125  19.102  0.00  0.00    +0.000 A 
ATOM     20  C   UNL     1       3.914   3.631  18.337  0.00  0.00    +0.000 A 
BRANCH  17  21
ATOM     21  O   UNL     1       1.633   6.233  20.656  0.00  0.00    +0.000 OA
ATOM     22  C   UNL     1       1.789   7.628  20.395  0.00  0.00    +0.000 C 
ENDBRANCH  17  21
BRANCH  18  23
ATOM     23  O   UNL     1       1.064   3.650  20.736  0.00  0.00    +0.000 OA
ATOM     24  C   UNL     1       1.413   2.859  21.867  0.00  0.00    +0.000 C 
ENDBRANCH  18  23
BRANCH  19  25
ATOM     25  O   UNL     1       2.546   1.790  19.149  0.00  0.00    +0.000 OA
ATOM     26  C   UNL     1       3.546   0.857  18.755  0.00  0.00    +0.000 C 
ENDBRANCH  19  25
ENDBRANCH  12  15
BRANCH   1  27
ATOM     27  C   UNL     1       8.101   7.928  18.212  0.00  0.00    +0.000 C 
BRANCH  27  28
ATOM     28  N   UNL     1       8.255   9.139  17.390  0.00  0.00    +0.000 NA
ATOM     29  H   UNL     1       9.124   9.063  16.860  0.00  0.00    +0.000 HD
BRANCH  28  30
ATOM     30  C   UNL     1       8.298  10.351  18.214  0.00  0.00    +0.000 C 
BRANCH  30  31
ATOM     31  C   UNL     1       9.386  10.193  19.276  0.00  0.00    +0.000 C 
BRANCH  31  32
ATOM     32  C   UNL     1      10.207  11.481  19.400  0.00  0.00    +0.000 C 
BRANCH  32  33
ATOM     33  N   UNL     1       9.553  12.681  18.841  0.00  0.00    +0.000 NA
BRANCH  33  35
ATOM     34  C   UNL     1      10.205  13.685  21.068  0.00  0.00    +0.000 C 
ATOM     35  C   UNL     1       9.180  13.587  19.944  0.00  0.00    +0.000 C 
ENDBRANCH  33  35
BRANCH  33  36
ATOM     36  C   UNL     1      10.317  13.331  17.766  0.00  0.00    +0.000 C 
ATOM     37  C   UNL     1      11.651  12.686  17.408  0.00  0.00    +0.000 C 
ENDBRANCH  33  36
ENDBRANCH  32  33
ENDBRANCH  31  32
ENDBRANCH  30  31
ENDBRANCH  28  30
ENDBRANCH  27  28
ENDBRANCH   1  27
TORSDOF 12
ENDMDL
MODEL 3
REMARK VINA RESULT:      -6.9      4.672      8.598
REMARK  Name = 
REMARK  17 active torsions:
REMARK  status: ('A' for Active; 'I' for Inactive)
REMARK    1  A    between atoms: C_1  and  C_2
REMARK    2  A    between atoms: C_2  and  N_3
REMARK    3  A    between atoms: N_3  and  C_4
REMARK    4  A    between atoms: N_3  and  C_6
REMARK    5  A    between atoms: C_4  and  C_5
REMARK    6  A    between atoms: C_6  and  C_7
REMARK    7  A    between atoms: C_7  and  C_8
REMARK    8  A    between atoms: C_8  and  N_9
REMARK    9  A    between atoms: N_9  and  C_10
REMARK   10  A    between atoms: C_10  and  C_11
REMARK   11  A    between atoms: C_22  and  C_23
REMARK   12  A    between atoms: C_25  and  O_26
REMARK   13  A    between atoms: O_26  and  C_27
REMARK   14  A    between atoms: C_28  and  O_29
REMARK   15  A    between atoms: O_29  and  C_30
REMARK   16  A    between atoms: C_31  and  O_32
REMARK   17  A    between atoms: O_32  and  C_33
REMARK                            x       y       z     vdW  Elec       q    Type
REMARK                         _______ _______ _______ _____ _____    ______ ____
ROOT
ATOM      1  C   UNL     1       7.422   6.716  17.657  0.00  0.00    +0.000 A 
ATOM      2  C   UNL     1       7.761   6.326  16.360  0.00  0.00    +0.000 A 
ATOM      3  C   UNL     1       6.855   5.515  15.674  0.00  0.00    +0.000 A 
ATOM      4  C   UNL     1       5.692   5.122  16.332  0.00  0.00    +0.000 A 
ATOM      5  N   UNL     1       4.957   4.397  15.420  0.00  0.00    +0.000 N 
ATOM      6  C   UNL     1       5.637   4.244  14.238  0.00  0.00    +0.000 A 
ATOM      7  C   UNL     1       5.275   3.555  13.074  0.00  0.00    +0.000 A 
ATOM      8  C   UNL     1       6.172   3.599  11.995  0.00  0.00    +0.000 A 
ATOM      9  C   UNL     1       7.362   4.309  12.085  0.00  0.00    +0.000 A 
ATOM     10  C   UNL     1       7.701   4.995  13.257  0.00  0.00    +0.000 A 
ATOM     11  C   UNL     1       6.822   4.958  14.358  0.00  0.00    +0.000 A 
ATOM     12  C   UNL     1       5.429   5.475  17.661  0.00  0.00    +0.000 A 
ATOM     13  N   UNL     1       6.302   6.302  18.290  0.00  0.00    +0.000 NA
ATOM     14  H   UNL     1       4.032   4.024  15.593  0.00  0.00    +0.000 HD
ENDROOT
BRANCH  12  15
ATOM     15  C   UNL     1       4.295   4.983  18.443  0.00  0.00    +0.000 A 
ATOM     16  C   UNL     1       3.503   5.865  19.180  0.00  0.00    +0.000 A 
ATOM     17  C   UNL     1       2.412   5.425  19.931  0.00  0.00    +0.000 A 
ATOM     18  C   UNL     1       2.087   4.054  19.956  0.00  0.00    +0.000 A 
ATOM     19  C   UNL     1       2.860   3.143  19.203  0.00  0.00    +0.000 A 
ATOM     20  C   UNL     1       3.942   3.625  18.448  0.00  0.00    +0.000 A 
BRANCH  17  21
ATOM     21  O   UNL     1       1.638   6.292  20.669  0.00  0.00    +0.000 OA
ATOM     22  C   UNL     1       1.804   7.679  20.376  0.00  0.00    +0.000 C 
ENDBRANCH  17  21
BRANCH  18  23
ATOM     23  O   UNL     1       1.048   3.715  20.793  0.00  0.00    +0.000 OA
ATOM     24  C   UNL     1       1.333   2.791  21.837  0.00  0.00    +0.000 C 
ENDBRANCH  18  23
BRANCH  19  25
ATOM     25  O   UNL     1       2.544   1.811  19.272  0.00  0.00    +0.000 OA
ATOM     26  C   UNL     1       3.513   0.866  18.831  0.00  0.00    +0.000 C 
ENDBRANCH  19  25
ENDBRANCH  12  15
BRANCH   1  27
ATOM     27  C   UNL     1       8.268   7.745  18.375  0.00  0.00    +0.000 C 
BRANCH  27  28
ATOM     28  N   UNL     1       8.065   9.115  17.874  0.00  0.00    +0.000 NA
ATOM     29  H   UNL     1       8.231   9.119  16.867  0.00  0.00    +0.000 HD
BRANCH  28  30
ATOM     30  C   UNL     1       8.975  10.067  18.518  0.00  0.00    +0.000 C 
BRANCH  30  31
ATOM     31  C   UNL     1       8.729  11.460  17.940  0.00  0.00    +0.000 C 
BRANCH  31  32
ATOM     32  C   UNL     1      10.047  12.230  17.812  0.00  0.00    +0.000 C 
BRANCH  32  33
ATOM     33  N   UNL     1      10.223  13.314  18.798  0.00  0.00    +0.000 NA
BRANCH  33  35
ATOM     34  C   UNL     1       9.898  15.631  17.840  0.00  0.00    +0.000 C 
ATOM     35  C   UNL     1      10.847  14.475  18.136  0.00  0.00    +0.000 C 
ENDBRANCH  33  35
BRANCH  33  36
ATOM     36  C   UNL     1       9.004  13.640  19.552  0.00  0.00    +0.000 C 
ATOM     37  C   UNL     1       9.117  13.573  21.071  0.00  0.00    +0.000 C 
ENDBRANCH  33  36
ENDBRANCH  32  33
ENDBRANCH  31  32
ENDBRANCH  30  31
ENDBRANCH  28  30
ENDBRANCH  27  28
ENDBRANCH   1  27
TORSDOF 12
ENDMDL
MODEL 4
REMARK VINA RESULT:      -6.9      0.890      2.483
REMARK  Name = 
REMARK  17 active torsions:
REMARK  status: ('A' for Active; 'I' for Inactive)
REMARK    1  A    between atoms: C_1  and  C_2
REMARK    2  A    between atoms: C_2  and  N_3
REMARK    3  A    between atoms: N_3  and  C_4
REMARK    4  A    between atoms: N_3  and  C_6
REMARK    5  A    between atoms: C_4  and  C_5
REMARK    6  A    between atoms: C_6  and  C_7
REMARK    7  A    between atoms: C_7  and  C_8
REMARK    8  A    between atoms: C_8  and  N_9
REMARK    9  A    between atoms: N_9  and  C_10
REMARK   10  A    between atoms: C_10  and  C_11
REMARK   11  A    between atoms: C_22  and  C_23
REMARK   12  A    between atoms: C_25  and  O_26
REMARK   13  A    between atoms: O_26  and  C_27
REMARK   14  A    between atoms: C_28  and  O_29
REMARK   15  A    between atoms: O_29  and  C_30
REMARK   16  A    between atoms: C_31  and  O_32
REMARK   17  A    between atoms: O_32  and  C_33
REMARK                            x       y       z     vdW  Elec       q    Type
REMARK                         _______ _______ _______ _____ _____    ______ ____
ROOT
ATOM      1  C   UNL     1       4.033   6.996  17.277  0.00  0.00    +0.000 A 
ATOM      2  C   UNL     1       4.183   5.743  17.873  0.00  0.00    +0.000 A 
ATOM      3  C   UNL     1       3.351   5.441  18.953  0.00  0.00    +0.000 A 
ATOM      4  C   UNL     1       2.453   6.414  19.386  0.00  0.00    +0.000 A 
ATOM      5  N   UNL     1       1.722   5.840  20.403  0.00  0.00    +0.000 N 
ATOM      6  C   UNL     1       2.170   4.575  20.689  0.00  0.00    +0.000 A 
ATOM      7  C   UNL     1       1.737   3.666  21.662  0.00  0.00    +0.000 A 
ATOM      8  C   UNL     1       2.371   2.415  21.701  0.00  0.00    +0.000 A 
ATOM      9  C   UNL     1       3.377   2.096  20.798  0.00  0.00    +0.000 A 
ATOM     10  C   UNL     1       3.789   3.019  19.829  0.00  0.00    +0.000 A 
ATOM     11  C   UNL     1       3.175   4.286  19.777  0.00  0.00    +0.000 A 
ATOM     12  C   UNL     1       2.391   7.686  18.806  0.00  0.00    +0.000 A 
ATOM     13  N   UNL     1       3.176   7.938  17.728  0.00  0.00    +0.000 NA
ATOM     14  H   UNL     1       0.950   6.289  20.881  0.00  0.00    +0.000 HD
ENDROOT
BRANCH  12  15
ATOM     15  C   UNL     1       1.567   8.787  19.302  0.00  0.00    +0.000 A 
ATOM     16  C   UNL     1       0.831   9.579  18.420  0.00  0.00    +0.000 A 
ATOM     17  C   UNL     1       0.031  10.633  18.865  0.00  0.00    +0.000 A 
ATOM     18  C   UNL     1      -0.046  10.918  20.244  0.00  0.00    +0.000 A 
ATOM     19  C   UNL     1       0.673  10.120  21.159  0.00  0.00    +0.000 A 
ATOM     20  C   UNL     1       1.456   9.059  20.675  0.00  0.00    +0.000 A 
BRANCH  17  21
ATOM     21  O   UNL     1      -0.685  11.423  17.995  0.00  0.00    +0.000 OA
ATOM     22  C   UNL     1      -1.876  10.845  17.463  0.00  0.00    +0.000 C 
ENDBRANCH  17  21
BRANCH  18  23
ATOM     23  O   UNL     1      -0.793  12.028  20.569  0.00  0.00    +0.000 OA
ATOM     24  C   UNL     1      -2.083  11.800  21.124  0.00  0.00    +0.000 C 
ENDBRANCH  18  23
BRANCH  19  25
ATOM     25  O   UNL     1       0.608  10.440  22.491  0.00  0.00    +0.000 OA
ATOM     26  C   UNL     1      -0.066   9.543  23.366  0.00  0.00    +0.000 C 
ENDBRANCH  19  25
ENDBRANCH  12  15
BRANCH   1  27
ATOM     27  C   UNL     1       4.768   7.305  15.990  0.00  0.00    +0.000 C 
BRANCH  27  28
ATOM     28  N   UNL     1       5.375   6.117  15.369  0.00  0.00    +0.000 NA
ATOM     29  H   UNL     1       4.745   5.325  15.501  0.00  0.00    +0.000 HD
BRANCH  28  30
ATOM     30  C   UNL     1       6.678   5.801  15.963  0.00  0.00    +0.000 C 
BRANCH  30  31
ATOM     31  C   UNL     1       7.089   4.391  15.540  0.00  0.00    +0.000 C 
BRANCH  31  32
ATOM     32  C   UNL     1       6.077   3.811  14.548  0.00  0.00    +0.000 C 
BRANCH  32  33
ATOM     33  N   UNL     1       6.334   4.157  13.136  0.00  0.00    +0.000 NA
BRANCH  33  35
ATOM     34  C   UNL     1       7.950   5.849  12.176  0.00  0.00    +0.000 C 
ATOM     35  C   UNL     1       7.741   4.575  12.989  0.00  0.00    +0.000 C 
ENDBRANCH  33  35
BRANCH  33  36
ATOM     36  C   UNL     1       5.915   3.122  12.180  0.00  0.00    +0.000 C 
ATOM     37  C   UNL     1       4.504   3.262  11.617  0.00  0.00    +0.000 C 
ENDBRANCH  33  36
ENDBRANCH  32  33
ENDBRANCH  31  32
ENDBRANCH  30  31
ENDBRANCH  28  30
ENDBRANCH  27  28
ENDBRANCH   1  27
TORSDOF 12
ENDMDL
MODEL 5
REMARK VINA RESULT:      -6.8      4.807      8.653
REMARK  Name = 
REMARK  17 active torsions:
REMARK  status: ('A' for Active; 'I' for Inactive)
REMARK    1  A    between atoms: C_1  and  C_2
REMARK    2  A    between atoms: C_2  and  N_3
REMARK    3  A    between atoms: N_3  and  C_4
REMARK    4  A    between atoms: N_3  and  C_6
REMARK    5  A    between atoms: C_4  and  C_5
REMARK    6  A    between atoms: C_6  and  C_7
REMARK    7  A    between atoms: C_7  and  C_8
REMARK    8  A    between atoms: C_8  and  N_9
REMARK    9  A    between atoms: N_9  and  C_10
REMARK   10  A    between atoms: C_10  and  C_11
REMARK   11  A    between atoms: C_22  and  C_23
REMARK   12  A    between atoms: C_25  and  O_26
REMARK   13  A    between atoms: O_26  and  C_27
REMARK   14  A    between atoms: C_28  and  O_29
REMARK   15  A    between atoms: O_29  and  C_30
REMARK   16  A    between atoms: C_31  and  O_32
REMARK   17  A    between atoms: O_32  and  C_33
REMARK                            x       y       z     vdW  Elec       q    Type
REMARK                         _______ _______ _______ _____ _____    ______ ____
ROOT
ATOM      1  C   UNL     1       7.393   6.729  17.786  0.00  0.00    +0.000 A 
ATOM      2  C   UNL     1       7.761   6.365  16.490  0.00  0.00    +0.000 A 
ATOM      3  C   UNL     1       6.881   5.549  15.776  0.00  0.00    +0.000 A 
ATOM      4  C   UNL     1       5.715   5.124  16.409  0.00  0.00    +0.000 A 
ATOM      5  N   UNL     1       5.009   4.399  15.474  0.00  0.00    +0.000 N 
ATOM      6  C   UNL     1       5.710   4.277  14.301  0.00  0.00    +0.000 A 
ATOM      7  C   UNL     1       5.380   3.601  13.121  0.00  0.00    +0.000 A 
ATOM      8  C   UNL     1       6.293   3.678  12.058  0.00  0.00    +0.000 A 
ATOM      9  C   UNL     1       7.468   4.408  12.178  0.00  0.00    +0.000 A 
ATOM     10  C   UNL     1       7.775   5.082  13.366  0.00  0.00    +0.000 A 
ATOM     11  C   UNL     1       6.879   5.012  14.452  0.00  0.00    +0.000 A 
ATOM     12  C   UNL     1       5.424   5.451  17.739  0.00  0.00    +0.000 A 
ATOM     13  N   UNL     1       6.271   6.284  18.394  0.00  0.00    +0.000 NA
ATOM     14  H   UNL     1       4.088   4.006  15.626  0.00  0.00    +0.000 HD
ENDROOT
BRANCH  12  15
ATOM     15  C   UNL     1       4.288   4.926  18.494  0.00  0.00    +0.000 A 
ATOM     16  C   UNL     1       4.031   3.555  18.533  0.00  0.00    +0.000 A 
ATOM     17  C   UNL     1       2.957   3.025  19.251  0.00  0.00    +0.000 A 
ATOM     18  C   UNL     1       2.098   3.886  19.963  0.00  0.00    +0.000 A 
ATOM     19  C   UNL     1       2.348   5.276  19.956  0.00  0.00    +0.000 A 
ATOM     20  C   UNL     1       3.446   5.771  19.234  0.00  0.00    +0.000 A 
BRANCH  17  21
ATOM     21  O   UNL     1       2.694   1.674  19.278  0.00  0.00    +0.000 OA
ATOM     22  C   UNL     1       3.660   0.838  18.641  0.00  0.00    +0.000 C 
ENDBRANCH  17  21
BRANCH  18  23
ATOM     23  O   UNL     1       1.024   3.272  20.565  0.00  0.00    +0.000 OA
ATOM     24  C   UNL     1       1.257   2.645  21.821  0.00  0.00    +0.000 C 
ENDBRANCH  18  23
BRANCH  19  25
ATOM     25  O   UNL     1       1.478   6.095  20.628  0.00  0.00    +0.000 OA
ATOM     26  C   UNL     1       1.827   7.466  20.782  0.00  0.00    +0.000 C 
ENDBRANCH  19  25
ENDBRANCH  12  15
BRANCH   1  27
ATOM     27  C   UNL     1       8.208   7.762  18.533  0.00  0.00    +0.000 C 
BRANCH  27  28
ATOM     28  N   UNL     1       8.017   9.130  18.025  0.00  0.00    +0.000 NA
ATOM     29  H   UNL     1       8.111   9.114  17.009  0.00  0.00    +0.000 HD
BRANCH  28  30
ATOM     30  C   UNL     1       9.003  10.059  18.586  0.00  0.00    +0.000 C 
BRANCH  30  31
ATOM     31  C   UNL     1       8.935  11.380  17.820  0.00  0.00    +0.000 C 
BRANCH  31  32
ATOM     32  C   UNL     1      10.032  12.336  18.300  0.00  0.00    +0.000 C 
BRANCH  32  33
ATOM     33  N   UNL     1      10.072  13.630  17.590  0.00  0.00    +0.000 NA
BRANCH  33  35
ATOM     34  C   UNL     1       9.198  14.483  19.804  0.00  0.00    +0.000 C 
ATOM     35  C   UNL     1       9.190  14.589  18.283  0.00  0.00    +0.000 C 
ENDBRANCH  33  35
BRANCH  33  36
ATOM     36  C   UNL     1      11.430  14.136  17.345  0.00  0.00    +0.000 C 
ATOM     37  C   UNL     1      11.550  15.634  17.085  0.00  0.00    +0.000 C 
ENDBRANCH  33  36
ENDBRANCH  32  33
ENDBRANCH  31  32
ENDBRANCH  30  31
ENDBRANCH  28  30
ENDBRANCH  27  28
ENDBRANCH   1  27
TORSDOF 12
ENDMDL
MODEL 6
REMARK VINA RESULT:      -6.7      3.522      7.416
REMARK  Name = 
REMARK  17 active torsions:
REMARK  status: ('A' for Active; 'I' for Inactive)
REMARK    1  A    between atoms: C_1  and  C_2
REMARK    2  A    between atoms: C_2  and  N_3
REMARK    3  A    between atoms: N_3  and  C_4
REMARK    4  A    between atoms: N_3  and  C_6
REMARK    5  A    between atoms: C_4  and  C_5
REMARK    6  A    between atoms: C_6  and  C_7
REMARK    7  A    between atoms: C_7  and  C_8
REMARK    8  A    between atoms: C_8  and  N_9
REMARK    9  A    between atoms: N_9  and  C_10
REMARK   10  A    between atoms: C_10  and  C_11
REMARK   11  A    between atoms: C_22  and  C_23
REMARK   12  A    between atoms: C_25  and  O_26
REMARK   13  A    between atoms: O_26  and  C_27
REMARK   14  A    between atoms: C_28  and  O_29
REMARK   15  A    between atoms: O_29  and  C_30
REMARK   16  A    between atoms: C_31  and  O_32
REMARK   17  A    between atoms: O_32  and  C_33
REMARK                            x       y       z     vdW  Elec       q    Type
REMARK                         _______ _______ _______ _____ _____    ______ ____
ROOT
ATOM      1  C   UNL     1       0.402   9.866  20.713  0.00  0.00    +0.000 A 
ATOM      2  C   UNL     1      -0.196   9.581  19.484  0.00  0.00    +0.000 A 
ATOM      3  C   UNL     1      -1.278  10.372  19.097  0.00  0.00    +0.000 A 
ATOM      4  C   UNL     1      -1.712  11.368  19.967  0.00  0.00    +0.000 A 
ATOM      5  N   UNL     1      -2.733  12.031  19.321  0.00  0.00    +0.000 N 
ATOM      6  C   UNL     1      -3.020  11.448  18.112  0.00  0.00    +0.000 A 
ATOM      7  C   UNL     1      -3.996  11.777  17.163  0.00  0.00    +0.000 A 
ATOM      8  C   UNL     1      -4.035  11.012  15.988  0.00  0.00    +0.000 A 
ATOM      9  C   UNL     1      -3.130   9.980  15.778  0.00  0.00    +0.000 A 
ATOM     10  C   UNL     1      -2.158   9.672  16.738  0.00  0.00    +0.000 A 
ATOM     11  C   UNL     1      -2.105  10.420  17.931  0.00  0.00    +0.000 A 
ATOM     12  C   UNL     1      -1.130  11.569  21.224  0.00  0.00    +0.000 A 
ATOM     13  N   UNL     1      -0.050  10.819  21.557  0.00  0.00    +0.000 NA
ATOM     14  H   UNL     1      -3.213  12.845  19.684  0.00  0.00    +0.000 HD
ENDROOT
BRANCH  12  15
ATOM     15  C   UNL     1      -1.627  12.506  22.231  0.00  0.00    +0.000 A 
ATOM     16  C   UNL     1      -0.781  13.465  22.790  0.00  0.00    +0.000 A 
ATOM     17  C   UNL     1      -1.229  14.376  23.748  0.00  0.00    +0.000 A 
ATOM     18  C   UNL     1      -2.572  14.340  24.174  0.00  0.00    +0.000 A 
ATOM     19  C   UNL     1      -3.453  13.392  23.610  0.00  0.00    +0.000 A 
ATOM     20  C   UNL     1      -2.970  12.501  22.638  0.00  0.00    +0.000 A 
BRANCH  17  21
ATOM     21  O   UNL     1      -0.392  15.313  24.310  0.00  0.00    +0.000 OA
ATOM     22  C   UNL     1      -0.003  16.392  23.459  0.00  0.00    +0.000 C 
ENDBRANCH  17  21
BRANCH  18  23
ATOM     23  O   UNL     1      -2.889  15.222  25.182  0.00  0.00    +0.000 OA
ATOM     24  C   UNL     1      -3.604  16.396  24.813  0.00  0.00    +0.000 C 
ENDBRANCH  18  23
BRANCH  19  25
ATOM     25  O   UNL     1      -4.745  13.355  24.067  0.00  0.00    +0.000 OA
ATOM     26  C   UNL     1      -5.155  12.229  24.835  0.00  0.00    +0.000 C 
ENDBRANCH  19  25
ENDBRANCH  12  15
BRANCH   1  27
ATOM     27  C   UNL     1       1.692   9.173  21.096  0.00  0.00    +0.000 C 
BRANCH  27  28
ATOM     28  N   UNL     1       1.583   7.705  21.100  0.00  0.00    +0.000 NA
ATOM     29  H   UNL     1       1.976   7.353  21.973  0.00  0.00    +0.000 HD
BRANCH  28  30
ATOM     30  C   UNL     1       2.301   7.106  19.970  0.00  0.00    +0.000 C 
BRANCH  30  31
ATOM     31  C   UNL     1       2.151   5.586  20.034  0.00  0.00    +0.000 C 
BRANCH  31  32
ATOM     32  C   UNL     1       2.315   4.971  18.641  0.00  0.00    +0.000 C 
BRANCH  32  33
ATOM     33  N   UNL     1       3.690   4.542  18.317  0.00  0.00    +0.000 NA
BRANCH  33  35
ATOM     34  C   UNL     1       2.316   2.477  17.822  0.00  0.00    +0.000 C 
ATOM     35  C   UNL     1       3.694   3.091  18.051  0.00  0.00    +0.000 C 
ENDBRANCH  33  35
BRANCH  33  36
ATOM     36  C   UNL     1       4.336   5.343  17.268  0.00  0.00    +0.000 C 
ATOM     37  C   UNL     1       5.034   4.560  16.161  0.00  0.00    +0.000 C 
ENDBRANCH  33  36
ENDBRANCH  32  33
ENDBRANCH  31  32
ENDBRANCH  30  31
ENDBRANCH  28  30
ENDBRANCH  27  28
ENDBRANCH   1  27
TORSDOF 12
ENDMDL
MODEL 7
REMARK VINA RESULT:      -6.7      3.344      7.591
REMARK  Name = 
REMARK  17 active torsions:
REMARK  status: ('A' for Active; 'I' for Inactive)
REMARK    1  A    between atoms: C_1  and  C_2
REMARK    2  A    between atoms: C_2  and  N_3
REMARK    3  A    between atoms: N_3  and  C_4
REMARK    4  A    between atoms: N_3  and  C_6
REMARK    5  A    between atoms: C_4  and  C_5
REMARK    6  A    between atoms: C_6  and  C_7
REMARK    7  A    between atoms: C_7  and  C_8
REMARK    8  A    between atoms: C_8  and  N_9
REMARK    9  A    between atoms: N_9  and  C_10
REMARK   10  A    between atoms: C_10  and  C_11
REMARK   11  A    between atoms: C_22  and  C_23
REMARK   12  A    between atoms: C_25  and  O_26
REMARK   13  A    between atoms: O_26  and  C_27
REMARK   14  A    between atoms: C_28  and  O_29
REMARK   15  A    between atoms: O_29  and  C_30
REMARK   16  A    between atoms: C_31  and  O_32
REMARK   17  A    between atoms: O_32  and  C_33
REMARK                            x       y       z     vdW  Elec       q    Type
REMARK                         _______ _______ _______ _____ _____    ______ ____
ROOT
ATOM      1  C   UNL     1       1.211  10.276  18.768  0.00  0.00    +0.000 A 
ATOM      2  C   UNL     1       2.067  11.378  18.784  0.00  0.00    +0.000 A 
ATOM      3  C   UNL     1       1.485  12.646  18.729  0.00  0.00    +0.000 A 
ATOM      4  C   UNL     1       0.099  12.731  18.627  0.00  0.00    +0.000 A 
ATOM      5  N   UNL     1      -0.211  14.073  18.656  0.00  0.00    +0.000 N 
ATOM      6  C   UNL     1       0.922  14.847  18.691  0.00  0.00    +0.000 A 
ATOM      7  C   UNL     1       1.062  16.240  18.694  0.00  0.00    +0.000 A 
ATOM      8  C   UNL     1       2.364  16.757  18.767  0.00  0.00    +0.000 A 
ATOM      9  C   UNL     1       3.463  15.912  18.845  0.00  0.00    +0.000 A 
ATOM     10  C   UNL     1       3.300  14.522  18.847  0.00  0.00    +0.000 A 
ATOM     11  C   UNL     1       2.003  13.978  18.764  0.00  0.00    +0.000 A 
ATOM     12  C   UNL     1      -0.716  11.596  18.536  0.00  0.00    +0.000 A 
ATOM     13  N   UNL     1      -0.130  10.377  18.640  0.00  0.00    +0.000 NA
ATOM     14  H   UNL     1      -1.151  14.448  18.655  0.00  0.00    +0.000 HD
ENDROOT
BRANCH  12  15
ATOM     15  C   UNL     1      -2.158  11.625  18.294  0.00  0.00    +0.000 A 
ATOM     16  C   UNL     1      -2.680  11.238  17.059  0.00  0.00    +0.000 A 
ATOM     17  C   UNL     1      -4.052  11.249  16.801  0.00  0.00    +0.000 A 
ATOM     18  C   UNL     1      -4.949  11.660  17.807  0.00  0.00    +0.000 A 
ATOM     19  C   UNL     1      -4.448  12.037  19.072  0.00  0.00    +0.000 A 
ATOM     20  C   UNL     1      -3.063  11.999  19.299  0.00  0.00    +0.000 A 
BRANCH  17  21
ATOM     21  O   UNL     1      -4.567  10.882  15.579  0.00  0.00    +0.000 OA
ATOM     22  C   UNL     1      -3.650  10.266  14.675  0.00  0.00    +0.000 C 
ENDBRANCH  17  21
BRANCH  18  23
ATOM     23  O   UNL     1      -6.270  11.716  17.425  0.00  0.00    +0.000 OA
ATOM     24  C   UNL     1      -6.789  12.994  17.074  0.00  0.00    +0.000 C 
ENDBRANCH  18  23
BRANCH  19  25
ATOM     25  O   UNL     1      -5.339  12.465  20.022  0.00  0.00    +0.000 OA
ATOM     26  C   UNL     1      -4.834  12.830  21.302  0.00  0.00    +0.000 C 
ENDBRANCH  19  25
ENDBRANCH  12  15
BRANCH   1  27
ATOM     27  C   UNL     1       1.769   8.891  19.019  0.00  0.00    +0.000 C 
BRANCH  27  28
ATOM     28  N   UNL     1       2.071   8.154  17.781  0.00  0.00    +0.000 NA
ATOM     29  H   UNL     1       1.444   7.352  17.721  0.00  0.00    +0.000 HD
BRANCH  28  30
ATOM     30  C   UNL     1       3.460   7.684  17.756  0.00  0.00    +0.000 C 
BRANCH  30  31
ATOM     31  C   UNL     1       3.469   6.156  17.780  0.00  0.00    +0.000 C 
BRANCH  31  32
ATOM     32  C   UNL     1       4.906   5.627  17.757  0.00  0.00    +0.000 C 
BRANCH  32  33
ATOM     33  N   UNL     1       5.746   6.178  16.675  0.00  0.00    +0.000 NA
BRANCH  33  35
ATOM     34  C   UNL     1       7.642   7.584  17.581  0.00  0.00    +0.000 C 
ATOM     35  C   UNL     1       7.151   6.215  17.123  0.00  0.00    +0.000 C 
ENDBRANCH  33  35
BRANCH  33  36
ATOM     36  C   UNL     1       5.551   5.521  15.374  0.00  0.00    +0.000 C 
ATOM     37  C   UNL     1       6.347   4.240  15.144  0.00  0.00    +0.000 C 
ENDBRANCH  33  36
ENDBRANCH  32  33
ENDBRANCH  31  32
ENDBRANCH  30  31
ENDBRANCH  28  30
ENDBRANCH  27  28
ENDBRANCH   1  27
TORSDOF 12
ENDMDL
MODEL 8
REMARK VINA RESULT:      -6.6      3.868      8.224
REMARK  Name = 
REMARK  17 active torsions:
REMARK  status: ('A' for Active; 'I' for Inactive)
REMARK    1  A    between atoms: C_1  and  C_2
REMARK    2  A    between atoms: C_2  and  N_3
REMARK    3  A    between atoms: N_3  and  C_4
REMARK    4  A    between atoms: N_3  and  C_6
REMARK    5  A    between atoms: C_4  and  C_5
REMARK    6  A    between atoms: C_6  and  C_7
REMARK    7  A    between atoms: C_7  and  C_8
REMARK    8  A    between atoms: C_8  and  N_9
REMARK    9  A    between atoms: N_9  and  C_10
REMARK   10  A    between atoms: C_10  and  C_11
REMARK   11  A    between atoms: C_22  and  C_23
REMARK   12  A    between atoms: C_25  and  O_26
REMARK   13  A    between atoms: O_26  and  C_27
REMARK   14  A    between atoms: C_28  and  O_29
REMARK   15  A    between atoms: O_29  and  C_30
REMARK   16  A    between atoms: C_31  and  O_32
REMARK   17  A    between atoms: O_32  and  C_33
REMARK                            x       y       z     vdW  Elec       q    Type
REMARK                         _______ _______ _______ _____ _____    ______ ____
ROOT
ATOM      1  C   UNL     1       0.462  11.101  18.871  0.00  0.00    +0.000 A 
ATOM      2  C   UNL     1       1.243  12.234  18.640  0.00  0.00    +0.000 A 
ATOM      3  C   UNL     1       0.647  13.479  18.848  0.00  0.00    +0.000 A 
ATOM      4  C   UNL     1      -0.690  13.514  19.237  0.00  0.00    +0.000 A 
ATOM      5  N   UNL     1      -1.002  14.841  19.433  0.00  0.00    +0.000 N 
ATOM      6  C   UNL     1       0.053  15.656  19.108  0.00  0.00    +0.000 A 
ATOM      7  C   UNL     1       0.151  17.053  19.127  0.00  0.00    +0.000 A 
ATOM      8  C   UNL     1       1.384  17.617  18.767  0.00  0.00    +0.000 A 
ATOM      9  C   UNL     1       2.462  16.813  18.420  0.00  0.00    +0.000 A 
ATOM     10  C   UNL     1       2.344  15.418  18.415  0.00  0.00    +0.000 A 
ATOM     11  C   UNL     1       1.112  14.828  18.762  0.00  0.00    +0.000 A 
ATOM     12  C   UNL     1      -1.458  12.352  19.382  0.00  0.00    +0.000 A 
ATOM     13  N   UNL     1      -0.842  11.153  19.221  0.00  0.00    +0.000 NA
ATOM     14  H   UNL     1      -1.893  15.179  19.775  0.00  0.00    +0.000 HD
ENDROOT
BRANCH  12  15
ATOM     15  C   UNL     1      -2.894  12.333  19.657  0.00  0.00    +0.000 A 
ATOM     16  C   UNL     1      -3.381  12.667  20.921  0.00  0.00    +0.000 A 
ATOM     17  C   UNL     1      -4.746  12.664  21.210  0.00  0.00    +0.000 A 
ATOM     18  C   UNL     1      -5.673  12.314  20.207  0.00  0.00    +0.000 A 
ATOM     19  C   UNL     1      -5.208  11.990  18.914  0.00  0.00    +0.000 A 
ATOM     20  C   UNL     1      -3.827  12.019  18.657  0.00  0.00    +0.000 A 
BRANCH  17  21
ATOM     21  O   UNL     1      -5.227  12.980  22.460  0.00  0.00    +0.000 OA
ATOM     22  C   UNL     1      -4.800  14.233  22.995  0.00  0.00    +0.000 C 
ENDBRANCH  17  21
BRANCH  18  23
ATOM     23  O   UNL     1      -6.986  12.258  20.618  0.00  0.00    +0.000 OA
ATOM     24  C   UNL     1      -7.537  10.967  20.851  0.00  0.00    +0.000 C 
ENDBRANCH  18  23
BRANCH  19  25
ATOM     25  O   UNL     1      -6.127  11.621  17.967  0.00  0.00    +0.000 OA
ATOM     26  C   UNL     1      -6.750  12.644  17.199  0.00  0.00    +0.000 C 
ENDBRANCH  19  25
ENDBRANCH  12  15
BRANCH   1  27
ATOM     27  C   UNL     1       1.106   9.730  18.849  0.00  0.00    +0.000 C 
BRANCH  27  28
ATOM     28  N   UNL     1       1.832   9.450  17.600  0.00  0.00    +0.000 NA
ATOM     29  H   UNL     1       1.151   9.269  16.863  0.00  0.00    +0.000 HD
BRANCH  28  30
ATOM     30  C   UNL     1       2.716   8.288  17.737  0.00  0.00    +0.000 C 
BRANCH  30  31
ATOM     31  C   UNL     1       2.322   7.508  18.990  0.00  0.00    +0.000 C 
BRANCH  31  32
ATOM     32  C   UNL     1       3.140   6.217  19.099  0.00  0.00    +0.000 C 
BRANCH  32  33
ATOM     33  N   UNL     1       3.667   5.715  17.815  0.00  0.00    +0.000 NA
BRANCH  33  35
ATOM     34  C   UNL     1       5.735   4.844  18.981  0.00  0.00    +0.000 C 
ATOM     35  C   UNL     1       5.141   5.702  17.868  0.00  0.00    +0.000 C 
ENDBRANCH  33  35
BRANCH  33  36
ATOM     36  C   UNL     1       3.074   4.442  17.382  0.00  0.00    +0.000 C 
ATOM     37  C   UNL     1       1.726   4.086  18.002  0.00  0.00    +0.000 C 
ENDBRANCH  33  36
ENDBRANCH  32  33
ENDBRANCH  31  32
ENDBRANCH  30  31
ENDBRANCH  28  30
ENDBRANCH  27  28
ENDBRANCH   1  27
TORSDOF 12
ENDMDL
MODEL 9
REMARK VINA RESULT:      -6.6      3.675      7.931
REMARK  Name = 
REMARK  17 active torsions:
REMARK  status: ('A' for Active; 'I' for Inactive)
REMARK    1  A    between atoms: C_1  and  C_2
REMARK    2  A    between atoms: C_2  and  N_3
REMARK    3  A    between atoms: N_3  and  C_4
REMARK    4  A    between atoms: N_3  and  C_6
REMARK    5  A    between atoms: C_4  and  C_5
REMARK    6  A    between atoms: C_6  and  C_7
REMARK    7  A    between atoms: C_7  and  C_8
REMARK    8  A    between atoms: C_8  and  N_9
REMARK    9  A    between atoms: N_9  and  C_10
REMARK   10  A    between atoms: C_10  and  C_11
REMARK   11  A    between atoms: C_22  and  C_23
REMARK   12  A    between atoms: C_25  and  O_26
REMARK   13  A    between atoms: O_26  and  C_27
REMARK   14  A    between atoms: C_28  and  O_29
REMARK   15  A    between atoms: O_29  and  C_30
REMARK   16  A    between atoms: C_31  and  O_32
REMARK   17  A    between atoms: O_32  and  C_33
REMARK                            x       y       z     vdW  Elec       q    Type
REMARK                         _______ _______ _______ _____ _____    ______ ____
ROOT
ATOM      1  C   UNL     1       0.852  10.540  18.859  0.00  0.00    +0.000 A 
ATOM      2  C   UNL     1       1.718  11.570  18.492  0.00  0.00    +0.000 A 
ATOM      3  C   UNL     1       1.256  12.880  18.632  0.00  0.00    +0.000 A 
ATOM      4  C   UNL     1      -0.043  13.075  19.094  0.00  0.00    +0.000 A 
ATOM      5  N   UNL     1      -0.216  14.438  19.199  0.00  0.00    +0.000 N 
ATOM      6  C   UNL     1       0.887  15.119  18.748  0.00  0.00    +0.000 A 
ATOM      7  C   UNL     1       1.116  16.496  18.646  0.00  0.00    +0.000 A 
ATOM      8  C   UNL     1       2.370  16.907  18.171  0.00  0.00    +0.000 A 
ATOM      9  C   UNL     1       3.343  15.977  17.829  0.00  0.00    +0.000 A 
ATOM     10  C   UNL     1       3.095  14.605  17.944  0.00  0.00    +0.000 A 
ATOM     11  C   UNL     1       1.839  14.166  18.409  0.00  0.00    +0.000 A 
ATOM     12  C   UNL     1      -0.904  12.009  19.378  0.00  0.00    +0.000 A 
ATOM     13  N   UNL     1      -0.415  10.747  19.280  0.00  0.00    +0.000 NA
ATOM     14  H   UNL     1      -1.047  14.887  19.564  0.00  0.00    +0.000 HD
ENDROOT
BRANCH  12  15
ATOM     15  C   UNL     1      -2.315  12.152  19.736  0.00  0.00    +0.000 A 
ATOM     16  C   UNL     1      -2.685  12.572  21.014  0.00  0.00    +0.000 A 
ATOM     17  C   UNL     1      -4.023  12.723  21.383  0.00  0.00    +0.000 A 
ATOM     18  C   UNL     1      -5.041  12.447  20.448  0.00  0.00    +0.000 A 
ATOM     19  C   UNL     1      -4.693  12.040  19.142  0.00  0.00    +0.000 A 
ATOM     20  C   UNL     1      -3.336  11.913  18.804  0.00  0.00    +0.000 A 
BRANCH  17  21
ATOM     21  O   UNL     1      -4.390  13.123  22.648  0.00  0.00    +0.000 OA
ATOM     22  C   UNL     1      -3.415  12.925  23.672  0.00  0.00    +0.000 C 
ENDBRANCH  17  21
BRANCH  18  23
ATOM     23  O   UNL     1      -6.325  12.544  20.937  0.00  0.00    +0.000 OA
ATOM     24  C   UNL     1      -7.039  13.740  20.646  0.00  0.00    +0.000 C 
ENDBRANCH  18  23
BRANCH  19  25
ATOM     25  O   UNL     1      -5.703  11.745  18.263  0.00  0.00    +0.000 OA
ATOM     26  C   UNL     1      -5.964  12.662  17.207  0.00  0.00    +0.000 C 
ENDBRANCH  19  25
ENDBRANCH  12  15
BRANCH   1  27
ATOM     27  C   UNL     1       1.362   9.115  18.912  0.00  0.00    +0.000 C 
BRANCH  27  28
ATOM     28  N   UNL     1       2.448   8.852  17.954  0.00  0.00    +0.000 NA
ATOM     29  H   UNL     1       2.146   9.160  17.030  0.00  0.00    +0.000 HD
BRANCH  28  30
ATOM     30  C   UNL     1       2.790   7.427  17.901  0.00  0.00    +0.000 C 
BRANCH  30  31
ATOM     31  C   UNL     1       2.556   6.807  19.278  0.00  0.00    +0.000 C 
BRANCH  31  32
ATOM     32  C   UNL     1       3.534   5.654  19.522  0.00  0.00    +0.000 C 
BRANCH  32  33
ATOM     33  N   UNL     1       2.894   4.338  19.719  0.00  0.00    +0.000 NA
BRANCH  33  35
ATOM     34  C   UNL     1       1.531   3.158  21.492  0.00  0.00    +0.000 C 
ATOM     35  C   UNL     1       1.856   4.456  20.760  0.00  0.00    +0.000 C 
ENDBRANCH  33  35
BRANCH  33  36
ATOM     36  C   UNL     1       2.425   3.709  18.476  0.00  0.00    +0.000 C 
ATOM     37  C   UNL     1       3.383   3.770  17.291  0.00  0.00    +0.000 C 
ENDBRANCH  33  36
ENDBRANCH  32  33
ENDBRANCH  31  32
ENDBRANCH  30  31
ENDBRANCH  28  30
ENDBRANCH  27  28
ENDBRANCH   1  27
TORSDOF 12
ENDMDL
