MODEL 1
REMARK VINA RESULT:      -9.5      0.000      0.000
REMARK  Name = 
REMARK  4 active torsions:
REMARK  status: ('A' for Active; 'I' for Inactive)
REMARK    1  A    between atoms: O_1  and  C_2
REMARK    2  A    between atoms: C_2  and  C_3
REMARK    3  A    between atoms: C_7  and  C_8
REMARK    4  A    between atoms: C_13  and  C_14
REMARK                            x       y       z     vdW  Elec       q    Type
REMARK                         _______ _______ _______ _____ _____    ______ ____
ROOT
ATOM      1  C   UNL     1       1.777   7.754  19.934  0.00  0.00    +0.000 A 
ATOM      2  C   UNL     1       1.759   8.704  18.820  0.00  0.00    +0.000 A 
ATOM      3  C   UNL     1       1.154   9.903  18.918  0.00  0.00    +0.000 A 
ATOM      4  C   UNL     1       0.519  10.276  20.136  0.00  0.00    +0.000 A 
ATOM      5  N   UNL     1      -0.117  11.370  20.489  0.00  0.00    +0.000 NA
ATOM      6  C   UNL     1      -0.493  11.175  21.804  0.00  0.00    +0.000 A 
ATOM      7  C   UNL     1      -0.095   9.928  22.237  0.00  0.00    +0.000 A 
ATOM      8  N   UNL     1       0.560   9.357  21.175  0.00  0.00    +0.000 N 
ATOM      9  C   UNL     1       1.173   8.112  21.085  0.00  0.00    +0.000 A 
ENDROOT
BRANCH   6  10
ATOM     10  C   UNL     1      -1.190  12.186  22.584  0.00  0.00    +0.000 A 
ATOM     11  C   UNL     1      -2.445  11.887  23.133  0.00  0.00    +0.000 A 
ATOM     12  C   UNL     1      -3.164  12.847  23.852  0.00  0.00    +0.000 A 
ATOM     13  C   UNL     1      -2.628  14.119  24.029  0.00  0.00    +0.000 A 
ATOM     14 CL   UNL     1      -3.518  15.312  24.892  0.00  0.00    +0.000 Cl
ATOM     15  C   UNL     1      -1.378  14.434  23.504  0.00  0.00    +0.000 A 
ATOM     16  C   UNL     1      -0.660  13.471  22.785  0.00  0.00    +0.000 A 
ENDBRANCH   6  10
BRANCH   1  21
ATOM     17  C   UNL     1       4.145   4.978  18.921  0.00  0.00    +0.000 A 
ATOM     18  C   UNL     1       3.580   3.911  19.641  0.00  0.00    +0.000 A 
ATOM     19  C   UNL     1       2.443   4.090  20.437  0.00  0.00    +0.000 A 
ATOM     20  C   UNL     1       1.849   5.344  20.541  0.00  0.00    +0.000 A 
ATOM     21  C   UNL     1       2.401   6.427  19.860  0.00  0.00    +0.000 A 
ATOM     22  C   UNL     1       3.545   6.243  19.070  0.00  0.00    +0.000 A 
BRANCH  17  23
ATOM     23  C   UNL     1       5.332   4.796  17.964  0.00  0.00    +0.000 C 
ATOM     24  C   UNL     1       6.044   6.148  17.743  0.00  0.00    +0.000 C 
ATOM     25  C   UNL     1       7.157   6.039  16.711  0.00  0.00    +0.000 C 
ATOM     26  O   UNL     1       6.657   5.520  15.483  0.00  0.00    +0.000 OA
ATOM     27  C   UNL     1       6.157   4.195  15.644  0.00  0.00    +0.000 C 
ATOM     28  C   UNL     1       4.965   4.195  16.592  0.00  0.00    +0.000 C 
BRANCH  23  29
ATOM     29  O   UNL     1       6.268   3.889  18.567  0.00  0.00    +0.000 OA
ATOM     30  H   UNL     1       6.874   3.566  17.882  0.00  0.00    +0.000 HD
ENDBRANCH  23  29
ENDBRANCH  17  23
ENDBRANCH   1  21
TORSDOF 4
ENDMDL
MODEL 2
REMARK VINA RESULT:      -8.9      1.085      1.221
REMARK  Name = 
REMARK  4 active torsions:
REMARK  status: ('A' for Active; 'I' for Inactive)
REMARK    1  A    between atoms: O_1  and  C_2
REMARK    2  A    between atoms: C_2  and  C_3
REMARK    3  A    between atoms: C_7  and  C_8
REMARK    4  A    between atoms: C_13  and  C_14
REMARK                            x       y       z     vdW  Elec       q    Type
REMARK                         _______ _______ _______ _____ _____    ______ ____
ROOT
ATOM      1  C   UNL     1       1.851   7.918  19.513  0.00  0.00    +0.000 A 
ATOM      2  C   UNL     1       1.919   8.760  18.316  0.00  0.00    +0.000 A 
ATOM      3  C   UNL     1       1.347   9.979  18.272  0.00  0.00    +0.000 A 
ATOM      4  C   UNL     1       0.663  10.479  19.415  0.00  0.00    +0.000 A 
ATOM      5  N   UNL     1       0.043  11.618  19.632  0.00  0.00    +0.000 NA
ATOM      6  C   UNL     1      -0.405  11.556  20.937  0.00  0.00    +0.000 A 
ATOM      7  C   UNL     1      -0.067  10.344  21.503  0.00  0.00    +0.000 A 
ATOM      8  N   UNL     1       0.623   9.660  20.534  0.00  0.00    +0.000 N 
ATOM      9  C   UNL     1       1.201   8.397  20.591  0.00  0.00    +0.000 A 
ENDROOT
BRANCH   6  10
ATOM     10  C   UNL     1      -1.109  12.653  21.582  0.00  0.00    +0.000 A 
ATOM     11  C   UNL     1      -1.796  13.587  20.793  0.00  0.00    +0.000 A 
ATOM     12  C   UNL     1      -2.448  14.679  21.375  0.00  0.00    +0.000 A 
ATOM     13  C   UNL     1      -2.418  14.844  22.756  0.00  0.00    +0.000 A 
ATOM     14 CL   UNL     1      -3.197  16.199  23.475  0.00  0.00    +0.000 Cl
ATOM     15  C   UNL     1      -1.752  13.922  23.560  0.00  0.00    +0.000 A 
ATOM     16  C   UNL     1      -1.102  12.829  22.975  0.00  0.00    +0.000 A 
ENDBRANCH   6  10
BRANCH   1  21
ATOM     17  C   UNL     1       4.043   4.929  18.732  0.00  0.00    +0.000 A 
ATOM     18  C   UNL     1       3.536   4.013  19.672  0.00  0.00    +0.000 A 
ATOM     19  C   UNL     1       2.495   4.360  20.539  0.00  0.00    +0.000 A 
ATOM     20  C   UNL     1       1.940   5.636  20.496  0.00  0.00    +0.000 A 
ATOM     21  C   UNL     1       2.437   6.575  19.594  0.00  0.00    +0.000 A 
ATOM     22  C   UNL     1       3.487   6.223  18.732  0.00  0.00    +0.000 A 
BRANCH  17  23
ATOM     23  C   UNL     1       5.117   4.551  17.702  0.00  0.00    +0.000 C 
ATOM     24  C   UNL     1       6.522   4.788  18.294  0.00  0.00    +0.000 C 
ATOM     25  C   UNL     1       7.618   4.536  17.268  0.00  0.00    +0.000 C 
ATOM     26  O   UNL     1       7.414   5.334  16.106  0.00  0.00    +0.000 OA
ATOM     27  C   UNL     1       6.194   4.994  15.451  0.00  0.00    +0.000 C 
ATOM     28  C   UNL     1       5.009   5.299  16.358  0.00  0.00    +0.000 C 
BRANCH  23  29
ATOM     29  O   UNL     1       4.986   3.153  17.400  0.00  0.00    +0.000 OA
ATOM     30  H   UNL     1       5.863   2.742  17.445  0.00  0.00    +0.000 HD
ENDBRANCH  23  29
ENDBRANCH  17  23
ENDBRANCH   1  21
TORSDOF 4
ENDMDL
MODEL 3
REMARK VINA RESULT:      -8.8      1.173      1.280
REMARK  Name = 
REMARK  4 active torsions:
REMARK  status: ('A' for Active; 'I' for Inactive)
REMARK    1  A    between atoms: O_1  and  C_2
REMARK    2  A    between atoms: C_2  and  C_3
REMARK    3  A    between atoms: C_7  and  C_8
REMARK    4  A    between atoms: C_13  and  C_14
REMARK                            x       y       z     vdW  Elec       q    Type
REMARK                         _______ _______ _______ _____ _____    ______ ____
ROOT
ATOM      1  C   UNL     1       2.102   7.567  18.943  0.00  0.00    +0.000 A 
ATOM      2  C   UNL     1       2.181   8.561  17.871  0.00  0.00    +0.000 A 
ATOM      3  C   UNL     1       1.722   9.818  18.033  0.00  0.00    +0.000 A 
ATOM      4  C   UNL     1       1.151  10.206  19.278  0.00  0.00    +0.000 A 
ATOM      5  N   UNL     1       0.653  11.349  19.691  0.00  0.00    +0.000 NA
ATOM      6  C   UNL     1       0.274  11.140  21.002  0.00  0.00    +0.000 A 
ATOM      7  C   UNL     1       0.530   9.836  21.373  0.00  0.00    +0.000 A 
ATOM      8  N   UNL     1       1.099   9.242  20.275  0.00  0.00    +0.000 N 
ATOM      9  C   UNL     1       1.561   7.940  20.119  0.00  0.00    +0.000 A 
ENDROOT
BRANCH   6  10
ATOM     10  C   UNL     1      -0.288  12.189  21.839  0.00  0.00    +0.000 A 
ATOM     11  C   UNL     1      -1.366  11.889  22.686  0.00  0.00    +0.000 A 
ATOM     12  C   UNL     1      -1.960  12.880  23.473  0.00  0.00    +0.000 A 
ATOM     13  C   UNL     1      -1.478  14.185  23.418  0.00  0.00    +0.000 A 
ATOM     14 CL   UNL     1      -2.221  15.414  24.365  0.00  0.00    +0.000 Cl
ATOM     15  C   UNL     1      -0.400  14.502  22.594  0.00  0.00    +0.000 A 
ATOM     16  C   UNL     1       0.194  13.507  21.809  0.00  0.00    +0.000 A 
ENDBRANCH   6  10
BRANCH   1  21
ATOM     17  C   UNL     1       4.135   4.586  17.788  0.00  0.00    +0.000 A 
ATOM     18  C   UNL     1       3.441   3.557  18.449  0.00  0.00    +0.000 A 
ATOM     19  C   UNL     1       2.327   3.828  19.250  0.00  0.00    +0.000 A 
ATOM     20  C   UNL     1       1.884   5.136  19.420  0.00  0.00    +0.000 A 
ATOM     21  C   UNL     1       2.566   6.181  18.799  0.00  0.00    +0.000 A 
ATOM     22  C   UNL     1       3.687   5.905  18.004  0.00  0.00    +0.000 A 
BRANCH  17  23
ATOM     23  C   UNL     1       5.300   4.316  16.825  0.00  0.00    +0.000 C 
ATOM     24  C   UNL     1       6.639   4.674  17.505  0.00  0.00    +0.000 C 
ATOM     25  C   UNL     1       7.815   4.531  16.548  0.00  0.00    +0.000 C 
ATOM     26  O   UNL     1       7.611   5.317  15.378  0.00  0.00    +0.000 OA
ATOM     27  C   UNL     1       6.470   4.873  14.648  0.00  0.00    +0.000 C 
ATOM     28  C   UNL     1       5.208   5.062  15.480  0.00  0.00    +0.000 C 
BRANCH  23  29
ATOM     29  O   UNL     1       5.316   2.915  16.513  0.00  0.00    +0.000 OA
ATOM     30  H   UNL     1       4.454   2.535  16.745  0.00  0.00    +0.000 HD
ENDBRANCH  23  29
ENDBRANCH  17  23
ENDBRANCH   1  21
TORSDOF 4
ENDMDL
MODEL 4
REMARK VINA RESULT:      -8.8      5.484     10.829
REMARK  Name = 
REMARK  4 active torsions:
REMARK  status: ('A' for Active; 'I' for Inactive)
REMARK    1  A    between atoms: O_1  and  C_2
REMARK    2  A    between atoms: C_2  and  C_3
REMARK    3  A    between atoms: C_7  and  C_8
REMARK    4  A    between atoms: C_13  and  C_14
REMARK                            x       y       z     vdW  Elec       q    Type
REMARK                         _______ _______ _______ _____ _____    ______ ____
ROOT
ATOM      1  C   UNL     1       0.166  10.606  20.468  0.00  0.00    +0.000 A 
ATOM      2  C   UNL     1       0.274   9.674  21.592  0.00  0.00    +0.000 A 
ATOM      3  C   UNL     1       0.932   8.504  21.483  0.00  0.00    +0.000 A 
ATOM      4  C   UNL     1       1.552   8.154  20.251  0.00  0.00    +0.000 A 
ATOM      5  N   UNL     1       2.250   7.100  19.893  0.00  0.00    +0.000 NA
ATOM      6  C   UNL     1       2.620   7.325  18.582  0.00  0.00    +0.000 A 
ATOM      7  C   UNL     1       2.111   8.527  18.139  0.00  0.00    +0.000 A 
ATOM      8  N   UNL     1       1.436   9.061  19.208  0.00  0.00    +0.000 N 
ATOM      9  C   UNL     1       0.754  10.269  19.303  0.00  0.00    +0.000 A 
ENDROOT
BRANCH   6  10
ATOM     10  C   UNL     1       3.453   6.400  17.827  0.00  0.00    +0.000 A 
ATOM     11  C   UNL     1       4.489   6.905  17.027  0.00  0.00    +0.000 A 
ATOM     12  C   UNL     1       5.282   6.052  16.254  0.00  0.00    +0.000 A 
ATOM     13  C   UNL     1       5.044   4.680  16.277  0.00  0.00    +0.000 A 
ATOM     14 CL   UNL     1       6.001   3.628  15.310  0.00  0.00    +0.000 Cl
ATOM     15  C   UNL     1       4.030   4.156  17.074  0.00  0.00    +0.000 A 
ATOM     16  C   UNL     1       3.238   5.013  17.848  0.00  0.00    +0.000 A 
ENDBRANCH   6  10
BRANCH   1  21
ATOM     17  C   UNL     1      -2.337  13.229  21.566  0.00  0.00    +0.000 A 
ATOM     18  C   UNL     1      -2.016  14.255  20.659  0.00  0.00    +0.000 A 
ATOM     19  C   UNL     1      -1.009  14.093  19.702  0.00  0.00    +0.000 A 
ATOM     20  C   UNL     1      -0.288  12.905  19.635  0.00  0.00    +0.000 A 
ATOM     21  C   UNL     1      -0.564  11.878  20.536  0.00  0.00    +0.000 A 
ATOM     22  C   UNL     1      -1.570  12.049  21.498  0.00  0.00    +0.000 A 
BRANCH  17  23
ATOM     23  C   UNL     1      -3.500  13.336  22.563  0.00  0.00    +0.000 C 
ATOM     24  C   UNL     1      -3.250  12.402  23.766  0.00  0.00    +0.000 C 
ATOM     25  C   UNL     1      -4.432  12.389  24.725  0.00  0.00    +0.000 C 
ATOM     26  O   UNL     1      -5.631  12.032  24.044  0.00  0.00    +0.000 OA
ATOM     27  C   UNL     1      -5.964  12.992  23.044  0.00  0.00    +0.000 C 
ATOM     28  C   UNL     1      -4.887  13.023  21.967  0.00  0.00    +0.000 C 
BRANCH  23  29
ATOM     29  O   UNL     1      -3.561  14.686  23.047  0.00  0.00    +0.000 OA
ATOM     30  H   UNL     1      -4.295  15.142  22.607  0.00  0.00    +0.000 HD
ENDBRANCH  23  29
ENDBRANCH  17  23
ENDBRANCH   1  21
TORSDOF 4
ENDMDL
MODEL 5
REMARK VINA RESULT:      -8.7      2.039      3.552
REMARK  Name = 
REMARK  4 active torsions:
REMARK  status: ('A' for Active; 'I' for Inactive)
REMARK    1  A    between atoms: O_1  and  C_2
REMARK    2  A    between atoms: C_2  and  C_3
REMARK    3  A    between atoms: C_7  and  C_8
REMARK    4  A    between atoms: C_13  and  C_14
REMARK                            x       y       z     vdW  Elec       q    Type
REMARK                         _______ _______ _______ _____ _____    ______ ____
ROOT
ATOM      1  C   UNL     1       0.667   9.292  20.851  0.00  0.00    +0.000 A 
ATOM      2  C   UNL     1       0.671   8.899  22.261  0.00  0.00    +0.000 A 
ATOM      3  C   UNL     1      -0.017   9.587  23.193  0.00  0.00    +0.000 A 
ATOM      4  C   UNL     1      -0.781  10.725  22.809  0.00  0.00    +0.000 A 
ATOM      5  N   UNL     1      -1.537  11.544  23.505  0.00  0.00    +0.000 NA
ATOM      6  C   UNL     1      -2.051  12.444  22.592  0.00  0.00    +0.000 A 
ATOM      7  C   UNL     1      -1.574  12.171  21.327  0.00  0.00    +0.000 A 
ATOM      8  N   UNL     1      -0.770  11.067  21.464  0.00  0.00    +0.000 N 
ATOM      9  C   UNL     1      -0.058  10.371  20.494  0.00  0.00    +0.000 A 
ENDROOT
BRANCH   6  10
ATOM     10  C   UNL     1      -2.983  13.498  22.962  0.00  0.00    +0.000 A 
ATOM     11  C   UNL     1      -2.739  14.256  24.118  0.00  0.00    +0.000 A 
ATOM     12  C   UNL     1      -3.633  15.249  24.530  0.00  0.00    +0.000 A 
ATOM     13  C   UNL     1      -4.783  15.493  23.783  0.00  0.00    +0.000 A 
ATOM     14 CL   UNL     1      -5.899  16.697  24.298  0.00  0.00    +0.000 Cl
ATOM     15  C   UNL     1      -5.038  14.762  22.626  0.00  0.00    +0.000 A 
ATOM     16  C   UNL     1      -4.140  13.770  22.215  0.00  0.00    +0.000 A 
ENDBRANCH   6  10
BRANCH   1  21
ATOM     17  C   UNL     1       2.662   6.587  19.105  0.00  0.00    +0.000 A 
ATOM     18  C   UNL     1       2.918   7.235  17.883  0.00  0.00    +0.000 A 
ATOM     19  C   UNL     1       2.457   8.532  17.635  0.00  0.00    +0.000 A 
ATOM     20  C   UNL     1       1.717   9.211  18.599  0.00  0.00    +0.000 A 
ATOM     21  C   UNL     1       1.424   8.587  19.810  0.00  0.00    +0.000 A 
ATOM     22  C   UNL     1       1.882   7.283  20.050  0.00  0.00    +0.000 A 
BRANCH  17  23
ATOM     23  C   UNL     1       3.235   5.204  19.447  0.00  0.00    +0.000 C 
ATOM     24  C   UNL     1       3.306   4.333  18.175  0.00  0.00    +0.000 C 
ATOM     25  C   UNL     1       3.761   2.915  18.486  0.00  0.00    +0.000 C 
ATOM     26  O   UNL     1       2.917   2.317  19.465  0.00  0.00    +0.000 OA
ATOM     27  C   UNL     1       2.984   3.019  20.705  0.00  0.00    +0.000 C 
ATOM     28  C   UNL     1       2.456   4.437  20.534  0.00  0.00    +0.000 C 
BRANCH  23  29
ATOM     29  O   UNL     1       4.569   5.377  19.949  0.00  0.00    +0.000 OA
ATOM     30  H   UNL     1       4.524   5.536  20.905  0.00  0.00    +0.000 HD
ENDBRANCH  23  29
ENDBRANCH  17  23
ENDBRANCH   1  21
TORSDOF 4
ENDMDL
MODEL 6
REMARK VINA RESULT:      -8.6      2.875      3.476
REMARK  Name = 
REMARK  4 active torsions:
REMARK  status: ('A' for Active; 'I' for Inactive)
REMARK    1  A    between atoms: O_1  and  C_2
REMARK    2  A    between atoms: C_2  and  C_3
REMARK    3  A    between atoms: C_7  and  C_8
REMARK    4  A    between atoms: C_13  and  C_14
REMARK                            x       y       z     vdW  Elec       q    Type
REMARK                         _______ _______ _______ _____ _____    ______ ____
ROOT
ATOM      1  C   UNL     1       1.966   6.809  19.129  0.00  0.00    +0.000 A 
ATOM      2  C   UNL     1       1.522   6.959  20.516  0.00  0.00    +0.000 A 
ATOM      3  C   UNL     1       1.197   8.160  21.032  0.00  0.00    +0.000 A 
ATOM      4  C   UNL     1       1.273   9.323  20.214  0.00  0.00    +0.000 A 
ATOM      5  N   UNL     1       1.004  10.585  20.465  0.00  0.00    +0.000 NA
ATOM      6  C   UNL     1       1.235  11.258  19.281  0.00  0.00    +0.000 A 
ATOM      7  C   UNL     1       1.675  10.383  18.310  0.00  0.00    +0.000 A 
ATOM      8  N   UNL     1       1.690   9.146  18.903  0.00  0.00    +0.000 N 
ATOM      9  C   UNL     1       2.037   7.914  18.360  0.00  0.00    +0.000 A 
ENDROOT
BRANCH   6  10
ATOM     10  C   UNL     1       1.007  12.686  19.128  0.00  0.00    +0.000 A 
ATOM     11  C   UNL     1       2.098  13.534  18.880  0.00  0.00    +0.000 A 
ATOM     12  C   UNL     1       1.924  14.917  18.770  0.00  0.00    +0.000 A 
ATOM     13  C   UNL     1       0.652  15.464  18.906  0.00  0.00    +0.000 A 
ATOM     14 CL   UNL     1       0.435  17.167  18.795  0.00  0.00    +0.000 Cl
ATOM     15  C   UNL     1      -0.447  14.641  19.139  0.00  0.00    +0.000 A 
ATOM     16  C   UNL     1      -0.270  13.256  19.248  0.00  0.00    +0.000 A 
ENDBRANCH   6  10
BRANCH   1  21
ATOM     17  C   UNL     1       3.989   4.211  17.256  0.00  0.00    +0.000 A 
ATOM     18  C   UNL     1       3.108   3.119  17.342  0.00  0.00    +0.000 A 
ATOM     19  C   UNL     1       1.874   3.228  17.992  0.00  0.00    +0.000 A 
ATOM     20  C   UNL     1       1.494   4.430  18.581  0.00  0.00    +0.000 A 
ATOM     21  C   UNL     1       2.356   5.524  18.536  0.00  0.00    +0.000 A 
ATOM     22  C   UNL     1       3.596   5.406  17.890  0.00  0.00    +0.000 A 
BRANCH  17  23
ATOM     23  C   UNL     1       5.306   4.155  16.468  0.00  0.00    +0.000 C 
ATOM     24  C   UNL     1       6.469   4.661  17.348  0.00  0.00    +0.000 C 
ATOM     25  C   UNL     1       7.776   4.731  16.571  0.00  0.00    +0.000 C 
ATOM     26  O   UNL     1       7.629   5.539  15.408  0.00  0.00    +0.000 OA
ATOM     27  C   UNL     1       6.679   4.979  14.504  0.00  0.00    +0.000 C 
ATOM     28  C   UNL     1       5.298   4.948  15.146  0.00  0.00    +0.000 C 
BRANCH  23  29
ATOM     29  O   UNL     1       5.568   2.787  16.119  0.00  0.00    +0.000 OA
ATOM     30  H   UNL     1       5.496   2.691  15.157  0.00  0.00    +0.000 HD
ENDBRANCH  23  29
ENDBRANCH  17  23
ENDBRANCH   1  21
TORSDOF 4
ENDMDL
MODEL 7
REMARK VINA RESULT:      -8.5      0.849      1.221
REMARK  Name = 
REMARK  4 active torsions:
REMARK  status: ('A' for Active; 'I' for Inactive)
REMARK    1  A    between atoms: O_1  and  C_2
REMARK    2  A    between atoms: C_2  and  C_3
REMARK    3  A    between atoms: C_7  and  C_8
REMARK    4  A    between atoms: C_13  and  C_14
REMARK                            x       y       z     vdW  Elec       q    Type
REMARK                         _______ _______ _______ _____ _____    ______ ____
ROOT
ATOM      1  C   UNL     1       1.573   8.228  19.871  0.00  0.00    +0.000 A 
ATOM      2  C   UNL     1       1.416   9.166  18.759  0.00  0.00    +0.000 A 
ATOM      3  C   UNL     1       0.752  10.330  18.899  0.00  0.00    +0.000 A 
ATOM      4  C   UNL     1       0.192  10.675  20.162  0.00  0.00    +0.000 A 
ATOM      5  N   UNL     1      -0.477  11.733  20.560  0.00  0.00    +0.000 NA
ATOM      6  C   UNL     1      -0.740  11.527  21.900  0.00  0.00    +0.000 A 
ATOM      7  C   UNL     1      -0.239  10.307  22.305  0.00  0.00    +0.000 A 
ATOM      8  N   UNL     1       0.364   9.767  21.197  0.00  0.00    +0.000 N 
ATOM      9  C   UNL     1       1.040   8.559  21.064  0.00  0.00    +0.000 A 
ENDROOT
BRANCH   6  10
ATOM     10  C   UNL     1      -1.432  12.503  22.728  0.00  0.00    +0.000 A 
ATOM     11  C   UNL     1      -2.712  12.203  23.219  0.00  0.00    +0.000 A 
ATOM     12  C   UNL     1      -3.425  13.132  23.982  0.00  0.00    +0.000 A 
ATOM     13  C   UNL     1      -2.860  14.373  24.262  0.00  0.00    +0.000 A 
ATOM     14 CL   UNL     1      -3.743  15.530  25.180  0.00  0.00    +0.000 Cl
ATOM     15  C   UNL     1      -1.586  14.687  23.796  0.00  0.00    +0.000 A 
ATOM     16  C   UNL     1      -0.874  13.754  23.033  0.00  0.00    +0.000 A 
ENDBRANCH   6  10
BRANCH   1  21
ATOM     17  C   UNL     1       3.977   5.567  18.650  0.00  0.00    +0.000 A 
ATOM     18  C   UNL     1       3.564   4.490  19.453  0.00  0.00    +0.000 A 
ATOM     19  C   UNL     1       2.517   4.624  20.371  0.00  0.00    +0.000 A 
ATOM     20  C   UNL     1       1.862   5.844  20.516  0.00  0.00    +0.000 A 
ATOM     21  C   UNL     1       2.265   6.938  19.754  0.00  0.00    +0.000 A 
ATOM     22  C   UNL     1       3.321   6.799  18.840  0.00  0.00    +0.000 A 
BRANCH  17  23
ATOM     23  C   UNL     1       5.055   5.428  17.565  0.00  0.00    +0.000 C 
ATOM     24  C   UNL     1       4.550   4.506  16.435  0.00  0.00    +0.000 C 
ATOM     25  C   UNL     1       5.629   4.247  15.393  0.00  0.00    +0.000 C 
ATOM     26  O   UNL     1       6.800   3.712  16.001  0.00  0.00    +0.000 OA
ATOM     27  C   UNL     1       7.375   4.637  16.922  0.00  0.00    +0.000 C 
ATOM     28  C   UNL     1       6.412   4.900  18.072  0.00  0.00    +0.000 C 
BRANCH  23  29
ATOM     29  O   UNL     1       5.308   6.727  17.007  0.00  0.00    +0.000 OA
ATOM     30  H   UNL     1       5.788   7.259  17.660  0.00  0.00    +0.000 HD
ENDBRANCH  23  29
ENDBRANCH  17  23
ENDBRANCH   1  21
TORSDOF 4
ENDMDL
MODEL 8
REMARK VINA RESULT:      -8.5      1.657      3.251
REMARK  Name = 
REMARK  4 active torsions:
REMARK  status: ('A' for Active; 'I' for Inactive)
REMARK    1  A    between atoms: O_1  and  C_2
REMARK    2  A    between atoms: C_2  and  C_3
REMARK    3  A    between atoms: C_7  and  C_8
REMARK    4  A    between atoms: C_13  and  C_14
REMARK                            x       y       z     vdW  Elec       q    Type
REMARK                         _______ _______ _______ _____ _____    ______ ____
ROOT
ATOM      1  C   UNL     1       1.395   8.843  18.741  0.00  0.00    +0.000 A 
ATOM      2  C   UNL     1       0.500   9.474  17.769  0.00  0.00    +0.000 A 
ATOM      3  C   UNL     1      -0.389  10.418  18.132  0.00  0.00    +0.000 A 
ATOM      4  C   UNL     1      -0.466  10.831  19.492  0.00  0.00    +0.000 A 
ATOM      5  N   UNL     1      -1.221  11.723  20.092  0.00  0.00    +0.000 NA
ATOM      6  C   UNL     1      -0.831  11.712  21.417  0.00  0.00    +0.000 A 
ATOM      7  C   UNL     1       0.161  10.775  21.617  0.00  0.00    +0.000 A 
ATOM      8  N   UNL     1       0.401  10.219  20.386  0.00  0.00    +0.000 N 
ATOM      9  C   UNL     1       1.318   9.237  20.027  0.00  0.00    +0.000 A 
ENDROOT
BRANCH   6  10
ATOM     10  C   UNL     1      -1.403  12.602  22.416  0.00  0.00    +0.000 A 
ATOM     11  C   UNL     1      -2.670  12.315  22.947  0.00  0.00    +0.000 A 
ATOM     12  C   UNL     1      -3.270  13.170  23.877  0.00  0.00    +0.000 A 
ATOM     13  C   UNL     1      -2.604  14.322  24.284  0.00  0.00    +0.000 A 
ATOM     14 CL   UNL     1      -3.348  15.389  25.409  0.00  0.00    +0.000 Cl
ATOM     15  C   UNL     1      -1.340  14.619  23.781  0.00  0.00    +0.000 A 
ATOM     16  C   UNL     1      -0.741  13.761  22.851  0.00  0.00    +0.000 A 
ENDBRANCH   6  10
BRANCH   1  21
ATOM     17  C   UNL     1       3.172   5.498  18.717  0.00  0.00    +0.000 A 
ATOM     18  C   UNL     1       4.205   5.786  17.808  0.00  0.00    +0.000 A 
ATOM     19  C   UNL     1       4.325   7.048  17.218  0.00  0.00    +0.000 A 
ATOM     20  C   UNL     1       3.409   8.053  17.515  0.00  0.00    +0.000 A 
ATOM     21  C   UNL     1       2.359   7.792  18.393  0.00  0.00    +0.000 A 
ATOM     22  C   UNL     1       2.239   6.521  18.975  0.00  0.00    +0.000 A 
BRANCH  17  23
ATOM     23  C   UNL     1       3.068   4.155  19.456  0.00  0.00    +0.000 C 
ATOM     24  C   UNL     1       2.127   3.203  18.688  0.00  0.00    +0.000 C 
ATOM     25  C   UNL     1       1.902   1.901  19.443  0.00  0.00    +0.000 C 
ATOM     26  O   UNL     1       1.408   2.156  20.754  0.00  0.00    +0.000 OA
ATOM     27  C   UNL     1       2.354   2.888  21.531  0.00  0.00    +0.000 C 
ATOM     28  C   UNL     1       2.586   4.262  20.917  0.00  0.00    +0.000 C 
BRANCH  23  29
ATOM     29  O   UNL     1       4.373   3.559  19.501  0.00  0.00    +0.000 OA
ATOM     30  H   UNL     1       4.993   4.129  19.021  0.00  0.00    +0.000 HD
ENDBRANCH  23  29
ENDBRANCH  17  23
ENDBRANCH   1  21
TORSDOF 4
ENDMDL
MODEL 9
REMARK VINA RESULT:      -8.5      0.825      1.604
REMARK  Name = 
REMARK  4 active torsions:
REMARK  status: ('A' for Active; 'I' for Inactive)
REMARK    1  A    between atoms: O_1  and  C_2
REMARK    2  A    between atoms: C_2  and  C_3
REMARK    3  A    between atoms: C_7  and  C_8
REMARK    4  A    between atoms: C_13  and  C_14
REMARK                            x       y       z     vdW  Elec       q    Type
REMARK                         _______ _______ _______ _____ _____    ______ ____
ROOT
ATOM      1  C   UNL     1       1.481   8.321  19.796  0.00  0.00    +0.000 A 
ATOM      2  C   UNL     1       1.183   9.191  18.657  0.00  0.00    +0.000 A 
ATOM      3  C   UNL     1       0.469  10.325  18.796  0.00  0.00    +0.000 A 
ATOM      4  C   UNL     1      -0.008  10.705  20.082  0.00  0.00    +0.000 A 
ATOM      5  N   UNL     1      -0.702  11.746  20.483  0.00  0.00    +0.000 NA
ATOM      6  C   UNL     1      -0.846  11.596  21.848  0.00  0.00    +0.000 A 
ATOM      7  C   UNL     1      -0.246  10.427  22.268  0.00  0.00    +0.000 A 
ATOM      8  N   UNL     1       0.297   9.862  21.142  0.00  0.00    +0.000 N 
ATOM      9  C   UNL     1       1.026   8.685  21.011  0.00  0.00    +0.000 A 
ENDROOT
BRANCH   6  10
ATOM     10  C   UNL     1      -1.523  12.576  22.683  0.00  0.00    +0.000 A 
ATOM     11  C   UNL     1      -0.852  13.756  23.040  0.00  0.00    +0.000 A 
ATOM     12  C   UNL     1      -1.454  14.702  23.876  0.00  0.00    +0.000 A 
ATOM     13  C   UNL     1      -2.738  14.473  24.362  0.00  0.00    +0.000 A 
ATOM     14 CL   UNL     1      -3.474  15.621  25.410  0.00  0.00    +0.000 Cl
ATOM     15  C   UNL     1      -3.427  13.315  24.010  0.00  0.00    +0.000 A 
ATOM     16  C   UNL     1      -2.823  12.371  23.172  0.00  0.00    +0.000 A 
ENDBRANCH   6  10
BRANCH   1  21
ATOM     17  C   UNL     1       3.979   5.757  18.558  0.00  0.00    +0.000 A 
ATOM     18  C   UNL     1       3.642   4.677  19.392  0.00  0.00    +0.000 A 
ATOM     19  C   UNL     1       2.614   4.778  20.336  0.00  0.00    +0.000 A 
ATOM     20  C   UNL     1       1.904   5.967  20.477  0.00  0.00    +0.000 A 
ATOM     21  C   UNL     1       2.232   7.065  19.683  0.00  0.00    +0.000 A 
ATOM     22  C   UNL     1       3.269   6.960  18.744  0.00  0.00    +0.000 A 
BRANCH  17  23
ATOM     23  C   UNL     1       5.034   5.650  17.447  0.00  0.00    +0.000 C 
ATOM     24  C   UNL     1       5.103   4.199  16.924  0.00  0.00    +0.000 C 
ATOM     25  C   UNL     1       6.215   4.020  15.901  0.00  0.00    +0.000 C 
ATOM     26  O   UNL     1       7.469   4.425  16.442  0.00  0.00    +0.000 OA
ATOM     27  C   UNL     1       7.469   5.814  16.765  0.00  0.00    +0.000 C 
ATOM     28  C   UNL     1       6.450   6.099  17.860  0.00  0.00    +0.000 C 
BRANCH  23  29
ATOM     29  O   UNL     1       4.639   6.501  16.361  0.00  0.00    +0.000 OA
ATOM     30  H   UNL     1       5.310   7.192  16.247  0.00  0.00    +0.000 HD
ENDBRANCH  23  29
ENDBRANCH  17  23
ENDBRANCH   1  21
TORSDOF 4
ENDMDL
