MODEL 1
REMARK VINA RESULT:      -7.7      0.000      0.000
REMARK  Name = 
REMARK  6 active torsions:
REMARK  status: ('A' for Active; 'I' for Inactive)
REMARK    1  A    between atoms: C_1  and  C_2
REMARK    2  A    between atoms: N_4  and  C_5
REMARK    3  A    between atoms: C_5  and  C_6
REMARK    4  A    between atoms: C_9  and  C_10
REMARK    5  A    between atoms: C_10  and  N_11
REMARK    6  A    between atoms: N_14  and  C_15
REMARK                            x       y       z     vdW  Elec       q    Type
REMARK                         _______ _______ _______ _____ _____    ______ ____
ROOT
ATOM      1  C   UNL     1       3.298   5.715  18.305  0.00  0.00    +0.000 C 
ENDROOT
BRANCH   1   5
ATOM      2  C   UNL     1       1.106   9.382  19.311  0.00  0.00    +0.000 A 
ATOM      3  C   UNL     1       1.404   8.447  20.306  0.00  0.00    +0.000 A 
ATOM      4  C   UNL     1       2.123   7.278  20.005  0.00  0.00    +0.000 A 
ATOM      5  C   UNL     1       2.521   6.975  18.697  0.00  0.00    +0.000 A 
ATOM      6  C   UNL     1       2.284   7.965  17.723  0.00  0.00    +0.000 A 
ATOM      7  C   UNL     1       1.600   9.153  18.025  0.00  0.00    +0.000 A 
BRANCH   2   8
ATOM      8  C   UNL     1       0.280  10.603  19.615  0.00  0.00    +0.000 C 
BRANCH   8  12
ATOM      9  C   UNL     1      -1.246  11.078  23.029  0.00  0.00    +0.000 C 
ATOM     10  C   UNL     1      -0.322  11.327  21.865  0.00  0.00    +0.000 C 
ATOM     11  O   UNL     1       0.504  12.232  21.869  0.00  0.00    +0.000 OA
ATOM     12  N   UNL     1      -0.493  10.451  20.823  0.00  0.00    +0.000 N 
ATOM     13  H   UNL     1      -1.305   9.848  20.807  0.00  0.00    +0.000 HD
ENDBRANCH   8  12
ENDBRANCH   2   8
ENDBRANCH   1   5
BRANCH   1  14
ATOM     14  N   UNL     1       4.768   5.696  18.471  0.00  0.00    +0.000 NA
ATOM     15  C   UNL     1       5.309   4.333  18.182  0.00  0.00    +0.000 C 
ATOM     16  C   UNL     1       5.341   3.909  16.685  0.00  0.00    +0.000 C 
ATOM     17  N   UNL     1       6.008   4.926  15.852  0.00  0.00    +0.000 N 
ATOM     18  C   UNL     1       5.561   6.313  16.100  0.00  0.00    +0.000 C 
ATOM     19  C   UNL     1       5.543   6.620  17.617  0.00  0.00    +0.000 C 
BRANCH  17  20
ATOM     20  C   UNL     1       6.371   4.619  14.536  0.00  0.00    +0.000 A 
ATOM     21  C   UNL     1       7.439   5.232  13.860  0.00  0.00    +0.000 A 
ATOM     22  C   UNL     1       7.732   4.942  12.518  0.00  0.00    +0.000 A 
ATOM     23  C   UNL     1       6.950   4.028  11.816  0.00  0.00    +0.000 A 
ATOM     24  C   UNL     1       5.889   3.400  12.459  0.00  0.00    +0.000 A 
ATOM     25  C   UNL     1       5.612   3.693  13.796  0.00  0.00    +0.000 A 
ENDBRANCH  17  20
ENDBRANCH   1  14
TORSDOF 5
ENDMDL
MODEL 2
REMARK VINA RESULT:      -7.5      0.641      1.521
REMARK  Name = 
REMARK  6 active torsions:
REMARK  status: ('A' for Active; 'I' for Inactive)
REMARK    1  A    between atoms: C_1  and  C_2
REMARK    2  A    between atoms: N_4  and  C_5
REMARK    3  A    between atoms: C_5  and  C_6
REMARK    4  A    between atoms: C_9  and  C_10
REMARK    5  A    between atoms: C_10  and  N_11
REMARK    6  A    between atoms: N_14  and  C_15
REMARK                            x       y       z     vdW  Elec       q    Type
REMARK                         _______ _______ _______ _____ _____    ______ ____
ROOT
ATOM      1  C   UNL     1       3.066   5.739  18.270  0.00  0.00    +0.000 C 
ENDROOT
BRANCH   1   5
ATOM      2  C   UNL     1       1.336   9.646  19.272  0.00  0.00    +0.000 A 
ATOM      3  C   UNL     1       1.690   9.353  17.953  0.00  0.00    +0.000 A 
ATOM      4  C   UNL     1       2.225   8.100  17.611  0.00  0.00    +0.000 A 
ATOM      5  C   UNL     1       2.477   7.118  18.578  0.00  0.00    +0.000 A 
ATOM      6  C   UNL     1       2.040   7.400  19.887  0.00  0.00    +0.000 A 
ATOM      7  C   UNL     1       1.469   8.636  20.227  0.00  0.00    +0.000 A 
BRANCH   2   8
ATOM      8  C   UNL     1       0.824  11.009  19.654  0.00  0.00    +0.000 C 
BRANCH   8  12
ATOM      9  C   UNL     1      -1.062  11.530  22.877  0.00  0.00    +0.000 C 
ATOM     10  C   UNL     1      -0.783  11.585  21.397  0.00  0.00    +0.000 C 
ATOM     11  O   UNL     1      -1.586  12.050  20.598  0.00  0.00    +0.000 OA
ATOM     12  N   UNL     1       0.442  11.077  21.043  0.00  0.00    +0.000 N 
ATOM     13  H   UNL     1       0.977  10.549  21.720  0.00  0.00    +0.000 HD
ENDBRANCH   8  12
ENDBRANCH   2   8
ENDBRANCH   1   5
BRANCH   1  14
ATOM     14  N   UNL     1       4.510   5.507  18.496  0.00  0.00    +0.000 NA
ATOM     15  C   UNL     1       4.884   4.116  18.099  0.00  0.00    +0.000 C 
ATOM     16  C   UNL     1       4.943   3.829  16.570  0.00  0.00    +0.000 C 
ATOM     17  N   UNL     1       5.781   4.819  15.869  0.00  0.00    +0.000 N 
ATOM     18  C   UNL     1       5.506   6.225  16.232  0.00  0.00    +0.000 C 
ATOM     19  C   UNL     1       5.444   6.392  17.770  0.00  0.00    +0.000 C 
BRANCH  17  20
ATOM     20  C   UNL     1       6.173   4.587  14.546  0.00  0.00    +0.000 A 
ATOM     21  C   UNL     1       5.511   3.697  13.684  0.00  0.00    +0.000 A 
ATOM     22  C   UNL     1       5.973   3.444  12.383  0.00  0.00    +0.000 A 
ATOM     23  C   UNL     1       7.122   4.076  11.916  0.00  0.00    +0.000 A 
ATOM     24  C   UNL     1       7.798   4.966  12.744  0.00  0.00    +0.000 A 
ATOM     25  C   UNL     1       7.323   5.214  14.034  0.00  0.00    +0.000 A 
ENDBRANCH  17  20
ENDBRANCH   1  14
TORSDOF 5
ENDMDL
MODEL 3
REMARK VINA RESULT:      -7.5      1.290      1.574
REMARK  Name = 
REMARK  6 active torsions:
REMARK  status: ('A' for Active; 'I' for Inactive)
REMARK    1  A    between atoms: C_1  and  C_2
REMARK    2  A    between atoms: N_4  and  C_5
REMARK    3  A    between atoms: C_5  and  C_6
REMARK    4  A    between atoms: C_9  and  C_10
REMARK    5  A    between atoms: C_10  and  N_11
REMARK    6  A    between atoms: N_14  and  C_15
REMARK                            x       y       z     vdW  Elec       q    Type
REMARK                         _______ _______ _______ _____ _____    ______ ____
ROOT
ATOM      1  C   UNL     1       2.949   6.095  18.016  0.00  0.00    +0.000 C 
ENDROOT
BRANCH   1   5
ATOM      2  C   UNL     1       1.021   9.722  19.562  0.00  0.00    +0.000 A 
ATOM      3  C   UNL     1       1.328   8.668  20.426  0.00  0.00    +0.000 A 
ATOM      4  C   UNL     1       1.964   7.509  19.952  0.00  0.00    +0.000 A 
ATOM      5  C   UNL     1       2.266   7.337  18.595  0.00  0.00    +0.000 A 
ATOM      6  C   UNL     1       2.024   8.441  17.753  0.00  0.00    +0.000 A 
ATOM      7  C   UNL     1       1.424   9.617  18.229  0.00  0.00    +0.000 A 
BRANCH   2   8
ATOM      8  C   UNL     1       0.282  10.938  20.052  0.00  0.00    +0.000 C 
BRANCH   8  12
ATOM      9  C   UNL     1      -2.930  11.662  18.216  0.00  0.00    +0.000 C 
ATOM     10  C   UNL     1      -1.483  11.808  18.610  0.00  0.00    +0.000 C 
ATOM     11  O   UNL     1      -0.740  12.623  18.076  0.00  0.00    +0.000 OA
ATOM     12  N   UNL     1      -1.091  10.955  19.611  0.00  0.00    +0.000 N 
ATOM     13  H   UNL     1      -1.696  10.191  19.880  0.00  0.00    +0.000 HD
ENDBRANCH   8  12
ENDBRANCH   2   8
ENDBRANCH   1   5
BRANCH   1  14
ATOM     14  N   UNL     1       4.365   5.831  18.354  0.00  0.00    +0.000 NA
ATOM     15  C   UNL     1       4.718   4.410  18.053  0.00  0.00    +0.000 C 
ATOM     16  C   UNL     1       4.870   4.042  16.548  0.00  0.00    +0.000 C 
ATOM     17  N   UNL     1       5.788   4.968  15.859  0.00  0.00    +0.000 N 
ATOM     18  C   UNL     1       5.537   6.399  16.131  0.00  0.00    +0.000 C 
ATOM     19  C   UNL     1       5.377   6.647  17.651  0.00  0.00    +0.000 C 
BRANCH  17  20
ATOM     20  C   UNL     1       6.260   4.655  14.580  0.00  0.00    +0.000 A 
ATOM     21  C   UNL     1       7.350   5.301  13.973  0.00  0.00    +0.000 A 
ATOM     22  C   UNL     1       7.754   5.002  12.662  0.00  0.00    +0.000 A 
ATOM     23  C   UNL     1       7.065   4.045  11.922  0.00  0.00    +0.000 A 
ATOM     24  C   UNL     1       5.985   3.384  12.497  0.00  0.00    +0.000 A 
ATOM     25  C   UNL     1       5.598   3.686  13.804  0.00  0.00    +0.000 A 
ENDBRANCH  17  20
ENDBRANCH   1  14
TORSDOF 5
ENDMDL
MODEL 4
REMARK VINA RESULT:      -7.4      0.520      1.106
REMARK  Name = 
REMARK  6 active torsions:
REMARK  status: ('A' for Active; 'I' for Inactive)
REMARK    1  A    between atoms: C_1  and  C_2
REMARK    2  A    between atoms: N_4  and  C_5
REMARK    3  A    between atoms: C_5  and  C_6
REMARK    4  A    between atoms: C_9  and  C_10
REMARK    5  A    between atoms: C_10  and  N_11
REMARK    6  A    between atoms: N_14  and  C_15
REMARK                            x       y       z     vdW  Elec       q    Type
REMARK                         _______ _______ _______ _____ _____    ______ ____
ROOT
ATOM      1  C   UNL     1       3.022   6.037  18.076  0.00  0.00    +0.000 C 
ENDROOT
BRANCH   1   5
ATOM      2  C   UNL     1       1.042   9.688  19.494  0.00  0.00    +0.000 A 
ATOM      3  C   UNL     1       1.341   8.658  20.390  0.00  0.00    +0.000 A 
ATOM      4  C   UNL     1       1.993   7.492  19.957  0.00  0.00    +0.000 A 
ATOM      5  C   UNL     1       2.320   7.288  18.611  0.00  0.00    +0.000 A 
ATOM      6  C   UNL     1       2.085   8.368  17.737  0.00  0.00    +0.000 A 
ATOM      7  C   UNL     1       1.468   9.552  18.172  0.00  0.00    +0.000 A 
BRANCH   2   8
ATOM      8  C   UNL     1       0.285  10.910  19.940  0.00  0.00    +0.000 C 
BRANCH   8  12
ATOM      9  C   UNL     1      -1.626  11.414  23.150  0.00  0.00    +0.000 C 
ATOM     10  C   UNL     1      -0.987  11.774  21.834  0.00  0.00    +0.000 C 
ATOM     11  O   UNL     1      -1.060  12.901  21.358  0.00  0.00    +0.000 OA
ATOM     12  N   UNL     1      -0.324  10.731  21.234  0.00  0.00    +0.000 N 
ATOM     13  H   UNL     1      -0.454   9.792  21.584  0.00  0.00    +0.000 HD
ENDBRANCH   8  12
ENDBRANCH   2   8
ENDBRANCH   1   5
BRANCH   1  14
ATOM     14  N   UNL     1       4.474   5.872  18.310  0.00  0.00    +0.000 NA
ATOM     15  C   UNL     1       4.890   4.462  18.039  0.00  0.00    +0.000 C 
ATOM     16  C   UNL     1       4.949   4.037  16.543  0.00  0.00    +0.000 C 
ATOM     17  N   UNL     1       5.751   4.984  15.746  0.00  0.00    +0.000 N 
ATOM     18  C   UNL     1       5.433   6.408  15.980  0.00  0.00    +0.000 C 
ATOM     19  C   UNL     1       5.375   6.715  17.496  0.00  0.00    +0.000 C 
BRANCH  17  20
ATOM     20  C   UNL     1       6.142   4.643  14.447  0.00  0.00    +0.000 A 
ATOM     21  C   UNL     1       5.468   3.698  13.655  0.00  0.00    +0.000 A 
ATOM     22  C   UNL     1       5.930   3.336  12.379  0.00  0.00    +0.000 A 
ATOM     23  C   UNL     1       7.089   3.913  11.868  0.00  0.00    +0.000 A 
ATOM     24  C   UNL     1       7.775   4.855  12.625  0.00  0.00    +0.000 A 
ATOM     25  C   UNL     1       7.302   5.211  13.890  0.00  0.00    +0.000 A 
ENDBRANCH  17  20
ENDBRANCH   1  14
TORSDOF 5
ENDMDL
MODEL 5
REMARK VINA RESULT:      -7.4      1.144      1.798
REMARK  Name = 
REMARK  6 active torsions:
REMARK  status: ('A' for Active; 'I' for Inactive)
REMARK    1  A    between atoms: C_1  and  C_2
REMARK    2  A    between atoms: N_4  and  C_5
REMARK    3  A    between atoms: C_5  and  C_6
REMARK    4  A    between atoms: C_9  and  C_10
REMARK    5  A    between atoms: C_10  and  N_11
REMARK    6  A    between atoms: N_14  and  C_15
REMARK                            x       y       z     vdW  Elec       q    Type
REMARK                         _______ _______ _______ _____ _____    ______ ____
ROOT
ATOM      1  C   UNL     1       3.441   5.823  18.291  0.00  0.00    +0.000 C 
ENDROOT
BRANCH   1   5
ATOM      2  C   UNL     1       1.114   9.196  19.862  0.00  0.00    +0.000 A 
ATOM      3  C   UNL     1       1.511   9.180  18.522  0.00  0.00    +0.000 A 
ATOM      4  C   UNL     1       2.238   8.099  17.998  0.00  0.00    +0.000 A 
ATOM      5  C   UNL     1       2.641   7.024  18.800  0.00  0.00    +0.000 A 
ATOM      6  C   UNL     1       2.164   7.018  20.126  0.00  0.00    +0.000 A 
ATOM      7  C   UNL     1       1.404   8.077  20.645  0.00  0.00    +0.000 A 
BRANCH   2   8
ATOM      8  C   UNL     1       0.393  10.381  20.445  0.00  0.00    +0.000 C 
BRANCH   8  12
ATOM      9  C   UNL     1      -0.317  13.402  18.304  0.00  0.00    +0.000 C 
ATOM     10  C   UNL     1      -0.604  12.149  19.091  0.00  0.00    +0.000 C 
ATOM     11  O   UNL     1      -1.739  11.712  19.233  0.00  0.00    +0.000 OA
ATOM     12  N   UNL     1       0.517  11.556  19.617  0.00  0.00    +0.000 N 
ATOM     13  H   UNL     1       1.394  12.059  19.617  0.00  0.00    +0.000 HD
ENDBRANCH   8  12
ENDBRANCH   2   8
ENDBRANCH   1   5
BRANCH   1  14
ATOM     14  N   UNL     1       4.916   5.841  18.405  0.00  0.00    +0.000 NA
ATOM     15  C   UNL     1       5.476   4.478  18.155  0.00  0.00    +0.000 C 
ATOM     16  C   UNL     1       5.465   3.990  16.676  0.00  0.00    +0.000 C 
ATOM     17  N   UNL     1       6.080   4.984  15.778  0.00  0.00    +0.000 N 
ATOM     18  C   UNL     1       5.612   6.371  15.982  0.00  0.00    +0.000 C 
ATOM     19  C   UNL     1       5.641   6.742  17.485  0.00  0.00    +0.000 C 
BRANCH  17  20
ATOM     20  C   UNL     1       6.403   4.627  14.464  0.00  0.00    +0.000 A 
ATOM     21  C   UNL     1       7.479   5.180  13.750  0.00  0.00    +0.000 A 
ATOM     22  C   UNL     1       7.732   4.843  12.411  0.00  0.00    +0.000 A 
ATOM     23  C   UNL     1       6.902   3.941  11.750  0.00  0.00    +0.000 A 
ATOM     24  C   UNL     1       5.831   3.373  12.431  0.00  0.00    +0.000 A 
ATOM     25  C   UNL     1       5.594   3.712  13.765  0.00  0.00    +0.000 A 
ENDBRANCH  17  20
ENDBRANCH   1  14
TORSDOF 5
ENDMDL
MODEL 6
REMARK VINA RESULT:      -7.4      1.166      1.365
REMARK  Name = 
REMARK  6 active torsions:
REMARK  status: ('A' for Active; 'I' for Inactive)
REMARK    1  A    between atoms: C_1  and  C_2
REMARK    2  A    between atoms: N_4  and  C_5
REMARK    3  A    between atoms: C_5  and  C_6
REMARK    4  A    between atoms: C_9  and  C_10
REMARK    5  A    between atoms: C_10  and  N_11
REMARK    6  A    between atoms: N_14  and  C_15
REMARK                            x       y       z     vdW  Elec       q    Type
REMARK                         _______ _______ _______ _____ _____    ______ ____
ROOT
ATOM      1  C   UNL     1       3.045   5.674  18.157  0.00  0.00    +0.000 C 
ENDROOT
BRANCH   1   5
ATOM      2  C   UNL     1       1.240   9.504  19.314  0.00  0.00    +0.000 A 
ATOM      3  C   UNL     1       1.462   8.513  20.274  0.00  0.00    +0.000 A 
ATOM      4  C   UNL     1       2.057   7.290  19.925  0.00  0.00    +0.000 A 
ATOM      5  C   UNL     1       2.402   6.991  18.601  0.00  0.00    +0.000 A 
ATOM      6  C   UNL     1       2.247   8.029  17.662  0.00  0.00    +0.000 A 
ATOM      7  C   UNL     1       1.688   9.268  18.012  0.00  0.00    +0.000 A 
BRANCH   2   8
ATOM      8  C   UNL     1       0.543  10.789  19.670  0.00  0.00    +0.000 C 
BRANCH   8  12
ATOM      9  C   UNL     1       2.510  13.907  20.459  0.00  0.00    +0.000 C 
ATOM     10  C   UNL     1       1.493  12.812  20.649  0.00  0.00    +0.000 C 
ATOM     11  O   UNL     1       0.793  12.737  21.652  0.00  0.00    +0.000 OA
ATOM     12  N   UNL     1       1.429  11.925  19.603  0.00  0.00    +0.000 N 
ATOM     13  H   UNL     1       2.151  11.937  18.895  0.00  0.00    +0.000 HD
ENDBRANCH   8  12
ENDBRANCH   2   8
ENDBRANCH   1   5
BRANCH   1  14
ATOM     14  N   UNL     1       4.474   5.435  18.455  0.00  0.00    +0.000 NA
ATOM     15  C   UNL     1       4.866   4.049  18.058  0.00  0.00    +0.000 C 
ATOM     16  C   UNL     1       5.005   3.784  16.530  0.00  0.00    +0.000 C 
ATOM     17  N   UNL     1       5.881   4.782  15.889  0.00  0.00    +0.000 N 
ATOM     18  C   UNL     1       5.590   6.183  16.257  0.00  0.00    +0.000 C 
ATOM     19  C   UNL     1       5.447   6.328  17.792  0.00  0.00    +0.000 C 
BRANCH  17  20
ATOM     20  C   UNL     1       6.342   4.567  14.586  0.00  0.00    +0.000 A 
ATOM     21  C   UNL     1       7.372   5.316  13.992  0.00  0.00    +0.000 A 
ATOM     22  C   UNL     1       7.762   5.113  12.658  0.00  0.00    +0.000 A 
ATOM     23  C   UNL     1       7.119   4.151  11.883  0.00  0.00    +0.000 A 
ATOM     24  C   UNL     1       6.100   3.390  12.444  0.00  0.00    +0.000 A 
ATOM     25  C   UNL     1       5.725   3.598  13.774  0.00  0.00    +0.000 A 
ENDBRANCH  17  20
ENDBRANCH   1  14
TORSDOF 5
ENDMDL
MODEL 7
REMARK VINA RESULT:      -7.3      1.176      2.066
REMARK  Name = 
REMARK  6 active torsions:
REMARK  status: ('A' for Active; 'I' for Inactive)
REMARK    1  A    between atoms: C_1  and  C_2
REMARK    2  A    between atoms: N_4  and  C_5
REMARK    3  A    between atoms: C_5  and  C_6
REMARK    4  A    between atoms: C_9  and  C_10
REMARK    5  A    between atoms: C_10  and  N_11
REMARK    6  A    between atoms: N_14  and  C_15
REMARK                            x       y       z     vdW  Elec       q    Type
REMARK                         _______ _______ _______ _____ _____    ______ ____
ROOT
ATOM      1  C   UNL     1       3.317   5.850  18.262  0.00  0.00    +0.000 C 
ENDROOT
BRANCH   1   5
ATOM      2  C   UNL     1       1.137   9.321  19.830  0.00  0.00    +0.000 A 
ATOM      3  C   UNL     1       1.525   9.283  18.488  0.00  0.00    +0.000 A 
ATOM      4  C   UNL     1       2.205   8.171  17.965  0.00  0.00    +0.000 A 
ATOM      5  C   UNL     1       2.569   7.085  18.770  0.00  0.00    +0.000 A 
ATOM      6  C   UNL     1       2.100   7.104  20.099  0.00  0.00    +0.000 A 
ATOM      7  C   UNL     1       1.386   8.195  20.617  0.00  0.00    +0.000 A 
BRANCH   2   8
ATOM      8  C   UNL     1       0.466  10.537  20.411  0.00  0.00    +0.000 C 
BRANCH   8  12
ATOM      9  C   UNL     1       0.614  13.849  18.617  0.00  0.00    +0.000 C 
ATOM     10  C   UNL     1       0.007  12.584  19.167  0.00  0.00    +0.000 C 
ATOM     11  O   UNL     1      -1.187  12.333  19.060  0.00  0.00    +0.000 OA
ATOM     12  N   UNL     1       0.912  11.756  19.783  0.00  0.00    +0.000 N 
ATOM     13  H   UNL     1       1.838  12.101  19.996  0.00  0.00    +0.000 HD
ENDBRANCH   8  12
ENDBRANCH   2   8
ENDBRANCH   1   5
BRANCH   1  14
ATOM     14  N   UNL     1       4.792   5.807  18.373  0.00  0.00    +0.000 NA
ATOM     15  C   UNL     1       5.297   4.428  18.096  0.00  0.00    +0.000 C 
ATOM     16  C   UNL     1       5.263   3.967  16.610  0.00  0.00    +0.000 C 
ATOM     17  N   UNL     1       5.915   4.952  15.727  0.00  0.00    +0.000 N 
ATOM     18  C   UNL     1       5.504   6.352  15.958  0.00  0.00    +0.000 C 
ATOM     19  C   UNL     1       5.550   6.695  17.467  0.00  0.00    +0.000 C 
BRANCH  17  20
ATOM     20  C   UNL     1       6.221   4.606  14.407  0.00  0.00    +0.000 A 
ATOM     21  C   UNL     1       5.465   3.700  13.644  0.00  0.00    +0.000 A 
ATOM     22  C   UNL     1       5.842   3.331  12.343  0.00  0.00    +0.000 A 
ATOM     23  C   UNL     1       6.997   3.860  11.775  0.00  0.00    +0.000 A 
ATOM     24  C   UNL     1       7.764   4.764  12.502  0.00  0.00    +0.000 A 
ATOM     25  C   UNL     1       7.375   5.128  13.793  0.00  0.00    +0.000 A 
ENDBRANCH  17  20
ENDBRANCH   1  14
TORSDOF 5
ENDMDL
MODEL 8
REMARK VINA RESULT:      -7.2      1.590      2.438
REMARK  Name = 
REMARK  6 active torsions:
REMARK  status: ('A' for Active; 'I' for Inactive)
REMARK    1  A    between atoms: C_1  and  C_2
REMARK    2  A    between atoms: N_4  and  C_5
REMARK    3  A    between atoms: C_5  and  C_6
REMARK    4  A    between atoms: C_9  and  C_10
REMARK    5  A    between atoms: C_10  and  N_11
REMARK    6  A    between atoms: N_14  and  C_15
REMARK                            x       y       z     vdW  Elec       q    Type
REMARK                         _______ _______ _______ _____ _____    ______ ____
ROOT
ATOM      1  C   UNL     1       3.708   5.798  18.577  0.00  0.00    +0.000 C 
ENDROOT
BRANCH   1   5
ATOM      2  C   UNL     1       1.182   9.364  18.980  0.00  0.00    +0.000 A 
ATOM      3  C   UNL     1       1.712   9.016  17.735  0.00  0.00    +0.000 A 
ATOM      4  C   UNL     1       2.505   7.867  17.584  0.00  0.00    +0.000 A 
ATOM      5  C   UNL     1       2.842   7.056  18.676  0.00  0.00    +0.000 A 
ATOM      6  C   UNL     1       2.233   7.376  19.906  0.00  0.00    +0.000 A 
ATOM      7  C   UNL     1       1.409   8.501  20.054  0.00  0.00    +0.000 A 
BRANCH   2   8
ATOM      8  C   UNL     1       0.386  10.629  19.159  0.00  0.00    +0.000 C 
BRANCH   8  12
ATOM      9  C   UNL     1      -2.241  11.135  16.504  0.00  0.00    +0.000 C 
ATOM     10  C   UNL     1      -1.621  10.611  17.773  0.00  0.00    +0.000 C 
ATOM     11  O   UNL     1      -2.237   9.896  18.555  0.00  0.00    +0.000 OA
ATOM     12  N   UNL     1      -0.318  11.005  17.959  0.00  0.00    +0.000 N 
ATOM     13  H   UNL     1       0.069  11.734  17.376  0.00  0.00    +0.000 HD
ENDBRANCH   8  12
ENDBRANCH   2   8
ENDBRANCH   1   5
BRANCH   1  14
ATOM     14  N   UNL     1       5.179   5.941  18.519  0.00  0.00    +0.000 NA
ATOM     15  C   UNL     1       5.821   4.620  18.238  0.00  0.00    +0.000 C 
ATOM     16  C   UNL     1       5.683   4.083  16.784  0.00  0.00    +0.000 C 
ATOM     17  N   UNL     1       6.105   5.093  15.796  0.00  0.00    +0.000 N 
ATOM     18  C   UNL     1       5.547   6.442  16.019  0.00  0.00    +0.000 C 
ATOM     19  C   UNL     1       5.714   6.866  17.499  0.00  0.00    +0.000 C 
BRANCH  17  20
ATOM     20  C   UNL     1       6.305   4.719  14.462  0.00  0.00    +0.000 A 
ATOM     21  C   UNL     1       5.493   3.797  13.782  0.00  0.00    +0.000 A 
ATOM     22  C   UNL     1       5.765   3.399  12.463  0.00  0.00    +0.000 A 
ATOM     23  C   UNL     1       6.871   3.917  11.794  0.00  0.00    +0.000 A 
ATOM     24  C   UNL     1       7.692   4.836  12.438  0.00  0.00    +0.000 A 
ATOM     25  C   UNL     1       7.405   5.228  13.748  0.00  0.00    +0.000 A 
ENDBRANCH  17  20
ENDBRANCH   1  14
TORSDOF 5
ENDMDL
MODEL 9
REMARK VINA RESULT:      -7.1      1.256      1.962
REMARK  Name = 
REMARK  6 active torsions:
REMARK  status: ('A' for Active; 'I' for Inactive)
REMARK    1  A    between atoms: C_1  and  C_2
REMARK    2  A    between atoms: N_4  and  C_5
REMARK    3  A    between atoms: C_5  and  C_6
REMARK    4  A    between atoms: C_9  and  C_10
REMARK    5  A    between atoms: C_10  and  N_11
REMARK    6  A    between atoms: N_14  and  C_15
REMARK                            x       y       z     vdW  Elec       q    Type
REMARK                         _______ _______ _______ _____ _____    ______ ____
ROOT
ATOM      1  C   UNL     1       3.113   5.490  18.141  0.00  0.00    +0.000 C 
ENDROOT
BRANCH   1   5
ATOM      2  C   UNL     1       1.334   9.349  19.238  0.00  0.00    +0.000 A 
ATOM      3  C   UNL     1       1.636   8.409  20.227  0.00  0.00    +0.000 A 
ATOM      4  C   UNL     1       2.225   7.178  19.895  0.00  0.00    +0.000 A 
ATOM      5  C   UNL     1       2.482   6.818  18.566  0.00  0.00    +0.000 A 
ATOM      6  C   UNL     1       2.246   7.808  17.592  0.00  0.00    +0.000 A 
ATOM      7  C   UNL     1       1.694   9.056  17.921  0.00  0.00    +0.000 A 
BRANCH   2   8
ATOM      8  C   UNL     1       0.644  10.642  19.580  0.00  0.00    +0.000 C 
BRANCH   8  12
ATOM      9  C   UNL     1       2.172  13.839  18.294  0.00  0.00    +0.000 C 
ATOM     10  C   UNL     1       1.715  12.816  19.302  0.00  0.00    +0.000 C 
ATOM     11  O   UNL     1       1.896  12.957  20.505  0.00  0.00    +0.000 OA
ATOM     12  N   UNL     1       1.083  11.731  18.744  0.00  0.00    +0.000 N 
ATOM     13  H   UNL     1       1.126  11.589  17.744  0.00  0.00    +0.000 HD
ENDBRANCH   8  12
ENDBRANCH   2   8
ENDBRANCH   1   5
BRANCH   1  14
ATOM     14  N   UNL     1       4.567   5.293  18.326  0.00  0.00    +0.000 NA
ATOM     15  C   UNL     1       4.971   3.927  17.872  0.00  0.00    +0.000 C 
ATOM     16  C   UNL     1       5.002   3.694  16.333  0.00  0.00    +0.000 C 
ATOM     17  N   UNL     1       5.794   4.731  15.648  0.00  0.00    +0.000 N 
ATOM     18  C   UNL     1       5.488   6.115  16.065  0.00  0.00    +0.000 C 
ATOM     19  C   UNL     1       5.458   6.229  17.609  0.00  0.00    +0.000 C 
BRANCH  17  20
ATOM     20  C   UNL     1       6.161   4.555  14.310  0.00  0.00    +0.000 A 
ATOM     21  C   UNL     1       5.443   3.754  13.405  0.00  0.00    +0.000 A 
ATOM     22  C   UNL     1       5.879   3.552  12.086  0.00  0.00    +0.000 A 
ATOM     23  C   UNL     1       7.057   4.146  11.642  0.00  0.00    +0.000 A 
ATOM     24  C   UNL     1       7.787   4.949  12.512  0.00  0.00    +0.000 A 
ATOM     25  C   UNL     1       7.339   5.148  13.820  0.00  0.00    +0.000 A 
ENDBRANCH  17  20
ENDBRANCH   1  14
TORSDOF 5
ENDMDL
