MODEL 1
REMARK VINA RESULT:      -8.1      0.000      0.000
REMARK  Name = 
REMARK  3 active torsions:
REMARK  status: ('A' for Active; 'I' for Inactive)
REMARK    1  A    between atoms: C_1  and  C_2
REMARK    2  A    between atoms: C_5  and  C_6
REMARK    3  A    between atoms: C_14  and  C_15
REMARK                            x       y       z     vdW  Elec       q    Type
REMARK                         _______ _______ _______ _____ _____    ______ ____
ROOT
ATOM      1  C   UNL     1       4.116   5.460  18.643  0.00  0.00    +0.000 A 
ATOM      2  C   UNL     1       3.699   4.710  19.718  0.00  0.00    +0.000 A 
ATOM      3  N   UNL     1       2.666   5.118  20.464  0.00  0.00    +0.000 NA
ATOM      4  N   UNL     1       2.058   6.289  20.120  0.00  0.00    +0.000 NA
ATOM      5  C   UNL     1       2.467   7.005  19.042  0.00  0.00    +0.000 A 
ATOM      6  N   UNL     1       1.805   8.174  18.739  0.00  0.00    +0.000 N 
ATOM      7  C   UNL     1       2.212   9.026  17.639  0.00  0.00    +0.000 C 
ATOM      8  C   UNL     1       2.013  10.451  18.156  0.00  0.00    +0.000 C 
ATOM      9  C   UNL     1       0.991  10.341  19.294  0.00  0.00    +0.000 C 
ATOM     10  C   UNL     1       1.214   8.921  19.844  0.00  0.00    +0.000 C 
ATOM     11  N   UNL     1       3.495   6.606  18.274  0.00  0.00    +0.000 NA
ENDROOT
BRANCH   1  16
ATOM     12  C   UNL     1       6.251   3.965  14.604  0.00  0.00    +0.000 C 
ATOM     13  C   UNL     1       6.270   4.406  16.013  0.00  0.00    +0.000 A 
ATOM     14  C   UNL     1       7.269   4.550  16.950  0.00  0.00    +0.000 A 
ATOM     15  C   UNL     1       6.639   4.999  18.137  0.00  0.00    +0.000 A 
ATOM     16  C   UNL     1       5.290   5.103  17.859  0.00  0.00    +0.000 A 
ATOM     17  O   UNL     1       5.068   4.746  16.554  0.00  0.00    +0.000 OA
ENDBRANCH   1  16
BRANCH   9  18
ATOM     18  C   UNL     1      -0.435  10.639  18.870  0.00  0.00    +0.000 A 
ATOM     19  C   UNL     1      -1.059   9.980  17.803  0.00  0.00    +0.000 A 
ATOM     20  C   UNL     1      -2.370  10.295  17.434  0.00  0.00    +0.000 A 
ATOM     21  C   UNL     1      -3.081  11.266  18.135  0.00  0.00    +0.000 A 
ATOM     22  C   UNL     1      -2.483  11.918  19.209  0.00  0.00    +0.000 A 
ATOM     23  C   UNL     1      -1.170  11.610  19.573  0.00  0.00    +0.000 A 
ENDBRANCH   9  18
TORSDOF 2
ENDMDL
MODEL 2
REMARK VINA RESULT:      -8.0      0.058      1.005
REMARK  Name = 
REMARK  3 active torsions:
REMARK  status: ('A' for Active; 'I' for Inactive)
REMARK    1  A    between atoms: C_1  and  C_2
REMARK    2  A    between atoms: C_5  and  C_6
REMARK    3  A    between atoms: C_14  and  C_15
REMARK                            x       y       z     vdW  Elec       q    Type
REMARK                         _______ _______ _______ _____ _____    ______ ____
ROOT
ATOM      1  C   UNL     1       4.103   5.467  18.648  0.00  0.00    +0.000 A 
ATOM      2  C   UNL     1       3.683   4.717  19.722  0.00  0.00    +0.000 A 
ATOM      3  N   UNL     1       2.651   5.127  20.468  0.00  0.00    +0.000 NA
ATOM      4  N   UNL     1       2.045   6.299  20.124  0.00  0.00    +0.000 NA
ATOM      5  C   UNL     1       2.456   7.015  19.046  0.00  0.00    +0.000 A 
ATOM      6  N   UNL     1       1.797   8.186  18.743  0.00  0.00    +0.000 N 
ATOM      7  C   UNL     1       2.206   9.037  17.644  0.00  0.00    +0.000 C 
ATOM      8  C   UNL     1       2.010  10.463  18.161  0.00  0.00    +0.000 C 
ATOM      9  C   UNL     1       0.987  10.354  19.299  0.00  0.00    +0.000 C 
ATOM     10  C   UNL     1       1.207   8.933  19.848  0.00  0.00    +0.000 C 
ATOM     11  N   UNL     1       3.484   6.614  18.278  0.00  0.00    +0.000 NA
ENDROOT
BRANCH   1  16
ATOM     12  C   UNL     1       6.234   3.956  14.613  0.00  0.00    +0.000 C 
ATOM     13  C   UNL     1       6.255   4.403  16.020  0.00  0.00    +0.000 A 
ATOM     14  C   UNL     1       7.254   4.553  16.955  0.00  0.00    +0.000 A 
ATOM     15  C   UNL     1       6.625   5.007  18.141  0.00  0.00    +0.000 A 
ATOM     16  C   UNL     1       5.276   5.108  17.864  0.00  0.00    +0.000 A 
ATOM     17  O   UNL     1       5.053   4.744  16.561  0.00  0.00    +0.000 OA
ENDBRANCH   1  16
BRANCH   9  18
ATOM     18  C   UNL     1      -0.438  10.655  18.875  0.00  0.00    +0.000 A 
ATOM     19  C   UNL     1      -1.228  11.619  19.515  0.00  0.00    +0.000 A 
ATOM     20  C   UNL     1      -2.543  11.855  19.103  0.00  0.00    +0.000 A 
ATOM     21  C   UNL     1      -3.083  11.141  18.037  0.00  0.00    +0.000 A 
ATOM     22  C   UNL     1      -2.307  10.192  17.379  0.00  0.00    +0.000 A 
ATOM     23  C   UNL     1      -0.996   9.948  17.795  0.00  0.00    +0.000 A 
ENDBRANCH   9  18
TORSDOF 2
ENDMDL
MODEL 3
REMARK VINA RESULT:      -7.4      4.281      6.478
REMARK  Name = 
REMARK  3 active torsions:
REMARK  status: ('A' for Active; 'I' for Inactive)
REMARK    1  A    between atoms: C_1  and  C_2
REMARK    2  A    between atoms: C_5  and  C_6
REMARK    3  A    between atoms: C_14  and  C_15
REMARK                            x       y       z     vdW  Elec       q    Type
REMARK                         _______ _______ _______ _____ _____    ______ ____
ROOT
ATOM      1  C   UNL     1       0.581   9.648  21.079  0.00  0.00    +0.000 A 
ATOM      2  C   UNL     1       1.043   9.191  22.292  0.00  0.00    +0.000 A 
ATOM      3  N   UNL     1       0.528   9.669  23.431  0.00  0.00    +0.000 NA
ATOM      4  N   UNL     1      -0.454  10.610  23.339  0.00  0.00    +0.000 NA
ATOM      5  C   UNL     1      -0.915  11.031  22.134  0.00  0.00    +0.000 A 
ATOM      6  N   UNL     1      -1.916  11.977  22.106  0.00  0.00    +0.000 N 
ATOM      7  C   UNL     1      -2.426  12.521  20.863  0.00  0.00    +0.000 C 
ATOM      8  C   UNL     1      -2.678  14.000  21.160  0.00  0.00    +0.000 C 
ATOM      9  C   UNL     1      -2.830  14.097  22.683  0.00  0.00    +0.000 C 
ATOM     10  C   UNL     1      -1.974  12.931  23.207  0.00  0.00    +0.000 C 
ATOM     11  N   UNL     1      -0.418  10.556  20.978  0.00  0.00    +0.000 NA
ENDROOT
BRANCH   1  16
ATOM     12  C   UNL     1       3.130   6.597  18.377  0.00  0.00    +0.000 C 
ATOM     13  C   UNL     1       2.352   7.834  18.579  0.00  0.00    +0.000 A 
ATOM     14  C   UNL     1       2.020   8.893  17.763  0.00  0.00    +0.000 A 
ATOM     15  C   UNL     1       1.261   9.786  18.559  0.00  0.00    +0.000 A 
ATOM     16  C   UNL     1       1.173   9.225  19.817  0.00  0.00    +0.000 A 
ATOM     17  O   UNL     1       1.836   8.025  19.825  0.00  0.00    +0.000 OA
ENDBRANCH   1  16
BRANCH   9  18
ATOM     18  C   UNL     1      -4.271  14.088  23.159  0.00  0.00    +0.000 A 
ATOM     19  C   UNL     1      -4.919  12.920  23.583  0.00  0.00    +0.000 A 
ATOM     20  C   UNL     1      -6.253  12.951  23.998  0.00  0.00    +0.000 A 
ATOM     21  C   UNL     1      -6.956  14.153  24.008  0.00  0.00    +0.000 A 
ATOM     22  C   UNL     1      -6.324  15.325  23.607  0.00  0.00    +0.000 A 
ATOM     23  C   UNL     1      -4.993  15.294  23.182  0.00  0.00    +0.000 A 
ENDBRANCH   9  18
TORSDOF 2
ENDMDL
MODEL 4
REMARK VINA RESULT:      -7.3      4.329      6.605
REMARK  Name = 
REMARK  3 active torsions:
REMARK  status: ('A' for Active; 'I' for Inactive)
REMARK    1  A    between atoms: C_1  and  C_2
REMARK    2  A    between atoms: C_5  and  C_6
REMARK    3  A    between atoms: C_14  and  C_15
REMARK                            x       y       z     vdW  Elec       q    Type
REMARK                         _______ _______ _______ _____ _____    ______ ____
ROOT
ATOM      1  C   UNL     1       0.512   9.756  21.045  0.00  0.00    +0.000 A 
ATOM      2  C   UNL     1       0.968   9.280  22.252  0.00  0.00    +0.000 A 
ATOM      3  N   UNL     1       0.439   9.728  23.397  0.00  0.00    +0.000 NA
ATOM      4  N   UNL     1      -0.551  10.661  23.316  0.00  0.00    +0.000 NA
ATOM      5  C   UNL     1      -1.006  11.103  22.116  0.00  0.00    +0.000 A 
ATOM      6  N   UNL     1      -2.017  12.038  22.099  0.00  0.00    +0.000 N 
ATOM      7  C   UNL     1      -2.523  12.603  20.863  0.00  0.00    +0.000 C 
ATOM      8  C   UNL     1      -2.792  14.073  21.188  0.00  0.00    +0.000 C 
ATOM      9  C   UNL     1      -2.957  14.137  22.712  0.00  0.00    +0.000 C 
ATOM     10  C   UNL     1      -2.093  12.969  23.219  0.00  0.00    +0.000 C 
ATOM     11  N   UNL     1      -0.496  10.656  20.955  0.00  0.00    +0.000 NA
ENDROOT
BRANCH   1  16
ATOM     12  C   UNL     1       3.076   6.764  18.291  0.00  0.00    +0.000 C 
ATOM     13  C   UNL     1       2.304   8.002  18.519  0.00  0.00    +0.000 A 
ATOM     14  C   UNL     1       1.992   9.087  17.729  0.00  0.00    +0.000 A 
ATOM     15  C   UNL     1       1.229   9.962  18.540  0.00  0.00    +0.000 A 
ATOM     16  C   UNL     1       1.119   9.365  19.780  0.00  0.00    +0.000 A 
ATOM     17  O   UNL     1       1.772   8.160  19.762  0.00  0.00    +0.000 OA
ENDBRANCH   1  16
BRANCH   9  18
ATOM     18  C   UNL     1      -4.402  14.104  23.175  0.00  0.00    +0.000 A 
ATOM     19  C   UNL     1      -5.234  15.231  23.136  0.00  0.00    +0.000 A 
ATOM     20  C   UNL     1      -6.555  15.162  23.587  0.00  0.00    +0.000 A 
ATOM     21  C   UNL     1      -7.068  13.962  24.071  0.00  0.00    +0.000 A 
ATOM     22  C   UNL     1      -6.262  12.828  24.101  0.00  0.00    +0.000 A 
ATOM     23  C   UNL     1      -4.939  12.898  23.659  0.00  0.00    +0.000 A 
ENDBRANCH   9  18
TORSDOF 2
ENDMDL
MODEL 5
REMARK VINA RESULT:      -7.2      0.885      1.630
REMARK  Name = 
REMARK  3 active torsions:
REMARK  status: ('A' for Active; 'I' for Inactive)
REMARK    1  A    between atoms: C_1  and  C_2
REMARK    2  A    between atoms: C_5  and  C_6
REMARK    3  A    between atoms: C_14  and  C_15
REMARK                            x       y       z     vdW  Elec       q    Type
REMARK                         _______ _______ _______ _____ _____    ______ ____
ROOT
ATOM      1  C   UNL     1       3.389   5.438  18.892  0.00  0.00    +0.000 A 
ATOM      2  C   UNL     1       3.045   4.797  20.060  0.00  0.00    +0.000 A 
ATOM      3  N   UNL     1       2.175   5.360  20.906  0.00  0.00    +0.000 NA
ATOM      4  N   UNL     1       1.654   6.574  20.568  0.00  0.00    +0.000 NA
ATOM      5  C   UNL     1       1.986   7.181  19.400  0.00  0.00    +0.000 A 
ATOM      6  N   UNL     1       1.418   8.402  19.109  0.00  0.00    +0.000 N 
ATOM      7  C   UNL     1       1.759   9.143  17.911  0.00  0.00    +0.000 C 
ATOM      8  C   UNL     1       1.787  10.607  18.354  0.00  0.00    +0.000 C 
ATOM      9  C   UNL     1       0.926  10.674  19.621  0.00  0.00    +0.000 C 
ATOM     10  C   UNL     1       1.068   9.268  20.230  0.00  0.00    +0.000 C 
ATOM     11  N   UNL     1       2.849   6.627  18.532  0.00  0.00    +0.000 NA
ENDROOT
BRANCH   1  16
ATOM     12  C   UNL     1       7.942   4.536  17.643  0.00  0.00    +0.000 C 
ATOM     13  C   UNL     1       6.485   4.504  17.406  0.00  0.00    +0.000 A 
ATOM     14  C   UNL     1       5.702   4.073  16.358  0.00  0.00    +0.000 A 
ATOM     15  C   UNL     1       4.360   4.331  16.732  0.00  0.00    +0.000 A 
ATOM     16  C   UNL     1       4.398   4.908  17.986  0.00  0.00    +0.000 A 
ATOM     17  O   UNL     1       5.702   5.006  18.400  0.00  0.00    +0.000 OA
ENDBRANCH   1  16
BRANCH   9  18
ATOM     18  C   UNL     1      -0.505  11.112  19.369  0.00  0.00    +0.000 A 
ATOM     19  C   UNL     1      -1.178  12.010  20.209  0.00  0.00    +0.000 A 
ATOM     20  C   UNL     1      -2.502  12.376  19.951  0.00  0.00    +0.000 A 
ATOM     21  C   UNL     1      -3.168  11.861  18.842  0.00  0.00    +0.000 A 
ATOM     22  C   UNL     1      -2.509  10.982  17.987  0.00  0.00    +0.000 A 
ATOM     23  C   UNL     1      -1.189  10.608  18.250  0.00  0.00    +0.000 A 
ENDBRANCH   9  18
TORSDOF 2
ENDMDL
MODEL 6
REMARK VINA RESULT:      -7.1      4.392      6.009
REMARK  Name = 
REMARK  3 active torsions:
REMARK  status: ('A' for Active; 'I' for Inactive)
REMARK    1  A    between atoms: C_1  and  C_2
REMARK    2  A    between atoms: C_5  and  C_6
REMARK    3  A    between atoms: C_14  and  C_15
REMARK                            x       y       z     vdW  Elec       q    Type
REMARK                         _______ _______ _______ _____ _____    ______ ____
ROOT
ATOM      1  C   UNL     1       0.964   9.830  19.461  0.00  0.00    +0.000 A 
ATOM      2  C   UNL     1      -0.035   9.748  20.403  0.00  0.00    +0.000 A 
ATOM      3  N   UNL     1      -0.637  10.859  20.845  0.00  0.00    +0.000 NA
ATOM      4  N   UNL     1      -0.223  12.052  20.333  0.00  0.00    +0.000 NA
ATOM      5  C   UNL     1       0.748  12.114  19.386  0.00  0.00    +0.000 A 
ATOM      6  N   UNL     1       1.115  13.349  18.899  0.00  0.00    +0.000 N 
ATOM      7  C   UNL     1       2.180  13.508  17.929  0.00  0.00    +0.000 C 
ATOM      8  C   UNL     1       2.902  14.788  18.349  0.00  0.00    +0.000 C 
ATOM      9  C   UNL     1       1.888  15.582  19.182  0.00  0.00    +0.000 C 
ATOM     10  C   UNL     1       0.993  14.492  19.797  0.00  0.00    +0.000 C 
ATOM     11  N   UNL     1       1.357  11.009  18.921  0.00  0.00    +0.000 NA
ENDROOT
BRANCH   1  16
ATOM     12  C   UNL     1       2.870   5.474  20.165  0.00  0.00    +0.000 C 
ATOM     13  C   UNL     1       2.593   6.668  19.342  0.00  0.00    +0.000 A 
ATOM     14  C   UNL     1       2.952   7.048  18.068  0.00  0.00    +0.000 A 
ATOM     15  C   UNL     1       2.382   8.328  17.859  0.00  0.00    +0.000 A 
ATOM     16  C   UNL     1       1.709   8.660  19.018  0.00  0.00    +0.000 A 
ATOM     17  O   UNL     1       1.834   7.637  19.923  0.00  0.00    +0.000 OA
ENDBRANCH   1  16
BRANCH   9  18
ATOM     18  C   UNL     1       1.143  16.644  18.395  0.00  0.00    +0.000 A 
ATOM     19  C   UNL     1       1.774  17.468  17.454  0.00  0.00    +0.000 A 
ATOM     20  C   UNL     1       1.054  18.446  16.761  0.00  0.00    +0.000 A 
ATOM     21  C   UNL     1      -0.310  18.604  16.989  0.00  0.00    +0.000 A 
ATOM     22  C   UNL     1      -0.957  17.783  17.907  0.00  0.00    +0.000 A 
ATOM     23  C   UNL     1      -0.237  16.812  18.607  0.00  0.00    +0.000 A 
ENDBRANCH   9  18
TORSDOF 2
ENDMDL
MODEL 7
REMARK VINA RESULT:      -7.1      0.905      1.315
REMARK  Name = 
REMARK  3 active torsions:
REMARK  status: ('A' for Active; 'I' for Inactive)
REMARK    1  A    between atoms: C_1  and  C_2
REMARK    2  A    between atoms: C_5  and  C_6
REMARK    3  A    between atoms: C_14  and  C_15
REMARK                            x       y       z     vdW  Elec       q    Type
REMARK                         _______ _______ _______ _____ _____    ______ ____
ROOT
ATOM      1  C   UNL     1       3.335   5.371  18.889  0.00  0.00    +0.000 A 
ATOM      2  C   UNL     1       2.986   4.725  20.052  0.00  0.00    +0.000 A 
ATOM      3  N   UNL     1       2.124   5.291  20.905  0.00  0.00    +0.000 NA
ATOM      4  N   UNL     1       1.617   6.513  20.578  0.00  0.00    +0.000 NA
ATOM      5  C   UNL     1       1.954   7.127  19.414  0.00  0.00    +0.000 A 
ATOM      6  N   UNL     1       1.401   8.357  19.135  0.00  0.00    +0.000 N 
ATOM      7  C   UNL     1       1.749   9.104  17.942  0.00  0.00    +0.000 C 
ATOM      8  C   UNL     1       1.795  10.563  18.397  0.00  0.00    +0.000 C 
ATOM      9  C   UNL     1       0.937  10.630  19.666  0.00  0.00    +0.000 C 
ATOM     10  C   UNL     1       1.063   9.217  20.263  0.00  0.00    +0.000 C 
ATOM     11  N   UNL     1       2.810   6.570  18.540  0.00  0.00    +0.000 NA
ENDROOT
BRANCH   1  16
ATOM     12  C   UNL     1       7.880   4.543  17.562  0.00  0.00    +0.000 C 
ATOM     13  C   UNL     1       6.420   4.466  17.361  0.00  0.00    +0.000 A 
ATOM     14  C   UNL     1       5.624   3.980  16.347  0.00  0.00    +0.000 A 
ATOM     15  C   UNL     1       4.285   4.217  16.745  0.00  0.00    +0.000 A 
ATOM     16  C   UNL     1       4.337   4.836  17.978  0.00  0.00    +0.000 A 
ATOM     17  O   UNL     1       5.647   4.981  18.357  0.00  0.00    +0.000 OA
ENDBRANCH   1  16
BRANCH   9  18
ATOM     18  C   UNL     1      -0.489  11.088  19.420  0.00  0.00    +0.000 A 
ATOM     19  C   UNL     1      -1.266  10.600  18.361  0.00  0.00    +0.000 A 
ATOM     20  C   UNL     1      -2.571  11.060  18.160  0.00  0.00    +0.000 A 
ATOM     21  C   UNL     1      -3.122  12.005  19.022  0.00  0.00    +0.000 A 
ATOM     22  C   UNL     1      -2.370  12.487  20.089  0.00  0.00    +0.000 A 
ATOM     23  C   UNL     1      -1.063  12.035  20.286  0.00  0.00    +0.000 A 
ENDBRANCH   9  18
TORSDOF 2
ENDMDL
MODEL 8
REMARK VINA RESULT:      -7.1      2.966      4.940
REMARK  Name = 
REMARK  3 active torsions:
REMARK  status: ('A' for Active; 'I' for Inactive)
REMARK    1  A    between atoms: C_1  and  C_2
REMARK    2  A    between atoms: C_5  and  C_6
REMARK    3  A    between atoms: C_14  and  C_15
REMARK                            x       y       z     vdW  Elec       q    Type
REMARK                         _______ _______ _______ _____ _____    ______ ____
ROOT
ATOM      1  C   UNL     1       2.179   7.636  19.173  0.00  0.00    +0.000 A 
ATOM      2  C   UNL     1       2.202   8.102  17.879  0.00  0.00    +0.000 A 
ATOM      3  N   UNL     1       1.672   9.295  17.583  0.00  0.00    +0.000 NA
ATOM      4  N   UNL     1       1.116  10.013  18.600  0.00  0.00    +0.000 NA
ATOM      5  C   UNL     1       1.124   9.549  19.875  0.00  0.00    +0.000 A 
ATOM      6  N   UNL     1       0.557  10.326  20.861  0.00  0.00    +0.000 N 
ATOM      7  C   UNL     1       0.473   9.882  22.239  0.00  0.00    +0.000 C 
ATOM      8  C   UNL     1      -0.886  10.383  22.728  0.00  0.00    +0.000 C 
ATOM      9  C   UNL     1      -1.257  11.548  21.801  0.00  0.00    +0.000 C 
ATOM     10  C   UNL     1      -0.548  11.200  20.481  0.00  0.00    +0.000 C 
ATOM     11  N   UNL     1       1.662   8.359  20.195  0.00  0.00    +0.000 NA
ENDROOT
BRANCH   1  16
ATOM     12  C   UNL     1       1.777   3.421  21.448  0.00  0.00    +0.000 C 
ATOM     13  C   UNL     1       2.485   4.380  20.578  0.00  0.00    +0.000 A 
ATOM     14  C   UNL     1       3.708   4.364  19.943  0.00  0.00    +0.000 A 
ATOM     15  C   UNL     1       3.820   5.604  19.266  0.00  0.00    +0.000 A 
ATOM     16  C   UNL     1       2.662   6.309  19.527  0.00  0.00    +0.000 A 
ATOM     17  O   UNL     1       1.842   5.553  20.325  0.00  0.00    +0.000 OA
ENDBRANCH   1  16
BRANCH   9  18
ATOM     18  C   UNL     1      -0.912  12.914  22.364  0.00  0.00    +0.000 A 
ATOM     19  C   UNL     1      -1.553  13.451  23.489  0.00  0.00    +0.000 A 
ATOM     20  C   UNL     1      -1.216  14.721  23.966  0.00  0.00    +0.000 A 
ATOM     21  C   UNL     1      -0.225  15.467  23.334  0.00  0.00    +0.000 A 
ATOM     22  C   UNL     1       0.434  14.943  22.227  0.00  0.00    +0.000 A 
ATOM     23  C   UNL     1       0.092  13.677  21.743  0.00  0.00    +0.000 A 
ENDBRANCH   9  18
TORSDOF 2
ENDMDL
MODEL 9
REMARK VINA RESULT:      -7.1      4.335      5.962
REMARK  Name = 
REMARK  3 active torsions:
REMARK  status: ('A' for Active; 'I' for Inactive)
REMARK    1  A    between atoms: C_1  and  C_2
REMARK    2  A    between atoms: C_5  and  C_6
REMARK    3  A    between atoms: C_14  and  C_15
REMARK                            x       y       z     vdW  Elec       q    Type
REMARK                         _______ _______ _______ _____ _____    ______ ____
ROOT
ATOM      1  C   UNL     1       0.999   9.691  19.795  0.00  0.00    +0.000 A 
ATOM      2  C   UNL     1       0.087   9.683  20.825  0.00  0.00    +0.000 A 
ATOM      3  N   UNL     1      -0.439  10.831  21.268  0.00  0.00    +0.000 NA
ATOM      4  N   UNL     1      -0.039  11.987  20.667  0.00  0.00    +0.000 NA
ATOM      5  C   UNL     1       0.843  11.975  19.635  0.00  0.00    +0.000 A 
ATOM      6  N   UNL     1       1.201  13.175  19.061  0.00  0.00    +0.000 N 
ATOM      7  C   UNL     1       2.177  13.257  17.993  0.00  0.00    +0.000 C 
ATOM      8  C   UNL     1       2.972  14.530  18.288  0.00  0.00    +0.000 C 
ATOM      9  C   UNL     1       2.061  15.392  19.171  0.00  0.00    +0.000 C 
ATOM     10  C   UNL     1       1.194  14.359  19.913  0.00  0.00    +0.000 C 
ATOM     11  N   UNL     1       1.375  10.832  19.168  0.00  0.00    +0.000 NA
ENDROOT
BRANCH   1  16
ATOM     12  C   UNL     1       2.584   5.201  20.448  0.00  0.00    +0.000 C 
ATOM     13  C   UNL     1       2.403   6.425  19.643  0.00  0.00    +0.000 A 
ATOM     14  C   UNL     1       2.806   6.799  18.380  0.00  0.00    +0.000 A 
ATOM     15  C   UNL     1       2.330   8.119  18.186  0.00  0.00    +0.000 A 
ATOM     16  C   UNL     1       1.665   8.478  19.342  0.00  0.00    +0.000 A 
ATOM     17  O   UNL     1       1.705   7.435  20.230  0.00  0.00    +0.000 OA
ENDBRANCH   1  16
BRANCH   9  18
ATOM     18  C   UNL     1       1.279  16.443  18.406  0.00  0.00    +0.000 A 
ATOM     19  C   UNL     1      -0.102  16.619  18.563  0.00  0.00    +0.000 A 
ATOM     20  C   UNL     1      -0.789  17.588  17.826  0.00  0.00    +0.000 A 
ATOM     21  C   UNL     1      -0.102  18.405  16.932  0.00  0.00    +0.000 A 
ATOM     22  C   UNL     1       1.272  18.256  16.776  0.00  0.00    +0.000 A 
ATOM     23  C   UNL     1       1.958  17.281  17.505  0.00  0.00    +0.000 A 
ENDBRANCH   9  18
TORSDOF 2
ENDMDL
