MODEL 1
REMARK VINA RESULT:      -6.3      0.000      0.000
REMARK  Name = 
REMARK  3 active torsions:
REMARK  status: ('A' for Active; 'I' for Inactive)
REMARK    1  A    between atoms: C_4  and  C_5
REMARK    2  A    between atoms: C_5  and  S_6
REMARK    3  A    between atoms: S_6  and  C_7
REMARK                            x       y       z     vdW  Elec       q    Type
REMARK                         _______ _______ _______ _____ _____    ______ ____
ROOT
ATOM      1  C   UNL     1       4.084   3.179  18.065  0.00  0.00    +0.000 C 
ENDROOT
BRANCH   1   5
ATOM      2  C   UNL     1       1.313   3.000  21.321  0.00  0.00    +0.000 A 
ATOM      3  C   UNL     1       0.863   3.443  20.086  0.00  0.00    +0.000 A 
ATOM      4  C   UNL     1       1.749   3.488  19.012  0.00  0.00    +0.000 A 
ATOM      5  C   UNL     1       3.079   3.107  19.204  0.00  0.00    +0.000 A 
ATOM      6  N   UNL     1       3.525   2.663  20.409  0.00  0.00    +0.000 NA
ATOM      7  C   UNL     1       2.641   2.621  21.431  0.00  0.00    +0.000 A 
ENDBRANCH   1   5
BRANCH   1   8
ATOM      8  S   UNL     1       4.097   4.842  17.299  0.00  0.00    +0.000 S 
BRANCH   8   9
ATOM      9  C   UNL     1       5.647   5.514  17.871  0.00  0.00    +0.000 A 
ATOM     10  C   UNL     1       6.187   6.575  17.146  0.00  0.00    +0.000 A 
ATOM     11  C   UNL     1       7.387   7.144  17.562  0.00  0.00    +0.000 A 
ATOM     12  C   UNL     1       8.017   6.640  18.692  0.00  0.00    +0.000 A 
ATOM     13  C   UNL     1       7.413   5.581  19.352  0.00  0.00    +0.000 A 
ATOM     14  N   UNL     1       6.247   5.002  18.967  0.00  0.00    +0.000 NA
ENDBRANCH   8   9
ENDBRANCH   1   8
TORSDOF 3
ENDMDL
MODEL 2
REMARK VINA RESULT:      -6.1      1.400      1.589
REMARK  Name = 
REMARK  3 active torsions:
REMARK  status: ('A' for Active; 'I' for Inactive)
REMARK    1  A    between atoms: C_4  and  C_5
REMARK    2  A    between atoms: C_5  and  S_6
REMARK    3  A    between atoms: S_6  and  C_7
REMARK                            x       y       z     vdW  Elec       q    Type
REMARK                         _______ _______ _______ _____ _____    ______ ____
ROOT
ATOM      1  C   UNL     1       3.424   4.961  17.317  0.00  0.00    +0.000 C 
ENDROOT
BRANCH   1   5
ATOM      2  C   UNL     1       0.769   2.985  20.029  0.00  0.00    +0.000 A 
ATOM      3  C   UNL     1       1.498   4.075  20.484  0.00  0.00    +0.000 A 
ATOM      4  C   UNL     1       2.352   4.740  19.607  0.00  0.00    +0.000 A 
ATOM      5  C   UNL     1       2.474   4.285  18.292  0.00  0.00    +0.000 A 
ATOM      6  N   UNL     1       1.756   3.224  17.836  0.00  0.00    +0.000 NA
ATOM      7  C   UNL     1       0.928   2.604  18.707  0.00  0.00    +0.000 A 
ENDBRANCH   1   5
BRANCH   1   8
ATOM      8  S   UNL     1       4.968   3.997  17.120  0.00  0.00    +0.000 S 
BRANCH   8   9
ATOM      9  C   UNL     1       6.206   5.132  17.721  0.00  0.00    +0.000 A 
ATOM     10  C   UNL     1       6.394   6.310  17.000  0.00  0.00    +0.000 A 
ATOM     11  C   UNL     1       7.339   7.234  17.437  0.00  0.00    +0.000 A 
ATOM     12  C   UNL     1       8.070   6.960  18.585  0.00  0.00    +0.000 A 
ATOM     13  C   UNL     1       7.822   5.763  19.240  0.00  0.00    +0.000 A 
ATOM     14  N   UNL     1       6.913   4.840  18.835  0.00  0.00    +0.000 NA
ENDBRANCH   8   9
ENDBRANCH   1   8
TORSDOF 3
ENDMDL
MODEL 3
REMARK VINA RESULT:      -6.0      1.609      5.945
REMARK  Name = 
REMARK  3 active torsions:
REMARK  status: ('A' for Active; 'I' for Inactive)
REMARK    1  A    between atoms: C_4  and  C_5
REMARK    2  A    between atoms: C_5  and  S_6
REMARK    3  A    between atoms: S_6  and  C_7
REMARK                            x       y       z     vdW  Elec       q    Type
REMARK                         _______ _______ _______ _____ _____    ______ ____
ROOT
ATOM      1  C   UNL     1       4.158   5.456  17.264  0.00  0.00    +0.000 C 
ENDROOT
BRANCH   1   5
ATOM      2  C   UNL     1       8.026   6.780  18.527  0.00  0.00    +0.000 A 
ATOM      3  C   UNL     1       7.399   5.773  19.245  0.00  0.00    +0.000 A 
ATOM      4  C   UNL     1       6.147   5.318  18.834  0.00  0.00    +0.000 A 
ATOM      5  C   UNL     1       5.539   5.899  17.719  0.00  0.00    +0.000 A 
ATOM      6  N   UNL     1       6.152   6.880  17.005  0.00  0.00    +0.000 NA
ATOM      7  C   UNL     1       7.370   7.295  17.422  0.00  0.00    +0.000 A 
ENDBRANCH   1   5
BRANCH   1   8
ATOM      8  S   UNL     1       2.845   6.256  18.257  0.00  0.00    +0.000 S 
BRANCH   8   9
ATOM      9  C   UNL     1       2.208   4.894  19.217  0.00  0.00    +0.000 A 
ATOM     10  C   UNL     1       2.555   4.848  20.566  0.00  0.00    +0.000 A 
ATOM     11  C   UNL     1       2.070   3.813  21.360  0.00  0.00    +0.000 A 
ATOM     12  C   UNL     1       1.249   2.851  20.787  0.00  0.00    +0.000 A 
ATOM     13  C   UNL     1       0.957   2.970  19.437  0.00  0.00    +0.000 A 
ATOM     14  N   UNL     1       1.419   3.964  18.637  0.00  0.00    +0.000 NA
ENDBRANCH   8   9
ENDBRANCH   1   8
TORSDOF 3
ENDMDL
MODEL 4
REMARK VINA RESULT:      -6.0      1.000      5.745
REMARK  Name = 
REMARK  3 active torsions:
REMARK  status: ('A' for Active; 'I' for Inactive)
REMARK    1  A    between atoms: C_4  and  C_5
REMARK    2  A    between atoms: C_5  and  S_6
REMARK    3  A    between atoms: S_6  and  C_7
REMARK                            x       y       z     vdW  Elec       q    Type
REMARK                         _______ _______ _______ _____ _____    ______ ____
ROOT
ATOM      1  C   UNL     1       4.209   5.041  17.191  0.00  0.00    +0.000 C 
ENDROOT
BRANCH   1   5
ATOM      2  C   UNL     1       7.916   6.611  18.642  0.00  0.00    +0.000 A 
ATOM      3  C   UNL     1       7.354   7.171  17.504  0.00  0.00    +0.000 A 
ATOM      4  C   UNL     1       6.138   6.683  17.031  0.00  0.00    +0.000 A 
ATOM      5  C   UNL     1       5.518   5.625  17.700  0.00  0.00    +0.000 A 
ATOM      6  N   UNL     1       6.057   5.078  18.821  0.00  0.00    +0.000 NA
ATOM      7  C   UNL     1       7.234   5.577  19.262  0.00  0.00    +0.000 A 
ENDBRANCH   1   5
BRANCH   1   8
ATOM      8  S   UNL     1       4.079   3.260  17.595  0.00  0.00    +0.000 S 
BRANCH   8   9
ATOM      9  C   UNL     1       2.963   3.265  18.987  0.00  0.00    +0.000 A 
ATOM     10  C   UNL     1       3.437   2.736  20.186  0.00  0.00    +0.000 A 
ATOM     11  C   UNL     1       2.609   2.731  21.304  0.00  0.00    +0.000 A 
ATOM     12  C   UNL     1       1.328   3.256  21.198  0.00  0.00    +0.000 A 
ATOM     13  C   UNL     1       0.935   3.759  19.967  0.00  0.00    +0.000 A 
ATOM     14  N   UNL     1       1.717   3.772  18.858  0.00  0.00    +0.000 NA
ENDBRANCH   8   9
ENDBRANCH   1   8
TORSDOF 3
ENDMDL
MODEL 5
REMARK VINA RESULT:      -6.0      0.728      1.288
REMARK  Name = 
REMARK  3 active torsions:
REMARK  status: ('A' for Active; 'I' for Inactive)
REMARK    1  A    between atoms: C_4  and  C_5
REMARK    2  A    between atoms: C_5  and  S_6
REMARK    3  A    between atoms: S_6  and  C_7
REMARK                            x       y       z     vdW  Elec       q    Type
REMARK                         _______ _______ _______ _____ _____    ______ ____
ROOT
ATOM      1  C   UNL     1       4.199   2.934  18.150  0.00  0.00    +0.000 C 
ENDROOT
BRANCH   1   5
ATOM      2  C   UNL     1       1.225   3.130  21.221  0.00  0.00    +0.000 A 
ATOM      3  C   UNL     1       2.497   2.685  21.551  0.00  0.00    +0.000 A 
ATOM      4  C   UNL     1       3.481   2.634  20.566  0.00  0.00    +0.000 A 
ATOM      5  C   UNL     1       3.162   3.012  19.260  0.00  0.00    +0.000 A 
ATOM      6  N   UNL     1       1.921   3.458  18.930  0.00  0.00    +0.000 NA
ATOM      7  C   UNL     1       0.989   3.505  19.909  0.00  0.00    +0.000 A 
ENDBRANCH   1   5
BRANCH   1   8
ATOM      8  S   UNL     1       4.236   4.479  17.169  0.00  0.00    +0.000 S 
BRANCH   8   9
ATOM      9  C   UNL     1       5.704   5.286  17.783  0.00  0.00    +0.000 A 
ATOM     10  C   UNL     1       6.160   6.400  17.080  0.00  0.00    +0.000 A 
ATOM     11  C   UNL     1       7.292   7.073  17.529  0.00  0.00    +0.000 A 
ATOM     12  C   UNL     1       7.940   6.618  18.670  0.00  0.00    +0.000 A 
ATOM     13  C   UNL     1       7.421   5.501  19.307  0.00  0.00    +0.000 A 
ATOM     14  N   UNL     1       6.323   4.820  18.890  0.00  0.00    +0.000 NA
ENDBRANCH   8   9
ENDBRANCH   1   8
TORSDOF 3
ENDMDL
MODEL 6
REMARK VINA RESULT:      -5.9      3.334      6.448
REMARK  Name = 
REMARK  3 active torsions:
REMARK  status: ('A' for Active; 'I' for Inactive)
REMARK    1  A    between atoms: C_4  and  C_5
REMARK    2  A    between atoms: C_5  and  S_6
REMARK    3  A    between atoms: S_6  and  C_7
REMARK                            x       y       z     vdW  Elec       q    Type
REMARK                         _______ _______ _______ _____ _____    ______ ____
ROOT
ATOM      1  C   UNL     1       6.695   5.149  16.272  0.00  0.00    +0.000 C 
ENDROOT
BRANCH   1   5
ATOM      2  C   UNL     1       7.108   4.257  12.107  0.00  0.00    +0.000 A 
ATOM      3  C   UNL     1       6.136   3.591  12.839  0.00  0.00    +0.000 A 
ATOM      4  C   UNL     1       5.977   3.885  14.192  0.00  0.00    +0.000 A 
ATOM      5  C   UNL     1       6.813   4.830  14.790  0.00  0.00    +0.000 A 
ATOM      6  N   UNL     1       7.762   5.494  14.078  0.00  0.00    +0.000 NA
ATOM      7  C   UNL     1       7.887   5.194  12.765  0.00  0.00    +0.000 A 
ENDBRANCH   1   5
BRANCH   1   8
ATOM      8  S   UNL     1       5.202   6.152  16.615  0.00  0.00    +0.000 S 
BRANCH   8   9
ATOM      9  C   UNL     1       4.237   5.061  17.644  0.00  0.00    +0.000 A 
ATOM     10  C   UNL     1       2.885   5.362  17.799  0.00  0.00    +0.000 A 
ATOM     11  C   UNL     1       2.086   4.531  18.579  0.00  0.00    +0.000 A 
ATOM     12  C   UNL     1       2.657   3.419  19.184  0.00  0.00    +0.000 A 
ATOM     13  C   UNL     1       4.011   3.195  18.981  0.00  0.00    +0.000 A 
ATOM     14  N   UNL     1       4.815   3.990  18.230  0.00  0.00    +0.000 NA
ENDBRANCH   8   9
ENDBRANCH   1   8
TORSDOF 3
ENDMDL
MODEL 7
REMARK VINA RESULT:      -5.9      1.663      5.856
REMARK  Name = 
REMARK  3 active torsions:
REMARK  status: ('A' for Active; 'I' for Inactive)
REMARK    1  A    between atoms: C_4  and  C_5
REMARK    2  A    between atoms: C_5  and  S_6
REMARK    3  A    between atoms: S_6  and  C_7
REMARK                            x       y       z     vdW  Elec       q    Type
REMARK                         _______ _______ _______ _____ _____    ______ ____
ROOT
ATOM      1  C   UNL     1       4.063   5.980  17.198  0.00  0.00    +0.000 C 
ENDROOT
BRANCH   1   5
ATOM      2  C   UNL     1       8.044   6.605  18.636  0.00  0.00    +0.000 A 
ATOM      3  C   UNL     1       7.246   5.665  19.271  0.00  0.00    +0.000 A 
ATOM      4  C   UNL     1       5.954   5.437  18.802  0.00  0.00    +0.000 A 
ATOM      5  C   UNL     1       5.480   6.174  17.714  0.00  0.00    +0.000 A 
ATOM      6  N   UNL     1       6.259   7.090  17.080  0.00  0.00    +0.000 NA
ATOM      7  C   UNL     1       7.512   7.284  17.552  0.00  0.00    +0.000 A 
ENDBRANCH   1   5
BRANCH   1   8
ATOM      8  S   UNL     1       2.834   6.687  18.357  0.00  0.00    +0.000 S 
BRANCH   8   9
ATOM      9  C   UNL     1       2.205   5.235  19.180  0.00  0.00    +0.000 A 
ATOM     10  C   UNL     1       1.647   4.240  18.379  0.00  0.00    +0.000 A 
ATOM     11  C   UNL     1       1.157   3.081  18.974  0.00  0.00    +0.000 A 
ATOM     12  C   UNL     1       1.238   2.944  20.353  0.00  0.00    +0.000 A 
ATOM     13  C   UNL     1       1.804   3.984  21.075  0.00  0.00    +0.000 A 
ATOM     14  N   UNL     1       2.286   5.127  20.524  0.00  0.00    +0.000 NA
ENDBRANCH   8   9
ENDBRANCH   1   8
TORSDOF 3
ENDMDL
MODEL 8
REMARK VINA RESULT:      -5.9      0.827      5.619
REMARK  Name = 
REMARK  3 active torsions:
REMARK  status: ('A' for Active; 'I' for Inactive)
REMARK    1  A    between atoms: C_4  and  C_5
REMARK    2  A    between atoms: C_5  and  S_6
REMARK    3  A    between atoms: S_6  and  C_7
REMARK                            x       y       z     vdW  Elec       q    Type
REMARK                         _______ _______ _______ _____ _____    ______ ____
ROOT
ATOM      1  C   UNL     1       4.019   4.721  17.112  0.00  0.00    +0.000 C 
ENDROOT
BRANCH   1   5
ATOM      2  C   UNL     1       7.759   6.476  18.226  0.00  0.00    +0.000 A 
ATOM      3  C   UNL     1       6.913   7.187  17.388  0.00  0.00    +0.000 A 
ATOM      4  C   UNL     1       5.683   6.636  17.032  0.00  0.00    +0.000 A 
ATOM      5  C   UNL     1       5.335   5.371  17.509  0.00  0.00    +0.000 A 
ATOM      6  N   UNL     1       6.156   4.672  18.338  0.00  0.00    +0.000 NA
ATOM      7  C   UNL     1       7.339   5.235  18.673  0.00  0.00    +0.000 A 
ENDBRANCH   1   5
BRANCH   1   8
ATOM      8  S   UNL     1       3.950   2.976  17.659  0.00  0.00    +0.000 S 
BRANCH   8   9
ATOM      9  C   UNL     1       2.969   3.080  19.146  0.00  0.00    +0.000 A 
ATOM     10  C   UNL     1       1.766   3.779  19.067  0.00  0.00    +0.000 A 
ATOM     11  C   UNL     1       0.958   3.876  20.196  0.00  0.00    +0.000 A 
ATOM     12  C   UNL     1       1.371   3.269  21.375  0.00  0.00    +0.000 A 
ATOM     13  C   UNL     1       2.583   2.596  21.367  0.00  0.00    +0.000 A 
ATOM     14  N   UNL     1       3.395   2.491  20.284  0.00  0.00    +0.000 NA
ENDBRANCH   8   9
ENDBRANCH   1   8
TORSDOF 3
ENDMDL
MODEL 9
REMARK VINA RESULT:      -5.9      1.372      5.897
REMARK  Name = 
REMARK  3 active torsions:
REMARK  status: ('A' for Active; 'I' for Inactive)
REMARK    1  A    between atoms: C_4  and  C_5
REMARK    2  A    between atoms: C_5  and  S_6
REMARK    3  A    between atoms: S_6  and  C_7
REMARK                            x       y       z     vdW  Elec       q    Type
REMARK                         _______ _______ _______ _____ _____    ______ ____
ROOT
ATOM      1  C   UNL     1       4.498   5.248  17.294  0.00  0.00    +0.000 C 
ENDROOT
BRANCH   1   5
ATOM      2  C   UNL     1       8.197   6.910  18.661  0.00  0.00    +0.000 A 
ATOM      3  C   UNL     1       7.547   7.515  17.595  0.00  0.00    +0.000 A 
ATOM      4  C   UNL     1       6.333   6.996  17.151  0.00  0.00    +0.000 A 
ATOM      5  C   UNL     1       5.802   5.865  17.775  0.00  0.00    +0.000 A 
ATOM      6  N   UNL     1       6.428   5.272  18.826  0.00  0.00    +0.000 NA
ATOM      7  C   UNL     1       7.601   5.803  19.240  0.00  0.00    +0.000 A 
ENDBRANCH   1   5
BRANCH   1   8
ATOM      8  S   UNL     1       3.053   6.157  17.954  0.00  0.00    +0.000 S 
BRANCH   8   9
ATOM      9  C   UNL     1       2.196   4.894  18.877  0.00  0.00    +0.000 A 
ATOM     10  C   UNL     1       1.679   3.819  18.157  0.00  0.00    +0.000 A 
ATOM     11  C   UNL     1       1.015   2.800  18.834  0.00  0.00    +0.000 A 
ATOM     12  C   UNL     1       0.886   2.880  20.214  0.00  0.00    +0.000 A 
ATOM     13  C   UNL     1       1.426   3.986  20.852  0.00  0.00    +0.000 A 
ATOM     14  N   UNL     1       2.074   4.997  20.219  0.00  0.00    +0.000 NA
ENDBRANCH   8   9
ENDBRANCH   1   8
TORSDOF 3
ENDMDL
