MODEL 1
REMARK VINA RESULT:      -8.8      0.000      0.000
REMARK  Name = 
REMARK  11 active torsions:
REMARK  status: ('A' for Active; 'I' for Inactive)
REMARK    1  A    between atoms: C_1  and  O_2
REMARK    2  A    between atoms: O_2  and  C_3
REMARK    3  A    between atoms: C_5  and  C_6
REMARK    4  A    between atoms: C_7  and  C_8
REMARK    5  A    between atoms: C_11  and  O_12
REMARK    6  A    between atoms: O_12  and  C_13
REMARK    7  A    between atoms: C_13  and  C_15
REMARK    8  A    between atoms: C_16  and  C_17
REMARK    9  A    between atoms: C_20  and  N_21
REMARK   10  A    between atoms: C_29  and  O_30
REMARK   11  A    between atoms: O_30  and  C_31
REMARK                            x       y       z     vdW  Elec       q    Type
REMARK                         _______ _______ _______ _____ _____    ______ ____
ROOT
ATOM      1  C   UNL     1       7.813   7.241  18.246  0.00  0.00    +0.000 A 
ATOM      2  C   UNL     1       7.012   7.352  17.100  0.00  0.00    +0.000 A 
ATOM      3  C   UNL     1       6.191   6.292  16.696  0.00  0.00    +0.000 A 
ATOM      4  C   UNL     1       6.183   5.106  17.430  0.00  0.00    +0.000 A 
ATOM      5  C   UNL     1       6.956   4.990  18.586  0.00  0.00    +0.000 A 
ATOM      6  C   UNL     1       7.783   6.046  18.977  0.00  0.00    +0.000 A 
ENDROOT
BRANCH   1   8
ATOM      7  C   UNL     1       8.630   9.582  18.271  0.00  0.00    +0.000 C 
ATOM      8  C   UNL     1       8.712   8.312  18.700  0.00  0.00    +0.000 C 
BRANCH   7  11
ATOM      9  C   UNL     1      11.046  12.473  18.229  0.00  0.00    +0.000 A 
ATOM     10  C   UNL     1      10.303  11.353  17.845  0.00  0.00    +0.000 A 
ATOM     11  C   UNL     1       9.466  10.693  18.755  0.00  0.00    +0.000 A 
ATOM     12  C   UNL     1       9.383  11.188  20.062  0.00  0.00    +0.000 A 
ATOM     13  C   UNL     1      10.116  12.311  20.459  0.00  0.00    +0.000 A 
ATOM     14  C   UNL     1      10.950  12.948  19.539  0.00  0.00    +0.000 A 
BRANCH   9  16
ATOM     15  C   UNL     1      12.279  14.352  17.451  0.00  0.00    +0.000 C 
ATOM     16  O   UNL     1      11.811  13.025  17.236  0.00  0.00    +0.000 OA
ENDBRANCH   9  16
BRANCH  13  17
ATOM     17  O   UNL     1       9.918  12.693  21.758  0.00  0.00    +0.000 OA
ATOM     18  C   UNL     1       9.619  14.066  21.985  0.00  0.00    +0.000 C 
ENDBRANCH  13  17
ENDBRANCH   7  11
ENDBRANCH   1   8
BRANCH   4  19
ATOM     19  O   UNL     1       5.334   4.084  16.960  0.00  0.00    +0.000 OA
BRANCH  19  20
ATOM     20  C   UNL     1       4.043   3.993  17.461  0.00  0.00    +0.000 C 
ATOM     21  O   UNL     1       3.435   2.986  17.788  0.00  0.00    +0.000 OA
BRANCH  20  22
ATOM     22  C   UNL     1       3.463   5.357  17.509  0.00  0.00    +0.000 C 
ATOM     23  C   UNL     1       3.108   5.842  18.710  0.00  0.00    +0.000 C 
BRANCH  23  24
ATOM     24  C   UNL     1       2.406   7.106  18.964  0.00  0.00    +0.000 A 
ATOM     25  C   UNL     1       1.948   7.344  20.271  0.00  0.00    +0.000 A 
ATOM     26  C   UNL     1       1.270   8.523  20.594  0.00  0.00    +0.000 A 
ATOM     27  C   UNL     1       1.055   9.481  19.599  0.00  0.00    +0.000 A 
ATOM     28  C   UNL     1       1.521   9.271  18.295  0.00  0.00    +0.000 A 
ATOM     29  C   UNL     1       2.199   8.085  17.984  0.00  0.00    +0.000 A 
BRANCH  27  30
ATOM     30  N   UNL     1       0.339  10.720  19.931  0.00  0.00    +0.000 N 
ATOM     31  O   UNL     1      -0.815  10.619  20.370  0.00  0.00    +0.000 OA
ATOM     32  O   UNL     1       0.930  11.793  19.745  0.00  0.00    +0.000 OA
ENDBRANCH  27  30
ENDBRANCH  23  24
ENDBRANCH  20  22
ENDBRANCH  19  20
ENDBRANCH   4  19
TORSDOF 9
ENDMDL
MODEL 2
REMARK VINA RESULT:      -8.8      0.596      1.049
REMARK  Name = 
REMARK  11 active torsions:
REMARK  status: ('A' for Active; 'I' for Inactive)
REMARK    1  A    between atoms: C_1  and  O_2
REMARK    2  A    between atoms: O_2  and  C_3
REMARK    3  A    between atoms: C_5  and  C_6
REMARK    4  A    between atoms: C_7  and  C_8
REMARK    5  A    between atoms: C_11  and  O_12
REMARK    6  A    between atoms: O_12  and  C_13
REMARK    7  A    between atoms: C_13  and  C_15
REMARK    8  A    between atoms: C_16  and  C_17
REMARK    9  A    between atoms: C_20  and  N_21
REMARK   10  A    between atoms: C_29  and  O_30
REMARK   11  A    between atoms: O_30  and  C_31
REMARK                            x       y       z     vdW  Elec       q    Type
REMARK                         _______ _______ _______ _____ _____    ______ ____
ROOT
ATOM      1  C   UNL     1       7.802   7.204  18.155  0.00  0.00    +0.000 A 
ATOM      2  C   UNL     1       6.916   7.377  17.082  0.00  0.00    +0.000 A 
ATOM      3  C   UNL     1       6.082   6.332  16.667  0.00  0.00    +0.000 A 
ATOM      4  C   UNL     1       6.144   5.100  17.317  0.00  0.00    +0.000 A 
ATOM      5  C   UNL     1       7.001   4.920  18.402  0.00  0.00    +0.000 A 
ATOM      6  C   UNL     1       7.842   5.962  18.803  0.00  0.00    +0.000 A 
ENDROOT
BRANCH   1   8
ATOM      7  C   UNL     1       8.540   9.563  18.353  0.00  0.00    +0.000 C 
ATOM      8  C   UNL     1       8.718   8.257  18.615  0.00  0.00    +0.000 C 
BRANCH   7  11
ATOM      9  C   UNL     1      11.000  12.417  18.354  0.00  0.00    +0.000 A 
ATOM     10  C   UNL     1      10.237  11.317  17.951  0.00  0.00    +0.000 A 
ATOM     11  C   UNL     1       9.397  10.651  18.853  0.00  0.00    +0.000 A 
ATOM     12  C   UNL     1       9.330  11.118  20.172  0.00  0.00    +0.000 A 
ATOM     13  C   UNL     1      10.083  12.221  20.587  0.00  0.00    +0.000 A 
ATOM     14  C   UNL     1      10.920  12.865  19.675  0.00  0.00    +0.000 A 
BRANCH   9  16
ATOM     15  C   UNL     1      11.390  14.279  16.928  0.00  0.00    +0.000 C 
ATOM     16  O   UNL     1      11.765  12.978  17.368  0.00  0.00    +0.000 OA
ENDBRANCH   9  16
BRANCH  13  17
ATOM     17  O   UNL     1       9.901  12.578  21.896  0.00  0.00    +0.000 OA
ATOM     18  C   UNL     1       8.557  12.719  22.341  0.00  0.00    +0.000 C 
ENDBRANCH  13  17
ENDBRANCH   7  11
ENDBRANCH   1   8
BRANCH   4  19
ATOM     19  O   UNL     1       5.275   4.096  16.842  0.00  0.00    +0.000 OA
BRANCH  19  20
ATOM     20  C   UNL     1       4.075   3.873  17.501  0.00  0.00    +0.000 C 
ATOM     21  O   UNL     1       3.342   2.900  17.415  0.00  0.00    +0.000 OA
BRANCH  20  22
ATOM     22  C   UNL     1       3.771   5.060  18.336  0.00  0.00    +0.000 C 
ATOM     23  C   UNL     1       2.627   5.719  18.091  0.00  0.00    +0.000 C 
BRANCH  23  24
ATOM     24  C   UNL     1       2.201   6.980  18.710  0.00  0.00    +0.000 A 
ATOM     25  C   UNL     1       2.029   8.091  17.868  0.00  0.00    +0.000 A 
ATOM     26  C   UNL     1       1.626   9.328  18.380  0.00  0.00    +0.000 A 
ATOM     27  C   UNL     1       1.380   9.453  19.750  0.00  0.00    +0.000 A 
ATOM     28  C   UNL     1       1.526   8.351  20.602  0.00  0.00    +0.000 A 
ATOM     29  C   UNL     1       1.932   7.116  20.077  0.00  0.00    +0.000 A 
BRANCH  27  30
ATOM     30  N   UNL     1       0.960  10.750  20.296  0.00  0.00    +0.000 N 
ATOM     31  O   UNL     1       0.946  10.880  21.528  0.00  0.00    +0.000 OA
ATOM     32  O   UNL     1       0.639  11.636  19.491  0.00  0.00    +0.000 OA
ENDBRANCH  27  30
ENDBRANCH  23  24
ENDBRANCH  20  22
ENDBRANCH  19  20
ENDBRANCH   4  19
TORSDOF 9
ENDMDL
MODEL 3
REMARK VINA RESULT:      -8.7      0.657      1.375
REMARK  Name = 
REMARK  11 active torsions:
REMARK  status: ('A' for Active; 'I' for Inactive)
REMARK    1  A    between atoms: C_1  and  O_2
REMARK    2  A    between atoms: O_2  and  C_3
REMARK    3  A    between atoms: C_5  and  C_6
REMARK    4  A    between atoms: C_7  and  C_8
REMARK    5  A    between atoms: C_11  and  O_12
REMARK    6  A    between atoms: O_12  and  C_13
REMARK    7  A    between atoms: C_13  and  C_15
REMARK    8  A    between atoms: C_16  and  C_17
REMARK    9  A    between atoms: C_20  and  N_21
REMARK   10  A    between atoms: C_29  and  O_30
REMARK   11  A    between atoms: O_30  and  C_31
REMARK                            x       y       z     vdW  Elec       q    Type
REMARK                         _______ _______ _______ _____ _____    ______ ____
ROOT
ATOM      1  C   UNL     1       7.816   7.165  18.245  0.00  0.00    +0.000 A 
ATOM      2  C   UNL     1       7.617   5.962  18.937  0.00  0.00    +0.000 A 
ATOM      3  C   UNL     1       6.707   5.008  18.465  0.00  0.00    +0.000 A 
ATOM      4  C   UNL     1       5.978   5.264  17.305  0.00  0.00    +0.000 A 
ATOM      5  C   UNL     1       6.183   6.445  16.592  0.00  0.00    +0.000 A 
ATOM      6  C   UNL     1       7.082   7.399  17.075  0.00  0.00    +0.000 A 
ENDROOT
BRANCH   1   8
ATOM      7  C   UNL     1       8.572   9.518  18.445  0.00  0.00    +0.000 C 
ATOM      8  C   UNL     1       8.739   8.211  18.708  0.00  0.00    +0.000 C 
BRANCH   7  11
ATOM      9  C   UNL     1      11.137  12.279  18.476  0.00  0.00    +0.000 A 
ATOM     10  C   UNL     1      10.361  11.187  18.076  0.00  0.00    +0.000 A 
ATOM     11  C   UNL     1       9.436  10.599  18.949  0.00  0.00    +0.000 A 
ATOM     12  C   UNL     1       9.299  11.136  20.236  0.00  0.00    +0.000 A 
ATOM     13  C   UNL     1      10.066  12.231  20.646  0.00  0.00    +0.000 A 
ATOM     14  C   UNL     1      10.986  12.797  19.764  0.00  0.00    +0.000 A 
BRANCH   9  16
ATOM     15  C   UNL     1      11.457  13.722  16.614  0.00  0.00    +0.000 C 
ATOM     16  O   UNL     1      11.989  12.760  17.518  0.00  0.00    +0.000 OA
ENDBRANCH   9  16
BRANCH  13  17
ATOM     17  O   UNL     1       9.810  12.662  21.920  0.00  0.00    +0.000 OA
ATOM     18  C   UNL     1       8.607  12.202  22.524  0.00  0.00    +0.000 C 
ENDBRANCH  13  17
ENDBRANCH   7  11
ENDBRANCH   1   8
BRANCH   4  19
ATOM     19  O   UNL     1       5.079   4.258  16.894  0.00  0.00    +0.000 OA
BRANCH  19  20
ATOM     20  C   UNL     1       3.746   4.349  17.268  0.00  0.00    +0.000 C 
ATOM     21  O   UNL     1       2.892   3.477  17.217  0.00  0.00    +0.000 OA
BRANCH  20  22
ATOM     22  C   UNL     1       3.480   5.735  17.722  0.00  0.00    +0.000 C 
ATOM     23  C   UNL     1       2.546   5.913  18.670  0.00  0.00    +0.000 C 
BRANCH  23  24
ATOM     24  C   UNL     1       2.044   7.200  19.165  0.00  0.00    +0.000 A 
ATOM     25  C   UNL     1       1.864   8.231  18.229  0.00  0.00    +0.000 A 
ATOM     26  C   UNL     1       1.391   9.487  18.620  0.00  0.00    +0.000 A 
ATOM     27  C   UNL     1       1.083   9.711  19.964  0.00  0.00    +0.000 A 
ATOM     28  C   UNL     1       1.236   8.689  20.910  0.00  0.00    +0.000 A 
ATOM     29  C   UNL     1       1.711   7.435  20.505  0.00  0.00    +0.000 A 
BRANCH  27  30
ATOM     30  N   UNL     1       0.589  11.030  20.384  0.00  0.00    +0.000 N 
ATOM     31  O   UNL     1      -0.470  11.435  19.884  0.00  0.00    +0.000 OA
ATOM     32  O   UNL     1       1.264  11.661  21.209  0.00  0.00    +0.000 OA
ENDBRANCH  27  30
ENDBRANCH  23  24
ENDBRANCH  20  22
ENDBRANCH  19  20
ENDBRANCH   4  19
TORSDOF 9
ENDMDL
MODEL 4
REMARK VINA RESULT:      -8.4      0.823      2.186
REMARK  Name = 
REMARK  11 active torsions:
REMARK  status: ('A' for Active; 'I' for Inactive)
REMARK    1  A    between atoms: C_1  and  O_2
REMARK    2  A    between atoms: O_2  and  C_3
REMARK    3  A    between atoms: C_5  and  C_6
REMARK    4  A    between atoms: C_7  and  C_8
REMARK    5  A    between atoms: C_11  and  O_12
REMARK    6  A    between atoms: O_12  and  C_13
REMARK    7  A    between atoms: C_13  and  C_15
REMARK    8  A    between atoms: C_16  and  C_17
REMARK    9  A    between atoms: C_20  and  N_21
REMARK   10  A    between atoms: C_29  and  O_30
REMARK   11  A    between atoms: O_30  and  C_31
REMARK                            x       y       z     vdW  Elec       q    Type
REMARK                         _______ _______ _______ _____ _____    ______ ____
ROOT
ATOM      1  C   UNL     1       7.703   7.158  18.280  0.00  0.00    +0.000 A 
ATOM      2  C   UNL     1       6.853   7.250  17.167  0.00  0.00    +0.000 A 
ATOM      3  C   UNL     1       6.054   6.166  16.786  0.00  0.00    +0.000 A 
ATOM      4  C   UNL     1       6.115   4.975  17.509  0.00  0.00    +0.000 A 
ATOM      5  C   UNL     1       6.937   4.876  18.632  0.00  0.00    +0.000 A 
ATOM      6  C   UNL     1       7.743   5.956  19.000  0.00  0.00    +0.000 A 
ENDROOT
BRANCH   1   8
ATOM      7  C   UNL     1       8.543   9.488  18.178  0.00  0.00    +0.000 C 
ATOM      8  C   UNL     1       8.582   8.255  18.708  0.00  0.00    +0.000 C 
BRANCH   7  11
ATOM      9  C   UNL     1      10.094  12.048  20.468  0.00  0.00    +0.000 A 
ATOM     10  C   UNL     1       9.272  11.034  19.966  0.00  0.00    +0.000 A 
ATOM     11  C   UNL     1       9.359  10.629  18.628  0.00  0.00    +0.000 A 
ATOM     12  C   UNL     1      10.296  11.259  17.800  0.00  0.00    +0.000 A 
ATOM     13  C   UNL     1      11.128  12.272  18.290  0.00  0.00    +0.000 A 
ATOM     14  C   UNL     1      11.020  12.665  19.624  0.00  0.00    +0.000 A 
BRANCH   9  16
ATOM     15  C   UNL     1       9.369  13.611  22.106  0.00  0.00    +0.000 C 
ATOM     16  O   UNL     1       9.911  12.333  21.794  0.00  0.00    +0.000 OA
ENDBRANCH   9  16
BRANCH  13  17
ATOM     17  O   UNL     1      12.009  12.780  17.374  0.00  0.00    +0.000 OA
ATOM     18  C   UNL     1      12.333  14.161  17.494  0.00  0.00    +0.000 C 
ENDBRANCH  13  17
ENDBRANCH   7  11
ENDBRANCH   1   8
BRANCH   4  19
ATOM     19  O   UNL     1       5.283   3.928  17.063  0.00  0.00    +0.000 OA
BRANCH  19  20
ATOM     20  C   UNL     1       3.906   4.072  17.156  0.00  0.00    +0.000 C 
ATOM     21  O   UNL     1       3.048   3.524  16.482  0.00  0.00    +0.000 OA
BRANCH  20  22
ATOM     22  C   UNL     1       3.610   5.067  18.215  0.00  0.00    +0.000 C 
ATOM     23  C   UNL     1       2.535   5.855  18.047  0.00  0.00    +0.000 C 
BRANCH  23  24
ATOM     24  C   UNL     1       2.140   6.979  18.904  0.00  0.00    +0.000 A 
ATOM     25  C   UNL     1       1.955   6.719  20.273  0.00  0.00    +0.000 A 
ATOM     26  C   UNL     1       1.578   7.735  21.155  0.00  0.00    +0.000 A 
ATOM     27  C   UNL     1       1.392   9.031  20.665  0.00  0.00    +0.000 A 
ATOM     28  C   UNL     1       1.591   9.314  19.308  0.00  0.00    +0.000 A 
ATOM     29  C   UNL     1       1.969   8.286  18.433  0.00  0.00    +0.000 A 
BRANCH  27  30
ATOM     30  N   UNL     1       0.991  10.103  21.586  0.00  0.00    +0.000 N 
ATOM     31  O   UNL     1       0.702   9.786  22.748  0.00  0.00    +0.000 OA
ATOM     32  O   UNL     1       0.960  11.260  21.143  0.00  0.00    +0.000 OA
ENDBRANCH  27  30
ENDBRANCH  23  24
ENDBRANCH  20  22
ENDBRANCH  19  20
ENDBRANCH   4  19
TORSDOF 9
ENDMDL
MODEL 5
REMARK VINA RESULT:      -8.3      0.907      1.328
REMARK  Name = 
REMARK  11 active torsions:
REMARK  status: ('A' for Active; 'I' for Inactive)
REMARK    1  A    between atoms: C_1  and  O_2
REMARK    2  A    between atoms: O_2  and  C_3
REMARK    3  A    between atoms: C_5  and  C_6
REMARK    4  A    between atoms: C_7  and  C_8
REMARK    5  A    between atoms: C_11  and  O_12
REMARK    6  A    between atoms: O_12  and  C_13
REMARK    7  A    between atoms: C_13  and  C_15
REMARK    8  A    between atoms: C_16  and  C_17
REMARK    9  A    between atoms: C_20  and  N_21
REMARK   10  A    between atoms: C_29  and  O_30
REMARK   11  A    between atoms: O_30  and  C_31
REMARK                            x       y       z     vdW  Elec       q    Type
REMARK                         _______ _______ _______ _____ _____    ______ ____
ROOT
ATOM      1  C   UNL     1       8.014   8.290  18.083  0.00  0.00    +0.000 A 
ATOM      2  C   UNL     1       8.336   7.291  19.013  0.00  0.00    +0.000 A 
ATOM      3  C   UNL     1       7.808   6.001  18.888  0.00  0.00    +0.000 A 
ATOM      4  C   UNL     1       6.937   5.710  17.838  0.00  0.00    +0.000 A 
ATOM      5  C   UNL     1       6.627   6.686  16.892  0.00  0.00    +0.000 A 
ATOM      6  C   UNL     1       7.147   7.976  17.028  0.00  0.00    +0.000 A 
ENDROOT
BRANCH   1   8
ATOM      7  C   UNL     1       9.164  10.147  19.257  0.00  0.00    +0.000 C 
ATOM      8  C   UNL     1       8.519   9.667  18.181  0.00  0.00    +0.000 C 
BRANCH   7  11
ATOM      9  C   UNL     1      10.677  13.442  18.231  0.00  0.00    +0.000 A 
ATOM     10  C   UNL     1      10.206  12.126  18.201  0.00  0.00    +0.000 A 
ATOM     11  C   UNL     1       9.744  11.496  19.364  0.00  0.00    +0.000 A 
ATOM     12  C   UNL     1       9.756  12.219  20.563  0.00  0.00    +0.000 A 
ATOM     13  C   UNL     1      10.220  13.538  20.607  0.00  0.00    +0.000 A 
ATOM     14  C   UNL     1      10.683  14.144  19.439  0.00  0.00    +0.000 A 
BRANCH   9  16
ATOM     15  C   UNL     1      12.180  13.274  16.397  0.00  0.00    +0.000 C 
ATOM     16  O   UNL     1      11.085  13.935  17.021  0.00  0.00    +0.000 OA
ENDBRANCH   9  16
BRANCH  13  17
ATOM     17  O   UNL     1      10.153  14.127  21.841  0.00  0.00    +0.000 OA
ATOM     18  C   UNL     1       8.867  14.204  22.446  0.00  0.00    +0.000 C 
ENDBRANCH  13  17
ENDBRANCH   7  11
ENDBRANCH   1   8
BRANCH   4  19
ATOM     19  O   UNL     1       6.444   4.390  17.780  0.00  0.00    +0.000 OA
BRANCH  19  20
ATOM     20  C   UNL     1       5.077   4.174  17.884  0.00  0.00    +0.000 C 
ATOM     21  O   UNL     1       4.430   3.237  17.443  0.00  0.00    +0.000 OA
BRANCH  20  22
ATOM     22  C   UNL     1       4.475   5.320  18.607  0.00  0.00    +0.000 C 
ATOM     23  C   UNL     1       3.285   5.772  18.179  0.00  0.00    +0.000 C 
BRANCH  23  24
ATOM     24  C   UNL     1       2.581   6.964  18.667  0.00  0.00    +0.000 A 
ATOM     25  C   UNL     1       2.170   6.971  20.011  0.00  0.00    +0.000 A 
ATOM     26  C   UNL     1       1.493   8.067  20.552  0.00  0.00    +0.000 A 
ATOM     27  C   UNL     1       1.233   9.177  19.743  0.00  0.00    +0.000 A 
ATOM     28  C   UNL     1       1.653   9.197  18.407  0.00  0.00    +0.000 A 
ATOM     29  C   UNL     1       2.330   8.091  17.876  0.00  0.00    +0.000 A 
BRANCH  27  30
ATOM     30  N   UNL     1       0.518  10.331  20.305  0.00  0.00    +0.000 N 
ATOM     31  O   UNL     1      -0.224  10.132  21.276  0.00  0.00    +0.000 OA
ATOM     32  O   UNL     1       0.696  11.433  19.768  0.00  0.00    +0.000 OA
ENDBRANCH  27  30
ENDBRANCH  23  24
ENDBRANCH  20  22
ENDBRANCH  19  20
ENDBRANCH   4  19
TORSDOF 9
ENDMDL
MODEL 6
REMARK VINA RESULT:      -8.3      0.806      2.402
REMARK  Name = 
REMARK  11 active torsions:
REMARK  status: ('A' for Active; 'I' for Inactive)
REMARK    1  A    between atoms: C_1  and  O_2
REMARK    2  A    between atoms: O_2  and  C_3
REMARK    3  A    between atoms: C_5  and  C_6
REMARK    4  A    between atoms: C_7  and  C_8
REMARK    5  A    between atoms: C_11  and  O_12
REMARK    6  A    between atoms: O_12  and  C_13
REMARK    7  A    between atoms: C_13  and  C_15
REMARK    8  A    between atoms: C_16  and  C_17
REMARK    9  A    between atoms: C_20  and  N_21
REMARK   10  A    between atoms: C_29  and  O_30
REMARK   11  A    between atoms: O_30  and  C_31
REMARK                            x       y       z     vdW  Elec       q    Type
REMARK                         _______ _______ _______ _____ _____    ______ ____
ROOT
ATOM      1  C   UNL     1       7.296   7.572  17.650  0.00  0.00    +0.000 A 
ATOM      2  C   UNL     1       7.659   6.465  18.431  0.00  0.00    +0.000 A 
ATOM      3  C   UNL     1       7.108   5.202  18.181  0.00  0.00    +0.000 A 
ATOM      4  C   UNL     1       6.175   5.047  17.156  0.00  0.00    +0.000 A 
ATOM      5  C   UNL     1       5.824   6.133  16.355  0.00  0.00    +0.000 A 
ATOM      6  C   UNL     1       6.366   7.393  16.618  0.00  0.00    +0.000 A 
ENDROOT
BRANCH   1   8
ATOM      7  C   UNL     1       8.912   9.177  18.630  0.00  0.00    +0.000 C 
ATOM      8  C   UNL     1       7.824   8.924  17.884  0.00  0.00    +0.000 C 
BRANCH   7  11
ATOM      9  C   UNL     1      10.102  12.298  20.376  0.00  0.00    +0.000 A 
ATOM     10  C   UNL     1       9.468  11.080  20.110  0.00  0.00    +0.000 A 
ATOM     11  C   UNL     1       9.508  10.509  18.831  0.00  0.00    +0.000 A 
ATOM     12  C   UNL     1      10.207  11.183  17.821  0.00  0.00    +0.000 A 
ATOM     13  C   UNL     1      10.850  12.399  18.075  0.00  0.00    +0.000 A 
ATOM     14  C   UNL     1      10.791  12.954  19.353  0.00  0.00    +0.000 A 
BRANCH   9  16
ATOM     15  C   UNL     1       8.707  12.633  22.272  0.00  0.00    +0.000 C 
ATOM     16  O   UNL     1       9.993  12.732  21.670  0.00  0.00    +0.000 OA
ENDBRANCH   9  16
BRANCH  13  17
ATOM     17  O   UNL     1      11.511  12.931  17.001  0.00  0.00    +0.000 OA
ATOM     18  C   UNL     1      12.237  14.134  17.226  0.00  0.00    +0.000 C 
ENDBRANCH  13  17
ENDBRANCH   7  11
ENDBRANCH   1   8
BRANCH   4  19
ATOM     19  O   UNL     1       5.663   3.747  16.967  0.00  0.00    +0.000 OA
BRANCH  19  20
ATOM     20  C   UNL     1       4.512   3.369  17.644  0.00  0.00    +0.000 C 
ATOM     21  O   UNL     1       3.932   2.295  17.595  0.00  0.00    +0.000 OA
BRANCH  20  22
ATOM     22  C   UNL     1       4.038   4.524  18.444  0.00  0.00    +0.000 C 
ATOM     23  C   UNL     1       3.061   5.284  17.924  0.00  0.00    +0.000 C 
BRANCH  23  24
ATOM     24  C   UNL     1       2.540   6.536  18.487  0.00  0.00    +0.000 A 
ATOM     25  C   UNL     1       2.152   6.528  19.838  0.00  0.00    +0.000 A 
ATOM     26  C   UNL     1       1.645   7.679  20.449  0.00  0.00    +0.000 A 
ATOM     27  C   UNL     1       1.535   8.855  19.703  0.00  0.00    +0.000 A 
ATOM     28  C   UNL     1       1.936   8.888  18.361  0.00  0.00    +0.000 A 
ATOM     29  C   UNL     1       2.442   7.728  17.760  0.00  0.00    +0.000 A 
BRANCH  27  30
ATOM     30  N   UNL     1       0.999  10.067  20.337  0.00  0.00    +0.000 N 
ATOM     31  O   UNL     1       1.451  10.386  21.446  0.00  0.00    +0.000 OA
ATOM     32  O   UNL     1       0.122  10.695  19.728  0.00  0.00    +0.000 OA
ENDBRANCH  27  30
ENDBRANCH  23  24
ENDBRANCH  20  22
ENDBRANCH  19  20
ENDBRANCH   4  19
TORSDOF 9
ENDMDL
MODEL 7
REMARK VINA RESULT:      -8.2      0.828      2.449
REMARK  Name = 
REMARK  11 active torsions:
REMARK  status: ('A' for Active; 'I' for Inactive)
REMARK    1  A    between atoms: C_1  and  O_2
REMARK    2  A    between atoms: O_2  and  C_3
REMARK    3  A    between atoms: C_5  and  C_6
REMARK    4  A    between atoms: C_7  and  C_8
REMARK    5  A    between atoms: C_11  and  O_12
REMARK    6  A    between atoms: O_12  and  C_13
REMARK    7  A    between atoms: C_13  and  C_15
REMARK    8  A    between atoms: C_16  and  C_17
REMARK    9  A    between atoms: C_20  and  N_21
REMARK   10  A    between atoms: C_29  and  O_30
REMARK   11  A    between atoms: O_30  and  C_31
REMARK                            x       y       z     vdW  Elec       q    Type
REMARK                         _______ _______ _______ _____ _____    ______ ____
ROOT
ATOM      1  C   UNL     1       7.219   7.238  17.397  0.00  0.00    +0.000 A 
ATOM      2  C   UNL     1       6.125   7.117  16.527  0.00  0.00    +0.000 A 
ATOM      3  C   UNL     1       5.431   5.907  16.416  0.00  0.00    +0.000 A 
ATOM      4  C   UNL     1       5.842   4.803  17.163  0.00  0.00    +0.000 A 
ATOM      5  C   UNL     1       6.912   4.916  18.051  0.00  0.00    +0.000 A 
ATOM      6  C   UNL     1       7.610   6.122  18.148  0.00  0.00    +0.000 A 
ENDROOT
BRANCH   1   8
ATOM      7  C   UNL     1       8.283   9.048  18.716  0.00  0.00    +0.000 C 
ATOM      8  C   UNL     1       7.999   8.476  17.534  0.00  0.00    +0.000 C 
BRANCH   7  11
ATOM      9  C   UNL     1      10.022  11.930  20.410  0.00  0.00    +0.000 A 
ATOM     10  C   UNL     1       9.173  10.847  20.162  0.00  0.00    +0.000 A 
ATOM     11  C   UNL     1       9.118  10.248  18.896  0.00  0.00    +0.000 A 
ATOM     12  C   UNL     1       9.941  10.754  17.882  0.00  0.00    +0.000 A 
ATOM     13  C   UNL     1      10.799  11.833  18.119  0.00  0.00    +0.000 A 
ATOM     14  C   UNL     1      10.833  12.420  19.384  0.00  0.00    +0.000 A 
BRANCH   9  16
ATOM     15  C   UNL     1       8.933  11.928  22.523  0.00  0.00    +0.000 C 
ATOM     16  O   UNL     1       9.984  12.407  21.693  0.00  0.00    +0.000 OA
ENDBRANCH   9  16
BRANCH  13  17
ATOM     17  O   UNL     1      11.559  12.205  17.043  0.00  0.00    +0.000 OA
ATOM     18  C   UNL     1      12.333  13.391  17.184  0.00  0.00    +0.000 C 
ENDBRANCH  13  17
ENDBRANCH   7  11
ENDBRANCH   1   8
BRANCH   4  19
ATOM     19  O   UNL     1       5.095   3.619  16.995  0.00  0.00    +0.000 OA
BRANCH  19  20
ATOM     20  C   UNL     1       4.051   3.349  17.869  0.00  0.00    +0.000 C 
ATOM     21  O   UNL     1       3.823   2.307  18.464  0.00  0.00    +0.000 OA
BRANCH  20  22
ATOM     22  C   UNL     1       3.185   4.549  17.949  0.00  0.00    +0.000 C 
ATOM     23  C   UNL     1       3.470   5.461  18.894  0.00  0.00    +0.000 C 
BRANCH  23  24
ATOM     24  C   UNL     1       2.672   6.648  19.225  0.00  0.00    +0.000 A 
ATOM     25  C   UNL     1       2.572   7.657  18.252  0.00  0.00    +0.000 A 
ATOM     26  C   UNL     1       1.832   8.818  18.490  0.00  0.00    +0.000 A 
ATOM     27  C   UNL     1       1.173   8.969  19.713  0.00  0.00    +0.000 A 
ATOM     28  C   UNL     1       1.243   7.965  20.688  0.00  0.00    +0.000 A 
ATOM     29  C   UNL     1       1.989   6.805  20.437  0.00  0.00    +0.000 A 
BRANCH  27  30
ATOM     30  N   UNL     1       0.397  10.189  19.972  0.00  0.00    +0.000 N 
ATOM     31  O   UNL     1       0.965  11.120  20.559  0.00  0.00    +0.000 OA
ATOM     32  O   UNL     1      -0.783  10.211  19.594  0.00  0.00    +0.000 OA
ENDBRANCH  27  30
ENDBRANCH  23  24
ENDBRANCH  20  22
ENDBRANCH  19  20
ENDBRANCH   4  19
TORSDOF 9
ENDMDL
MODEL 8
REMARK VINA RESULT:      -8.1      5.089      9.121
REMARK  Name = 
REMARK  11 active torsions:
REMARK  status: ('A' for Active; 'I' for Inactive)
REMARK    1  A    between atoms: C_1  and  O_2
REMARK    2  A    between atoms: O_2  and  C_3
REMARK    3  A    between atoms: C_5  and  C_6
REMARK    4  A    between atoms: C_7  and  C_8
REMARK    5  A    between atoms: C_11  and  O_12
REMARK    6  A    between atoms: O_12  and  C_13
REMARK    7  A    between atoms: C_13  and  C_15
REMARK    8  A    between atoms: C_16  and  C_17
REMARK    9  A    between atoms: C_20  and  N_21
REMARK   10  A    between atoms: C_29  and  O_30
REMARK   11  A    between atoms: O_30  and  C_31
REMARK                            x       y       z     vdW  Elec       q    Type
REMARK                         _______ _______ _______ _____ _____    ______ ____
ROOT
ATOM      1  C   UNL     1       1.733   9.325  18.836  0.00  0.00    +0.000 A 
ATOM      2  C   UNL     1       1.897  10.643  18.385  0.00  0.00    +0.000 A 
ATOM      3  C   UNL     1       1.243  11.704  19.022  0.00  0.00    +0.000 A 
ATOM      4  C   UNL     1       0.405  11.447  20.107  0.00  0.00    +0.000 A 
ATOM      5  C   UNL     1       0.251  10.145  20.582  0.00  0.00    +0.000 A 
ATOM      6  C   UNL     1       0.896   9.088  19.935  0.00  0.00    +0.000 A 
ENDROOT
BRANCH   1   8
ATOM      7  C   UNL     1       2.350   6.928  18.696  0.00  0.00    +0.000 C 
ATOM      8  C   UNL     1       2.374   8.172  18.190  0.00  0.00    +0.000 C 
BRANCH   7  11
ATOM      9  C   UNL     1       4.847   4.683  16.985  0.00  0.00    +0.000 A 
ATOM     10  C   UNL     1       4.223   5.809  17.529  0.00  0.00    +0.000 A 
ATOM     11  C   UNL     1       2.922   5.738  18.044  0.00  0.00    +0.000 A 
ATOM     12  C   UNL     1       2.259   4.504  18.009  0.00  0.00    +0.000 A 
ATOM     13  C   UNL     1       2.873   3.368  17.473  0.00  0.00    +0.000 A 
ATOM     14  C   UNL     1       4.166   3.463  16.959  0.00  0.00    +0.000 A 
BRANCH   9  16
ATOM     15  C   UNL     1       6.629   6.218  16.644  0.00  0.00    +0.000 C 
ATOM     16  O   UNL     1       6.121   4.894  16.531  0.00  0.00    +0.000 OA
ENDBRANCH   9  16
BRANCH  13  17
ATOM     17  O   UNL     1       2.115   2.229  17.527  0.00  0.00    +0.000 OA
ATOM     18  C   UNL     1       1.144   2.153  18.564  0.00  0.00    +0.000 C 
ENDBRANCH  13  17
ENDBRANCH   7  11
ENDBRANCH   1   8
BRANCH   4  19
ATOM     19  O   UNL     1      -0.221  12.566  20.694  0.00  0.00    +0.000 OA
BRANCH  19  20
ATOM     20  C   UNL     1      -1.600  12.694  20.603  0.00  0.00    +0.000 C 
ATOM     21  O   UNL     1      -2.399  12.853  21.512  0.00  0.00    +0.000 OA
BRANCH  20  22
ATOM     22  C   UNL     1      -1.989  12.562  19.178  0.00  0.00    +0.000 C 
ATOM     23  C   UNL     1      -2.563  11.411  18.793  0.00  0.00    +0.000 C 
BRANCH  23  24
ATOM     24  C   UNL     1      -2.906  11.029  17.418  0.00  0.00    +0.000 A 
ATOM     25  C   UNL     1      -2.090  10.076  16.785  0.00  0.00    +0.000 A 
ATOM     26  C   UNL     1      -2.349   9.660  15.476  0.00  0.00    +0.000 A 
ATOM     27  C   UNL     1      -3.445  10.195  14.794  0.00  0.00    +0.000 A 
ATOM     28  C   UNL     1      -4.282  11.131  15.414  0.00  0.00    +0.000 A 
ATOM     29  C   UNL     1      -4.012  11.540  16.727  0.00  0.00    +0.000 A 
BRANCH  27  30
ATOM     30  N   UNL     1      -3.721   9.765  13.416  0.00  0.00    +0.000 N 
ATOM     31  O   UNL     1      -4.903   9.735  13.048  0.00  0.00    +0.000 OA
ATOM     32  O   UNL     1      -2.754   9.453  12.707  0.00  0.00    +0.000 OA
ENDBRANCH  27  30
ENDBRANCH  23  24
ENDBRANCH  20  22
ENDBRANCH  19  20
ENDBRANCH   4  19
TORSDOF 9
ENDMDL
MODEL 9
REMARK VINA RESULT:      -8.0      5.547      9.525
REMARK  Name = 
REMARK  11 active torsions:
REMARK  status: ('A' for Active; 'I' for Inactive)
REMARK    1  A    between atoms: C_1  and  O_2
REMARK    2  A    between atoms: O_2  and  C_3
REMARK    3  A    between atoms: C_5  and  C_6
REMARK    4  A    between atoms: C_7  and  C_8
REMARK    5  A    between atoms: C_11  and  O_12
REMARK    6  A    between atoms: O_12  and  C_13
REMARK    7  A    between atoms: C_13  and  C_15
REMARK    8  A    between atoms: C_16  and  C_17
REMARK    9  A    between atoms: C_20  and  N_21
REMARK   10  A    between atoms: C_29  and  O_30
REMARK   11  A    between atoms: O_30  and  C_31
REMARK                            x       y       z     vdW  Elec       q    Type
REMARK                         _______ _______ _______ _____ _____    ______ ____
ROOT
ATOM      1  C   UNL     1       1.763   9.494  18.466  0.00  0.00    +0.000 A 
ATOM      2  C   UNL     1       2.202  10.771  18.088  0.00  0.00    +0.000 A 
ATOM      3  C   UNL     1       1.726  11.914  18.742  0.00  0.00    +0.000 A 
ATOM      4  C   UNL     1       0.792  11.783  19.769  0.00  0.00    +0.000 A 
ATOM      5  C   UNL     1       0.365  10.518  20.173  0.00  0.00    +0.000 A 
ATOM      6  C   UNL     1       0.833   9.382  19.507  0.00  0.00    +0.000 A 
ENDROOT
BRANCH   1   8
ATOM      7  C   UNL     1       3.238   7.515  18.228  0.00  0.00    +0.000 C 
ATOM      8  C   UNL     1       2.209   8.264  17.797  0.00  0.00    +0.000 C 
BRANCH   7  11
ATOM      9  C   UNL     1       5.192   5.079  16.120  0.00  0.00    +0.000 A 
ATOM     10  C   UNL     1       4.680   6.265  16.655  0.00  0.00    +0.000 A 
ATOM     11  C   UNL     1       3.669   6.243  17.625  0.00  0.00    +0.000 A 
ATOM     12  C   UNL     1       3.186   5.001  18.056  0.00  0.00    +0.000 A 
ATOM     13  C   UNL     1       3.693   3.807  17.533  0.00  0.00    +0.000 A 
ATOM     14  C   UNL     1       4.694   3.851  16.562  0.00  0.00    +0.000 A 
BRANCH   9  16
ATOM     15  C   UNL     1       6.537   4.107  14.417  0.00  0.00    +0.000 C 
ATOM     16  O   UNL     1       6.184   5.248  15.191  0.00  0.00    +0.000 OA
ENDBRANCH   9  16
BRANCH  13  17
ATOM     17  O   UNL     1       3.142   2.671  18.063  0.00  0.00    +0.000 OA
ATOM     18  C   UNL     1       1.765   2.731  18.417  0.00  0.00    +0.000 C 
ENDBRANCH  13  17
ENDBRANCH   7  11
ENDBRANCH   1   8
BRANCH   4  19
ATOM     19  O   UNL     1       0.358  12.978  20.378  0.00  0.00    +0.000 OA
BRANCH  19  20
ATOM     20  C   UNL     1      -0.593  13.757  19.734  0.00  0.00    +0.000 C 
ATOM     21  O   UNL     1      -0.406  14.649  18.922  0.00  0.00    +0.000 OA
BRANCH  20  22
ATOM     22  C   UNL     1      -1.934  13.362  20.227  0.00  0.00    +0.000 C 
ATOM     23  C   UNL     1      -2.338  13.864  21.406  0.00  0.00    +0.000 C 
BRANCH  23  24
ATOM     24  C   UNL     1      -3.564  13.506  22.129  0.00  0.00    +0.000 A 
ATOM     25  C   UNL     1      -4.784  13.626  21.441  0.00  0.00    +0.000 A 
ATOM     26  C   UNL     1      -5.995  13.306  22.060  0.00  0.00    +0.000 A 
ATOM     27  C   UNL     1      -5.988  12.848  23.380  0.00  0.00    +0.000 A 
ATOM     28  C   UNL     1      -4.781  12.701  24.075  0.00  0.00    +0.000 A 
ATOM     29  C   UNL     1      -3.572  13.026  23.444  0.00  0.00    +0.000 A 
BRANCH  27  30
ATOM     30  N   UNL     1      -7.258  12.513  24.038  0.00  0.00    +0.000 N 
ATOM     31  O   UNL     1      -7.598  11.322  24.061  0.00  0.00    +0.000 OA
ATOM     32  O   UNL     1      -7.916  13.443  24.525  0.00  0.00    +0.000 OA
ENDBRANCH  27  30
ENDBRANCH  23  24
ENDBRANCH  20  22
ENDBRANCH  19  20
ENDBRANCH   4  19
TORSDOF 9
ENDMDL
