MODEL 1
REMARK VINA RESULT:      -8.9      0.000      0.000
REMARK  Name = 
REMARK  8 active torsions:
REMARK  status: ('A' for Active; 'I' for Inactive)
REMARK    1  A    between atoms: C_1  and  O_2
REMARK    2  A    between atoms: O_2  and  C_3
REMARK    3  A    between atoms: C_6  and  N_7
REMARK    4  A    between atoms: N_7  and  C_8
REMARK    5  A    between atoms: C_11  and  C_12
REMARK    6  A    between atoms: C_12  and  N_13
REMARK    7  A    between atoms: C_24  and  C_25
REMARK    8  A    between atoms: C_27  and  C_28
REMARK                            x       y       z     vdW  Elec       q    Type
REMARK                         _______ _______ _______ _____ _____    ______ ____
ROOT
ATOM      1  C   UNL     1       0.854   9.403  18.305  0.00  0.00    +0.000 A 
ATOM      2  N   UNL     1       1.306   8.514  17.382  0.00  0.00    +0.000 NA
ATOM      3  C   UNL     1       2.067   7.476  17.789  0.00  0.00    +0.000 A 
ATOM      4  C   UNL     1       2.435   7.250  19.103  0.00  0.00    +0.000 A 
ATOM      5  C   UNL     1       1.986   8.181  20.046  0.00  0.00    +0.000 A 
ATOM      6  C   UNL     1       1.163   9.270  19.673  0.00  0.00    +0.000 A 
ENDROOT
BRANCH   6   7
ATOM      7  C   UNL     1       0.605  10.165  20.697  0.00  0.00    +0.000 A 
ATOM      8  N   UNL     1       0.858  11.470  20.598  0.00  0.00    +0.000 NA
ATOM      9  C   UNL     1       0.338  12.214  21.575  0.00  0.00    +0.000 A 
ATOM     10  C   UNL     1       0.503  13.698  21.487  0.00  0.00    +0.000 C 
ATOM     11  N   UNL     1      -0.338  11.733  22.621  0.00  0.00    +0.000 NA
ATOM     12  C   UNL     1      -0.522  10.425  22.626  0.00  0.00    +0.000 A 
ATOM     13  N   UNL     1      -1.216   9.882  23.687  0.00  0.00    +0.000 N 
ATOM     14  N   UNL     1      -0.079   9.593  21.697  0.00  0.00    +0.000 NA
ATOM     15  H   UNL     1      -1.202  10.507  24.482  0.00  0.00    +0.000 HD
ATOM     16  H   UNL     1      -0.954   8.921  23.855  0.00  0.00    +0.000 HD
ENDBRANCH   6   7
BRANCH   1  17
ATOM     17  N   UNL     1       0.156  10.550  17.825  0.00  0.00    +0.000 N 
ATOM     18  H   UNL     1       0.510  11.369  18.331  0.00  0.00    +0.000 HD
BRANCH  17  22
ATOM     19  C   UNL     1      -3.963  11.064  17.550  0.00  0.00    +0.000 A 
ATOM     20  C   UNL     1      -3.372  10.066  16.789  0.00  0.00    +0.000 A 
ATOM     21  C   UNL     1      -1.993   9.874  16.902  0.00  0.00    +0.000 A 
ATOM     22  C   UNL     1      -1.256  10.648  17.801  0.00  0.00    +0.000 A 
ATOM     23  C   UNL     1      -1.956  11.634  18.504  0.00  0.00    +0.000 A 
ATOM     24  N   UNL     1      -3.282  11.858  18.401  0.00  0.00    +0.000 NA
BRANCH  19  26
ATOM     25  C   UNL     1      -6.069  10.720  18.486  0.00  0.00    +0.000 C 
ATOM     26  O   UNL     1      -5.323  11.247  17.391  0.00  0.00    +0.000 OA
ENDBRANCH  19  26
ENDBRANCH  17  22
ENDBRANCH   1  17
BRANCH   4  27
ATOM     27  C   UNL     1       3.310   6.075  19.472  0.00  0.00    +0.000 C 
BRANCH  27  28
ATOM     28  N   UNL     1       3.989   5.550  18.294  0.00  0.00    +0.000 NA
ATOM     29  C   UNL     1       4.784   4.301  18.566  0.00  0.00    +0.000 C 
ATOM     30  C   UNL     1       5.805   4.865  17.545  0.00  0.00    +0.000 C 
ATOM     31  C   UNL     1       5.305   6.230  18.075  0.00  0.00    +0.000 C 
ATOM     32  N   UNL     1       5.489   4.611  16.117  0.00  0.00    +0.000 N 
ATOM     33  C   UNL     1       6.650   4.428  15.396  0.00  0.00    +0.000 C 
ATOM     34  O   UNL     1       6.717   4.299  14.187  0.00  0.00    +0.000 OA
ATOM     35  N   UNL     1       7.712   4.429  16.269  0.00  0.00    +0.000 N 
ATOM     36  C   UNL     1       7.346   4.604  17.581  0.00  0.00    +0.000 C 
ATOM     37  O   UNL     1       8.131   4.578  18.519  0.00  0.00    +0.000 OA
ATOM     38  H   UNL     1       4.580   4.682  15.680  0.00  0.00    +0.000 HD
ATOM     39  H   UNL     1       8.662   4.315  15.959  0.00  0.00    +0.000 HD
ENDBRANCH  27  28
ENDBRANCH   4  27
TORSDOF 6
ENDMDL
MODEL 2
REMARK VINA RESULT:      -8.7      2.419      9.560
REMARK  Name = 
REMARK  8 active torsions:
REMARK  status: ('A' for Active; 'I' for Inactive)
REMARK    1  A    between atoms: C_1  and  O_2
REMARK    2  A    between atoms: O_2  and  C_3
REMARK    3  A    between atoms: C_6  and  N_7
REMARK    4  A    between atoms: N_7  and  C_8
REMARK    5  A    between atoms: C_11  and  C_12
REMARK    6  A    between atoms: C_12  and  N_13
REMARK    7  A    between atoms: C_24  and  C_25
REMARK    8  A    between atoms: C_27  and  C_28
REMARK                            x       y       z     vdW  Elec       q    Type
REMARK                         _______ _______ _______ _____ _____    ______ ____
ROOT
ATOM      1  C   UNL     1       3.668   5.917  18.078  0.00  0.00    +0.000 A 
ATOM      2  N   UNL     1       3.662   7.134  17.475  0.00  0.00    +0.000 NA
ATOM      3  C   UNL     1       2.936   8.133  18.021  0.00  0.00    +0.000 A 
ATOM      4  C   UNL     1       2.175   8.002  19.168  0.00  0.00    +0.000 A 
ATOM      5  C   UNL     1       2.166   6.740  19.771  0.00  0.00    +0.000 A 
ATOM      6  C   UNL     1       2.932   5.670  19.253  0.00  0.00    +0.000 A 
ENDROOT
BRANCH   6   7
ATOM      7  C   UNL     1       3.003   4.389  19.971  0.00  0.00    +0.000 A 
ATOM      8  N   UNL     1       2.045   4.110  20.856  0.00  0.00    +0.000 NA
ATOM      9  C   UNL     1       2.191   2.942  21.483  0.00  0.00    +0.000 A 
ATOM     10  C   UNL     1       1.110   2.516  22.427  0.00  0.00    +0.000 C 
ATOM     11  N   UNL     1       3.222   2.111  21.317  0.00  0.00    +0.000 NA
ATOM     12  C   UNL     1       4.120   2.490  20.425  0.00  0.00    +0.000 A 
ATOM     13  N   UNL     1       5.204   1.664  20.220  0.00  0.00    +0.000 N 
ATOM     14  N   UNL     1       4.064   3.611  19.723  0.00  0.00    +0.000 NA
ATOM     15  H   UNL     1       5.341   1.048  21.010  0.00  0.00    +0.000 HD
ATOM     16  H   UNL     1       6.011   2.176  19.892  0.00  0.00    +0.000 HD
ENDBRANCH   6   7
BRANCH   1  17
ATOM     17  N   UNL     1       4.348   4.857  17.408  0.00  0.00    +0.000 N 
ATOM     18  H   UNL     1       4.878   4.329  18.109  0.00  0.00    +0.000 HD
BRANCH  17  22
ATOM     19  C   UNL     1       7.007   5.194  14.225  0.00  0.00    +0.000 A 
ATOM     20  C   UNL     1       5.758   4.641  13.984  0.00  0.00    +0.000 A 
ATOM     21  C   UNL     1       4.854   4.553  15.045  0.00  0.00    +0.000 A 
ATOM     22  C   UNL     1       5.204   5.060  16.299  0.00  0.00    +0.000 A 
ATOM     23  C   UNL     1       6.495   5.581  16.429  0.00  0.00    +0.000 A 
ATOM     24  N   UNL     1       7.398   5.660  15.429  0.00  0.00    +0.000 NA
BRANCH  19  26
ATOM     25  C   UNL     1       7.451   4.429  12.070  0.00  0.00    +0.000 C 
ATOM     26  O   UNL     1       7.887   5.237  13.162  0.00  0.00    +0.000 OA
ENDBRANCH  19  26
ENDBRANCH  17  22
ENDBRANCH   1  17
BRANCH   4  27
ATOM     27  C   UNL     1       1.370   9.165  19.702  0.00  0.00    +0.000 C 
BRANCH  27  28
ATOM     28  N   UNL     1       0.441   9.654  18.690  0.00  0.00    +0.000 NA
ATOM     29  C   UNL     1       0.372  11.155  18.615  0.00  0.00    +0.000 C 
ATOM     30  C   UNL     1      -1.137  10.958  18.323  0.00  0.00    +0.000 C 
ATOM     31  C   UNL     1      -0.960   9.707  19.217  0.00  0.00    +0.000 C 
ATOM     32  N   UNL     1      -1.482  10.657  16.911  0.00  0.00    +0.000 N 
ATOM     33  C   UNL     1      -2.698  11.221  16.586  0.00  0.00    +0.000 C 
ATOM     34  O   UNL     1      -3.288  11.065  15.532  0.00  0.00    +0.000 OA
ATOM     35  N   UNL     1      -3.130  11.974  17.651  0.00  0.00    +0.000 N 
ATOM     36  C   UNL     1      -2.266  11.965  18.718  0.00  0.00    +0.000 C 
ATOM     37  O   UNL     1      -2.436  12.616  19.741  0.00  0.00    +0.000 OA
ATOM     38  H   UNL     1      -0.988  10.029  16.292  0.00  0.00    +0.000 HD
ATOM     39  H   UNL     1      -4.002  12.474  17.635  0.00  0.00    +0.000 HD
ENDBRANCH  27  28
ENDBRANCH   4  27
TORSDOF 6
ENDMDL
MODEL 3
REMARK VINA RESULT:      -8.6      2.366      9.521
REMARK  Name = 
REMARK  8 active torsions:
REMARK  status: ('A' for Active; 'I' for Inactive)
REMARK    1  A    between atoms: C_1  and  O_2
REMARK    2  A    between atoms: O_2  and  C_3
REMARK    3  A    between atoms: C_6  and  N_7
REMARK    4  A    between atoms: N_7  and  C_8
REMARK    5  A    between atoms: C_11  and  C_12
REMARK    6  A    between atoms: C_12  and  N_13
REMARK    7  A    between atoms: C_24  and  C_25
REMARK    8  A    between atoms: C_27  and  C_28
REMARK                            x       y       z     vdW  Elec       q    Type
REMARK                         _______ _______ _______ _____ _____    ______ ____
ROOT
ATOM      1  C   UNL     1       3.577   5.993  18.181  0.00  0.00    +0.000 A 
ATOM      2  N   UNL     1       3.561   7.202  17.562  0.00  0.00    +0.000 NA
ATOM      3  C   UNL     1       2.826   8.202  18.094  0.00  0.00    +0.000 A 
ATOM      4  C   UNL     1       2.067   8.081  19.244  0.00  0.00    +0.000 A 
ATOM      5  C   UNL     1       2.069   6.828  19.865  0.00  0.00    +0.000 A 
ATOM      6  C   UNL     1       2.844   5.757  19.361  0.00  0.00    +0.000 A 
ENDROOT
BRANCH   6   7
ATOM      7  C   UNL     1       2.926   4.486  20.097  0.00  0.00    +0.000 A 
ATOM      8  N   UNL     1       3.958   3.680  19.848  0.00  0.00    +0.000 NA
ATOM      9  C   UNL     1       3.950   2.538  20.536  0.00  0.00    +0.000 A 
ATOM     10  C   UNL     1       5.120   1.618  20.379  0.00  0.00    +0.000 C 
ATOM     11  N   UNL     1       2.981   2.159  21.374  0.00  0.00    +0.000 NA
ATOM     12  C   UNL     1       2.000   3.029  21.538  0.00  0.00    +0.000 A 
ATOM     13  N   UNL     1       0.977   2.681  22.394  0.00  0.00    +0.000 N 
ATOM     14  N   UNL     1       1.918   4.202  20.932  0.00  0.00    +0.000 NA
ATOM     15  H   UNL     1       0.942   1.679  22.524  0.00  0.00    +0.000 HD
ATOM     16  H   UNL     1       0.111   3.143  22.151  0.00  0.00    +0.000 HD
ENDBRANCH   6   7
BRANCH   1  17
ATOM     17  N   UNL     1       4.264   4.929  17.526  0.00  0.00    +0.000 N 
ATOM     18  H   UNL     1       4.721   4.357  18.245  0.00  0.00    +0.000 HD
BRANCH  17  22
ATOM     19  C   UNL     1       7.192   5.289  14.592  0.00  0.00    +0.000 A 
ATOM     20  C   UNL     1       6.019   4.622  14.272  0.00  0.00    +0.000 A 
ATOM     21  C   UNL     1       5.024   4.526  15.248  0.00  0.00    +0.000 A 
ATOM     22  C   UNL     1       5.208   5.134  16.491  0.00  0.00    +0.000 A 
ATOM     23  C   UNL     1       6.438   5.765  16.706  0.00  0.00    +0.000 A 
ATOM     24  N   UNL     1       7.426   5.857  15.793  0.00  0.00    +0.000 NA
BRANCH  19  26
ATOM     25  C   UNL     1       7.672   4.941  12.339  0.00  0.00    +0.000 C 
ATOM     26  O   UNL     1       8.168   5.339  13.615  0.00  0.00    +0.000 OA
ENDBRANCH  19  26
ENDBRANCH  17  22
ENDBRANCH   1  17
BRANCH   4  27
ATOM     27  C   UNL     1       1.254   9.245  19.762  0.00  0.00    +0.000 C 
BRANCH  27  28
ATOM     28  N   UNL     1       0.338   9.729  18.735  0.00  0.00    +0.000 NA
ATOM     29  C   UNL     1       0.230  11.229  18.687  0.00  0.00    +0.000 C 
ATOM     30  C   UNL     1      -1.265  10.997  18.351  0.00  0.00    +0.000 C 
ATOM     31  C   UNL     1      -1.077   9.734  19.226  0.00  0.00    +0.000 C 
ATOM     32  N   UNL     1      -1.565  10.714  16.926  0.00  0.00    +0.000 N 
ATOM     33  C   UNL     1      -2.787  11.251  16.580  0.00  0.00    +0.000 C 
ATOM     34  O   UNL     1      -3.346  11.101  15.508  0.00  0.00    +0.000 OA
ATOM     35  N   UNL     1      -3.267  11.972  17.647  0.00  0.00    +0.000 N 
ATOM     36  C   UNL     1      -2.430  11.966  18.736  0.00  0.00    +0.000 C 
ATOM     37  O   UNL     1      -2.644  12.591  19.766  0.00  0.00    +0.000 OA
ATOM     38  H   UNL     1      -1.038  10.112  16.308  0.00  0.00    +0.000 HD
ATOM     39  H   UNL     1      -4.152  12.449  17.618  0.00  0.00    +0.000 HD
ENDBRANCH  27  28
ENDBRANCH   4  27
TORSDOF 6
ENDMDL
MODEL 4
REMARK VINA RESULT:      -8.5      0.582      1.424
REMARK  Name = 
REMARK  8 active torsions:
REMARK  status: ('A' for Active; 'I' for Inactive)
REMARK    1  A    between atoms: C_1  and  O_2
REMARK    2  A    between atoms: O_2  and  C_3
REMARK    3  A    between atoms: C_6  and  N_7
REMARK    4  A    between atoms: N_7  and  C_8
REMARK    5  A    between atoms: C_11  and  C_12
REMARK    6  A    between atoms: C_12  and  N_13
REMARK    7  A    between atoms: C_24  and  C_25
REMARK    8  A    between atoms: C_27  and  C_28
REMARK                            x       y       z     vdW  Elec       q    Type
REMARK                         _______ _______ _______ _____ _____    ______ ____
ROOT
ATOM      1  C   UNL     1       0.712   9.421  18.247  0.00  0.00    +0.000 A 
ATOM      2  N   UNL     1       1.053   8.417  17.398  0.00  0.00    +0.000 NA
ATOM      3  C   UNL     1       1.830   7.410  17.851  0.00  0.00    +0.000 A 
ATOM      4  C   UNL     1       2.320   7.327  19.142  0.00  0.00    +0.000 A 
ATOM      5  C   UNL     1       1.986   8.376  20.005  0.00  0.00    +0.000 A 
ATOM      6  C   UNL     1       1.152   9.439  19.585  0.00  0.00    +0.000 A 
ENDROOT
BRANCH   6   7
ATOM      7  C   UNL     1       0.716  10.465  20.544  0.00  0.00    +0.000 A 
ATOM      8  N   UNL     1      -0.204  10.130  21.449  0.00  0.00    +0.000 NA
ATOM      9  C   UNL     1      -0.566  11.119  22.267  0.00  0.00    +0.000 A 
ATOM     10  C   UNL     1      -1.528  10.800  23.367  0.00  0.00    +0.000 C 
ATOM     11  N   UNL     1      -0.118  12.374  22.190  0.00  0.00    +0.000 NA
ATOM     12  C   UNL     1       0.783  12.599  21.250  0.00  0.00    +0.000 A 
ATOM     13  N   UNL     1       1.275  13.882  21.132  0.00  0.00    +0.000 N 
ATOM     14  N   UNL     1       1.237  11.690  20.402  0.00  0.00    +0.000 NA
ATOM     15  H   UNL     1       0.644  14.548  21.555  0.00  0.00    +0.000 HD
ATOM     16  H   UNL     1       1.589  14.079  20.192  0.00  0.00    +0.000 HD
ENDBRANCH   6   7
BRANCH   1  17
ATOM     17  N   UNL     1      -0.006  10.526  17.703  0.00  0.00    +0.000 N 
ATOM     18  H   UNL     1       0.345  11.381  18.147  0.00  0.00    +0.000 HD
BRANCH  17  22
ATOM     19  C   UNL     1      -4.133  11.021  17.516  0.00  0.00    +0.000 A 
ATOM     20  C   UNL     1      -3.530  10.174  16.598  0.00  0.00    +0.000 A 
ATOM     21  C   UNL     1      -2.148   9.985  16.678  0.00  0.00    +0.000 A 
ATOM     22  C   UNL     1      -1.419  10.606  17.695  0.00  0.00    +0.000 A 
ATOM     23  C   UNL     1      -2.131  11.450  18.554  0.00  0.00    +0.000 A 
ATOM     24  N   UNL     1      -3.461  11.670  18.489  0.00  0.00    +0.000 NA
BRANCH  19  26
ATOM     25  C   UNL     1      -6.205  10.811  18.562  0.00  0.00    +0.000 C 
ATOM     26  O   UNL     1      -5.496  11.210  17.390  0.00  0.00    +0.000 OA
ENDBRANCH  19  26
ENDBRANCH  17  22
ENDBRANCH   1  17
BRANCH   4  27
ATOM     27  C   UNL     1       3.205   6.176  19.563  0.00  0.00    +0.000 C 
BRANCH  27  28
ATOM     28  N   UNL     1       3.887   5.603  18.409  0.00  0.00    +0.000 NA
ATOM     29  C   UNL     1       4.699   4.380  18.739  0.00  0.00    +0.000 C 
ATOM     30  C   UNL     1       5.710   4.907  17.688  0.00  0.00    +0.000 C 
ATOM     31  C   UNL     1       5.193   6.290  18.154  0.00  0.00    +0.000 C 
ATOM     32  N   UNL     1       5.394   4.580  16.276  0.00  0.00    +0.000 N 
ATOM     33  C   UNL     1       6.555   4.378  15.561  0.00  0.00    +0.000 C 
ATOM     34  O   UNL     1       6.621   4.190  14.359  0.00  0.00    +0.000 OA
ATOM     35  N   UNL     1       7.619   4.435  16.429  0.00  0.00    +0.000 N 
ATOM     36  C   UNL     1       7.254   4.669  17.732  0.00  0.00    +0.000 C 
ATOM     37  O   UNL     1       8.043   4.699  18.668  0.00  0.00    +0.000 OA
ATOM     38  H   UNL     1       4.482   4.618  15.839  0.00  0.00    +0.000 HD
ATOM     39  H   UNL     1       8.569   4.319  16.121  0.00  0.00    +0.000 HD
ENDBRANCH  27  28
ENDBRANCH   4  27
TORSDOF 6
ENDMDL
MODEL 5
REMARK VINA RESULT:      -8.2      2.796      9.666
REMARK  Name = 
REMARK  8 active torsions:
REMARK  status: ('A' for Active; 'I' for Inactive)
REMARK    1  A    between atoms: C_1  and  O_2
REMARK    2  A    between atoms: O_2  and  C_3
REMARK    3  A    between atoms: C_6  and  N_7
REMARK    4  A    between atoms: N_7  and  C_8
REMARK    5  A    between atoms: C_11  and  C_12
REMARK    6  A    between atoms: C_12  and  N_13
REMARK    7  A    between atoms: C_24  and  C_25
REMARK    8  A    between atoms: C_27  and  C_28
REMARK                            x       y       z     vdW  Elec       q    Type
REMARK                         _______ _______ _______ _____ _____    ______ ____
ROOT
ATOM      1  C   UNL     1       4.089   6.360  17.841  0.00  0.00    +0.000 A 
ATOM      2  N   UNL     1       4.220   7.650  17.436  0.00  0.00    +0.000 NA
ATOM      3  C   UNL     1       3.168   8.487  17.560  0.00  0.00    +0.000 A 
ATOM      4  C   UNL     1       1.938   8.118  18.075  0.00  0.00    +0.000 A 
ATOM      5  C   UNL     1       1.802   6.783  18.468  0.00  0.00    +0.000 A 
ATOM      6  C   UNL     1       2.882   5.874  18.383  0.00  0.00    +0.000 A 
ENDROOT
BRANCH   6   7
ATOM      7  C   UNL     1       2.752   4.510  18.915  0.00  0.00    +0.000 A 
ATOM      8  N   UNL     1       2.189   4.352  20.113  0.00  0.00    +0.000 NA
ATOM      9  C   UNL     1       2.128   3.090  20.538  0.00  0.00    +0.000 A 
ATOM     10  C   UNL     1       1.431   2.821  21.834  0.00  0.00    +0.000 C 
ATOM     11  N   UNL     1       2.626   2.040  19.881  0.00  0.00    +0.000 NA
ATOM     12  C   UNL     1       3.171   2.310  18.708  0.00  0.00    +0.000 A 
ATOM     13  N   UNL     1       3.700   1.256  17.993  0.00  0.00    +0.000 N 
ATOM     14  N   UNL     1       3.262   3.517  18.174  0.00  0.00    +0.000 NA
ATOM     15  H   UNL     1       3.899   0.474  18.601  0.00  0.00    +0.000 HD
ATOM     16  H   UNL     1       4.440   1.556  17.374  0.00  0.00    +0.000 HD
ENDBRANCH   6   7
BRANCH   1  17
ATOM     17  N   UNL     1       5.178   5.476  17.582  0.00  0.00    +0.000 N 
ATOM     18  H   UNL     1       5.955   5.746  18.195  0.00  0.00    +0.000 HD
BRANCH  17  22
ATOM     19  C   UNL     1       6.902   4.601  13.898  0.00  0.00    +0.000 A 
ATOM     20  C   UNL     1       5.607   4.167  14.139  0.00  0.00    +0.000 A 
ATOM     21  C   UNL     1       5.017   4.485  15.364  0.00  0.00    +0.000 A 
ATOM     22  C   UNL     1       5.715   5.263  16.290  0.00  0.00    +0.000 A 
ATOM     23  C   UNL     1       7.020   5.630  15.946  0.00  0.00    +0.000 A 
ATOM     24  N   UNL     1       7.625   5.321  14.780  0.00  0.00    +0.000 NA
BRANCH  19  26
ATOM     25  C   UNL     1       6.626   3.366  11.941  0.00  0.00    +0.000 C 
ATOM     26  O   UNL     1       7.466   4.243  12.689  0.00  0.00    +0.000 OA
ENDBRANCH  19  26
ENDBRANCH  17  22
ENDBRANCH   1  17
BRANCH   4  27
ATOM     27  C   UNL     1       0.803   9.112  18.159  0.00  0.00    +0.000 C 
BRANCH  27  28
ATOM     28  N   UNL     1       1.183  10.258  18.977  0.00  0.00    +0.000 NA
ATOM     29  C   UNL     1       0.817  10.106  20.429  0.00  0.00    +0.000 C 
ATOM     30  C   UNL     1       0.518  11.625  20.395  0.00  0.00    +0.000 C 
ATOM     31  C   UNL     1       0.143  11.334  18.922  0.00  0.00    +0.000 C 
ATOM     32  N   UNL     1       1.694  12.514  20.563  0.00  0.00    +0.000 N 
ATOM     33  C   UNL     1       1.338  13.655  21.250  0.00  0.00    +0.000 C 
ATOM     34  O   UNL     1       2.063  14.611  21.454  0.00  0.00    +0.000 OA
ATOM     35  N   UNL     1       0.029  13.533  21.652  0.00  0.00    +0.000 N 
ATOM     36  C   UNL     1      -0.554  12.347  21.276  0.00  0.00    +0.000 C 
ATOM     37  O   UNL     1      -1.692  12.017  21.583  0.00  0.00    +0.000 OA
ATOM     38  H   UNL     1       2.604  12.394  20.138  0.00  0.00    +0.000 HD
ATOM     39  H   UNL     1      -0.443  14.255  22.169  0.00  0.00    +0.000 HD
ENDBRANCH  27  28
ENDBRANCH   4  27
TORSDOF 6
ENDMDL
MODEL 6
REMARK VINA RESULT:      -8.2      2.899      9.553
REMARK  Name = 
REMARK  8 active torsions:
REMARK  status: ('A' for Active; 'I' for Inactive)
REMARK    1  A    between atoms: C_1  and  O_2
REMARK    2  A    between atoms: O_2  and  C_3
REMARK    3  A    between atoms: C_6  and  N_7
REMARK    4  A    between atoms: N_7  and  C_8
REMARK    5  A    between atoms: C_11  and  C_12
REMARK    6  A    between atoms: C_12  and  N_13
REMARK    7  A    between atoms: C_24  and  C_25
REMARK    8  A    between atoms: C_27  and  C_28
REMARK                            x       y       z     vdW  Elec       q    Type
REMARK                         _______ _______ _______ _____ _____    ______ ____
ROOT
ATOM      1  C   UNL     1       4.180   6.506  17.961  0.00  0.00    +0.000 A 
ATOM      2  N   UNL     1       4.237   7.773  17.474  0.00  0.00    +0.000 NA
ATOM      3  C   UNL     1       3.163   8.579  17.615  0.00  0.00    +0.000 A 
ATOM      4  C   UNL     1       1.981   8.198  18.224  0.00  0.00    +0.000 A 
ATOM      5  C   UNL     1       1.920   6.885  18.702  0.00  0.00    +0.000 A 
ATOM      6  C   UNL     1       3.028   6.012  18.603  0.00  0.00    +0.000 A 
ENDROOT
BRANCH   6   7
ATOM      7  C   UNL     1       2.982   4.678  19.220  0.00  0.00    +0.000 A 
ATOM      8  N   UNL     1       3.300   3.625  18.467  0.00  0.00    +0.000 NA
ATOM      9  C   UNL     1       3.212   2.449  19.089  0.00  0.00    +0.000 A 
ATOM     10  C   UNL     1       3.637   1.227  18.338  0.00  0.00    +0.000 C 
ATOM     11  N   UNL     1       2.790   2.280  20.344  0.00  0.00    +0.000 NA
ATOM     12  C   UNL     1       2.490   3.389  20.997  0.00  0.00    +0.000 A 
ATOM     13  N   UNL     1       2.048   3.265  22.297  0.00  0.00    +0.000 N 
ATOM     14  N   UNL     1       2.567   4.610  20.492  0.00  0.00    +0.000 NA
ATOM     15  H   UNL     1       1.696   2.333  22.469  0.00  0.00    +0.000 HD
ATOM     16  H   UNL     1       1.455   4.037  22.568  0.00  0.00    +0.000 HD
ENDBRANCH   6   7
BRANCH   1  17
ATOM     17  N   UNL     1       5.286   5.648  17.687  0.00  0.00    +0.000 N 
ATOM     18  H   UNL     1       6.088   5.982  18.233  0.00  0.00    +0.000 HD
BRANCH  17  22
ATOM     19  C   UNL     1       6.781   4.584  13.953  0.00  0.00    +0.000 A 
ATOM     20  C   UNL     1       5.460   4.278  14.245  0.00  0.00    +0.000 A 
ATOM     21  C   UNL     1       4.949   4.660  15.487  0.00  0.00    +0.000 A 
ATOM     22  C   UNL     1       5.752   5.374  16.379  0.00  0.00    +0.000 A 
ATOM     23  C   UNL     1       7.072   5.613  15.984  0.00  0.00    +0.000 A 
ATOM     24  N   UNL     1       7.602   5.238  14.800  0.00  0.00    +0.000 NA
BRANCH  19  26
ATOM     25  C   UNL     1       6.381   3.246  12.088  0.00  0.00    +0.000 C 
ATOM     26  O   UNL     1       7.263   4.165  12.728  0.00  0.00    +0.000 OA
ENDBRANCH  19  26
ENDBRANCH  17  22
ENDBRANCH   1  17
BRANCH   4  27
ATOM     27  C   UNL     1       0.815   9.155  18.320  0.00  0.00    +0.000 C 
BRANCH  27  28
ATOM     28  N   UNL     1       1.112  10.235  19.254  0.00  0.00    +0.000 NA
ATOM     29  C   UNL     1      -0.101  11.028  19.659  0.00  0.00    +0.000 C 
ATOM     30  C   UNL     1       0.841  12.258  19.650  0.00  0.00    +0.000 C 
ATOM     31  C   UNL     1       1.564  11.467  18.533  0.00  0.00    +0.000 C 
ATOM     32  N   UNL     1       1.648  12.457  20.880  0.00  0.00    +0.000 N 
ATOM     33  C   UNL     1       1.822  13.803  21.124  0.00  0.00    +0.000 C 
ATOM     34  O   UNL     1       2.519  14.275  22.004  0.00  0.00    +0.000 OA
ATOM     35  N   UNL     1       1.088  14.514  20.205  0.00  0.00    +0.000 N 
ATOM     36  C   UNL     1       0.400  13.722  19.319  0.00  0.00    +0.000 C 
ATOM     37  O   UNL     1      -0.356  14.155  18.459  0.00  0.00    +0.000 OA
ATOM     38  H   UNL     1       2.123  11.739  21.410  0.00  0.00    +0.000 HD
ATOM     39  H   UNL     1       1.072  15.519  20.193  0.00  0.00    +0.000 HD
ENDBRANCH  27  28
ENDBRANCH   4  27
TORSDOF 6
ENDMDL
MODEL 7
REMARK VINA RESULT:      -8.1      2.950      9.592
REMARK  Name = 
REMARK  8 active torsions:
REMARK  status: ('A' for Active; 'I' for Inactive)
REMARK    1  A    between atoms: C_1  and  O_2
REMARK    2  A    between atoms: O_2  and  C_3
REMARK    3  A    between atoms: C_6  and  N_7
REMARK    4  A    between atoms: N_7  and  C_8
REMARK    5  A    between atoms: C_11  and  C_12
REMARK    6  A    between atoms: C_12  and  N_13
REMARK    7  A    between atoms: C_24  and  C_25
REMARK    8  A    between atoms: C_27  and  C_28
REMARK                            x       y       z     vdW  Elec       q    Type
REMARK                         _______ _______ _______ _____ _____    ______ ____
ROOT
ATOM      1  C   UNL     1       3.958   6.548  17.878  0.00  0.00    +0.000 A 
ATOM      2  N   UNL     1       4.182   7.834  17.503  0.00  0.00    +0.000 NA
ATOM      3  C   UNL     1       3.172   8.726  17.580  0.00  0.00    +0.000 A 
ATOM      4  C   UNL     1       1.896   8.418  18.016  0.00  0.00    +0.000 A 
ATOM      5  C   UNL     1       1.664   7.087  18.379  0.00  0.00    +0.000 A 
ATOM      6  C   UNL     1       2.698   6.123  18.341  0.00  0.00    +0.000 A 
ENDROOT
BRANCH   6   7
ATOM      7  C   UNL     1       2.462   4.760  18.842  0.00  0.00    +0.000 A 
ATOM      8  N   UNL     1       2.241   4.598  20.147  0.00  0.00    +0.000 NA
ATOM      9  C   UNL     1       2.060   3.334  20.528  0.00  0.00    +0.000 A 
ATOM     10  C   UNL     1       1.719   3.077  21.962  0.00  0.00    +0.000 C 
ATOM     11  N   UNL     1       2.142   2.275  19.719  0.00  0.00    +0.000 NA
ATOM     12  C   UNL     1       2.376   2.548  18.448  0.00  0.00    +0.000 A 
ATOM     13  N   UNL     1       2.469   1.485  17.574  0.00  0.00    +0.000 N 
ATOM     14  N   UNL     1       2.543   3.763  17.952  0.00  0.00    +0.000 NA
ATOM     15  H   UNL     1       2.677   0.629  18.070  0.00  0.00    +0.000 HD
ATOM     16  H   UNL     1       3.048   1.705  16.776  0.00  0.00    +0.000 HD
ENDBRANCH   6   7
BRANCH   1  17
ATOM     17  N   UNL     1       5.012   5.610  17.669  0.00  0.00    +0.000 N 
ATOM     18  H   UNL     1       5.786   5.861  18.293  0.00  0.00    +0.000 HD
BRANCH  17  22
ATOM     19  C   UNL     1       6.803   4.578  14.058  0.00  0.00    +0.000 A 
ATOM     20  C   UNL     1       5.529   4.097  14.322  0.00  0.00    +0.000 A 
ATOM     21  C   UNL     1       4.916   4.466  15.522  0.00  0.00    +0.000 A 
ATOM     22  C   UNL     1       5.568   5.338  16.396  0.00  0.00    +0.000 A 
ATOM     23  C   UNL     1       6.855   5.746  16.033  0.00  0.00    +0.000 A 
ATOM     24  N   UNL     1       7.483   5.390  14.893  0.00  0.00    +0.000 NA
BRANCH  19  26
ATOM     25  C   UNL     1       6.502   3.405  12.067  0.00  0.00    +0.000 C 
ATOM     26  O   UNL     1       7.393   4.169  12.878  0.00  0.00    +0.000 OA
ENDBRANCH  19  26
ENDBRANCH  17  22
ENDBRANCH   1  17
BRANCH   4  27
ATOM     27  C   UNL     1       0.813   9.472  18.050  0.00  0.00    +0.000 C 
BRANCH  27  28
ATOM     28  N   UNL     1       1.111  10.483  19.058  0.00  0.00    +0.000 NA
ATOM     29  C   UNL     1      -0.100  11.249  19.516  0.00  0.00    +0.000 C 
ATOM     30  C   UNL     1       0.845  12.474  19.595  0.00  0.00    +0.000 C 
ATOM     31  C   UNL     1       1.568  11.761  18.427  0.00  0.00    +0.000 C 
ATOM     32  N   UNL     1       1.650  12.583  20.838  0.00  0.00    +0.000 N 
ATOM     33  C   UNL     1       1.828  13.908  21.177  0.00  0.00    +0.000 C 
ATOM     34  O   UNL     1       2.524  14.315  22.089  0.00  0.00    +0.000 OA
ATOM     35  N   UNL     1       1.098  14.684  20.308  0.00  0.00    +0.000 N 
ATOM     36  C   UNL     1       0.409  13.958  19.367  0.00  0.00    +0.000 C 
ATOM     37  O   UNL     1      -0.343  14.453  18.539  0.00  0.00    +0.000 OA
ATOM     38  H   UNL     1       2.121  11.828  21.317  0.00  0.00    +0.000 HD
ATOM     39  H   UNL     1       1.084  15.688  20.368  0.00  0.00    +0.000 HD
ENDBRANCH  27  28
ENDBRANCH   4  27
TORSDOF 6
ENDMDL
MODEL 8
REMARK VINA RESULT:      -8.0      2.609      3.624
REMARK  Name = 
REMARK  8 active torsions:
REMARK  status: ('A' for Active; 'I' for Inactive)
REMARK    1  A    between atoms: C_1  and  O_2
REMARK    2  A    between atoms: O_2  and  C_3
REMARK    3  A    between atoms: C_6  and  N_7
REMARK    4  A    between atoms: N_7  and  C_8
REMARK    5  A    between atoms: C_11  and  C_12
REMARK    6  A    between atoms: C_12  and  N_13
REMARK    7  A    between atoms: C_24  and  C_25
REMARK    8  A    between atoms: C_27  and  C_28
REMARK                            x       y       z     vdW  Elec       q    Type
REMARK                         _______ _______ _______ _____ _____    ______ ____
ROOT
ATOM      1  C   UNL     1       1.039   9.755  18.457  0.00  0.00    +0.000 A 
ATOM      2  N   UNL     1       1.684   9.163  17.419  0.00  0.00    +0.000 NA
ATOM      3  C   UNL     1       2.368   8.020  17.638  0.00  0.00    +0.000 A 
ATOM      4  C   UNL     1       2.469   7.398  18.870  0.00  0.00    +0.000 A 
ATOM      5  C   UNL     1       1.822   8.025  19.940  0.00  0.00    +0.000 A 
ATOM      6  C   UNL     1       1.070   9.209  19.755  0.00  0.00    +0.000 A 
ENDROOT
BRANCH   6   7
ATOM      7  C   UNL     1       0.300   9.783  20.869  0.00  0.00    +0.000 A 
ATOM      8  N   UNL     1      -0.512  10.808  20.611  0.00  0.00    +0.000 NA
ATOM      9  C   UNL     1      -1.157  11.288  21.674  0.00  0.00    +0.000 A 
ATOM     10  C   UNL     1      -2.155  12.381  21.452  0.00  0.00    +0.000 C 
ATOM     11  N   UNL     1      -0.995  10.852  22.925  0.00  0.00    +0.000 NA
ATOM     12  C   UNL     1      -0.158   9.840  23.070  0.00  0.00    +0.000 A 
ATOM     13  N   UNL     1       0.043   9.356  24.346  0.00  0.00    +0.000 N 
ATOM     14  N   UNL     1       0.514   9.265  22.086  0.00  0.00    +0.000 NA
ATOM     15  H   UNL     1      -0.216  10.047  25.037  0.00  0.00    +0.000 HD
ATOM     16  H   UNL     1       0.952   8.926  24.445  0.00  0.00    +0.000 HD
ENDBRANCH   6   7
BRANCH   1  17
ATOM     17  N   UNL     1       0.430  11.022  18.215  0.00  0.00    +0.000 N 
ATOM     18  H   UNL     1      -0.044  10.976  17.307  0.00  0.00    +0.000 HD
BRANCH  17  22
ATOM     19  C   UNL     1       2.532  14.587  18.643  0.00  0.00    +0.000 A 
ATOM     20  C   UNL     1       3.240  13.442  18.312  0.00  0.00    +0.000 A 
ATOM     21  C   UNL     1       2.532  12.250  18.141  0.00  0.00    +0.000 A 
ATOM     22  C   UNL     1       1.140  12.246  18.256  0.00  0.00    +0.000 A 
ATOM     23  C   UNL     1       0.535  13.457  18.608  0.00  0.00    +0.000 A 
ATOM     24  N   UNL     1       1.193  14.619  18.801  0.00  0.00    +0.000 NA
BRANCH  19  26
ATOM     25  C   UNL     1       4.640  15.468  19.098  0.00  0.00    +0.000 C 
ATOM     26  O   UNL     1       3.266  15.742  18.835  0.00  0.00    +0.000 OA
ENDBRANCH  19  26
ENDBRANCH  17  22
ENDBRANCH   1  17
BRANCH   4  27
ATOM     27  C   UNL     1       3.275   6.130  19.035  0.00  0.00    +0.000 C 
BRANCH  27  28
ATOM     28  N   UNL     1       4.008   5.824  17.812  0.00  0.00    +0.000 NA
ATOM     29  C   UNL     1       4.605   4.443  17.801  0.00  0.00    +0.000 C 
ATOM     30  C   UNL     1       5.793   5.086  17.044  0.00  0.00    +0.000 C 
ATOM     31  C   UNL     1       5.414   6.333  17.879  0.00  0.00    +0.000 C 
ATOM     32  N   UNL     1       5.607   5.251  15.580  0.00  0.00    +0.000 N 
ATOM     33  C   UNL     1       6.808   5.084  14.924  0.00  0.00    +0.000 C 
ATOM     34  O   UNL     1       6.990   5.255  13.732  0.00  0.00    +0.000 OA
ATOM     35  N   UNL     1       7.759   4.705  15.841  0.00  0.00    +0.000 N 
ATOM     36  C   UNL     1       7.276   4.596  17.122  0.00  0.00    +0.000 C 
ATOM     37  O   UNL     1       7.945   4.218  18.075  0.00  0.00    +0.000 OA
ATOM     38  H   UNL     1       4.767   5.566  15.113  0.00  0.00    +0.000 HD
ATOM     39  H   UNL     1       8.715   4.532  15.582  0.00  0.00    +0.000 HD
ENDBRANCH  27  28
ENDBRANCH   4  27
TORSDOF 6
ENDMDL
MODEL 9
REMARK VINA RESULT:      -8.0      2.846      4.256
REMARK  Name = 
REMARK  8 active torsions:
REMARK  status: ('A' for Active; 'I' for Inactive)
REMARK    1  A    between atoms: C_1  and  O_2
REMARK    2  A    between atoms: O_2  and  C_3
REMARK    3  A    between atoms: C_6  and  N_7
REMARK    4  A    between atoms: N_7  and  C_8
REMARK    5  A    between atoms: C_11  and  C_12
REMARK    6  A    between atoms: C_12  and  N_13
REMARK    7  A    between atoms: C_24  and  C_25
REMARK    8  A    between atoms: C_27  and  C_28
REMARK                            x       y       z     vdW  Elec       q    Type
REMARK                         _______ _______ _______ _____ _____    ______ ____
ROOT
ATOM      1  C   UNL     1       0.740  11.150  20.463  0.00  0.00    +0.000 A 
ATOM      2  N   UNL     1       0.638   9.840  20.807  0.00  0.00    +0.000 NA
ATOM      3  C   UNL     1       1.056   8.899  19.934  0.00  0.00    +0.000 A 
ATOM      4  C   UNL     1       1.586   9.176  18.687  0.00  0.00    +0.000 A 
ATOM      5  C   UNL     1       1.666  10.526  18.329  0.00  0.00    +0.000 A 
ATOM      6  C   UNL     1       1.266  11.550  19.220  0.00  0.00    +0.000 A 
ENDROOT
BRANCH   6   7
ATOM      7  C   UNL     1       1.473  12.963  18.870  0.00  0.00    +0.000 A 
ATOM      8  N   UNL     1       2.715  13.372  18.609  0.00  0.00    +0.000 NA
ATOM      9  C   UNL     1       2.825  14.670  18.324  0.00  0.00    +0.000 A 
ATOM     10  C   UNL     1       4.173  15.188  17.933  0.00  0.00    +0.000 C 
ATOM     11  N   UNL     1       1.814  15.542  18.341  0.00  0.00    +0.000 NA
ATOM     12  C   UNL     1       0.628  15.033  18.623  0.00  0.00    +0.000 A 
ATOM     13  N   UNL     1      -0.446  15.896  18.653  0.00  0.00    +0.000 N 
ATOM     14  N   UNL     1       0.395  13.758  18.893  0.00  0.00    +0.000 NA
ATOM     15  H   UNL     1      -0.137  16.850  18.784  0.00  0.00    +0.000 HD
ATOM     16  H   UNL     1      -1.179  15.564  19.264  0.00  0.00    +0.000 HD
ENDBRANCH   6   7
BRANCH   1  17
ATOM     17  N   UNL     1       0.177  12.108  21.358  0.00  0.00    +0.000 N 
ATOM     18  H   UNL     1       0.727  12.093  22.224  0.00  0.00    +0.000 HD
BRANCH  17  22
ATOM     19  C   UNL     1      -3.787  12.406  22.586  0.00  0.00    +0.000 A 
ATOM     20  C   UNL     1      -3.462  12.825  21.304  0.00  0.00    +0.000 A 
ATOM     21  C   UNL     1      -2.136  12.699  20.881  0.00  0.00    +0.000 A 
ATOM     22  C   UNL     1      -1.189  12.118  21.727  0.00  0.00    +0.000 A 
ATOM     23  C   UNL     1      -1.628  11.748  23.002  0.00  0.00    +0.000 A 
ATOM     24  N   UNL     1      -2.895  11.876  23.448  0.00  0.00    +0.000 NA
BRANCH  19  26
ATOM     25  C   UNL     1      -5.962  12.861  21.884  0.00  0.00    +0.000 C 
ATOM     26  O   UNL     1      -5.099  12.573  22.983  0.00  0.00    +0.000 OA
ENDBRANCH  19  26
ENDBRANCH  17  22
ENDBRANCH   1  17
BRANCH   4  27
ATOM     27  C   UNL     1       2.010   8.061  17.758  0.00  0.00    +0.000 C 
BRANCH  27  28
ATOM     28  N   UNL     1       3.289   7.502  18.178  0.00  0.00    +0.000 NA
ATOM     29  C   UNL     1       4.077   6.894  17.050  0.00  0.00    +0.000 C 
ATOM     30  C   UNL     1       4.523   5.831  18.085  0.00  0.00    +0.000 C 
ATOM     31  C   UNL     1       3.129   6.107  18.697  0.00  0.00    +0.000 C 
ATOM     32  N   UNL     1       5.661   6.221  18.954  0.00  0.00    +0.000 N 
ATOM     33  C   UNL     1       6.440   5.122  19.245  0.00  0.00    +0.000 C 
ATOM     34  O   UNL     1       7.386   5.109  20.012  0.00  0.00    +0.000 OA
ATOM     35  N   UNL     1       5.963   4.047  18.533  0.00  0.00    +0.000 N 
ATOM     36  C   UNL     1       4.875   4.345  17.749  0.00  0.00    +0.000 C 
ATOM     37  O   UNL     1       4.336   3.545  16.996  0.00  0.00    +0.000 OA
ATOM     38  H   UNL     1       5.802   7.122  19.392  0.00  0.00    +0.000 HD
ATOM     39  H   UNL     1       6.380   3.134  18.596  0.00  0.00    +0.000 HD
ENDBRANCH  27  28
ENDBRANCH   4  27
TORSDOF 6
ENDMDL
