MODEL 1
REMARK VINA RESULT:      -7.9      0.000      0.000
REMARK  Name = 
REMARK  7 active torsions:
REMARK  status: ('A' for Active; 'I' for Inactive)
REMARK    1  A    between atoms: C_1  and  C_2
REMARK    2  A    between atoms: C_5  and  C_6
REMARK    3  A    between atoms: C_7  and  C_8
REMARK    4  A    between atoms: C_8  and  N_9
REMARK    5  A    between atoms: N_9  and  C_10
REMARK    6  A    between atoms: C_13  and  S_14
REMARK    7  A    between atoms: S_14  and  N_17
REMARK                            x       y       z     vdW  Elec       q    Type
REMARK                         _______ _______ _______ _____ _____    ______ ____
ROOT
ATOM      1  C   UNL     1       1.752   7.445  20.103  0.00  0.00    +0.000 A 
ATOM      2  C   UNL     1       1.755   6.217  20.772  0.00  0.00    +0.000 A 
ATOM      3  C   UNL     1       2.499   5.138  20.290  0.00  0.00    +0.000 A 
ATOM      4  C   UNL     1       3.204   5.265  19.092  0.00  0.00    +0.000 A 
ATOM      5  C   UNL     1       3.202   6.478  18.398  0.00  0.00    +0.000 A 
ATOM      6  C   UNL     1       2.452   7.550  18.893  0.00  0.00    +0.000 A 
ENDROOT
BRANCH   4   7
ATOM      7  S   UNL     1       4.142   3.872  18.492  0.00  0.00    +0.000 S 
ATOM      8  O   UNL     1       5.031   3.453  19.556  0.00  0.00    +0.000 OA
ATOM      9  O   UNL     1       3.199   2.945  17.896  0.00  0.00    +0.000 OA
BRANCH   7  10
ATOM     10  N   UNL     1       5.091   4.550  17.225  0.00  0.00    +0.000 NA
ATOM     11  C   UNL     1       6.510   4.822  17.584  0.00  0.00    +0.000 C 
ATOM     12  C   UNL     1       7.239   5.562  16.468  0.00  0.00    +0.000 C 
ATOM     13  C   UNL     1       7.103   4.824  15.144  0.00  0.00    +0.000 C 
ATOM     14  C   UNL     1       5.629   4.674  14.801  0.00  0.00    +0.000 C 
ATOM     15  C   UNL     1       4.884   3.921  15.897  0.00  0.00    +0.000 C 
ENDBRANCH   7  10
ENDBRANCH   4   7
BRANCH   1  16
ATOM     16  N   UNL     1       1.001   8.548  20.539  0.00  0.00    +0.000 N 
ATOM     17  H   UNL     1       1.222   8.747  21.514  0.00  0.00    +0.000 HD
BRANCH  16  18
ATOM     18  C   UNL     1       1.140   9.767  19.734  0.00  0.00    +0.000 C 
BRANCH  18  25
ATOM     19  C   UNL     1      -2.534   9.931  16.267  0.00  0.00    +0.000 C 
ATOM     20  C   UNL     1      -1.965  10.422  17.563  0.00  0.00    +0.000 A 
ATOM     21  C   UNL     1      -2.618  11.393  18.322  0.00  0.00    +0.000 A 
ATOM     22  C   UNL     1      -2.070  11.831  19.528  0.00  0.00    +0.000 A 
ATOM     23  C   UNL     1      -0.860  11.302  20.001  0.00  0.00    +0.000 A 
ATOM     24  C   UNL     1      -0.305  11.811  21.307  0.00  0.00    +0.000 C 
ATOM     25  C   UNL     1      -0.184  10.319  19.242  0.00  0.00    +0.000 A 
ATOM     26  C   UNL     1      -0.753   9.897  18.027  0.00  0.00    +0.000 A 
ENDBRANCH  18  25
ENDBRANCH  16  18
ENDBRANCH   1  16
TORSDOF 5
ENDMDL
MODEL 2
REMARK VINA RESULT:      -7.9      0.389      1.039
REMARK  Name = 
REMARK  7 active torsions:
REMARK  status: ('A' for Active; 'I' for Inactive)
REMARK    1  A    between atoms: C_1  and  C_2
REMARK    2  A    between atoms: C_5  and  C_6
REMARK    3  A    between atoms: C_7  and  C_8
REMARK    4  A    between atoms: C_8  and  N_9
REMARK    5  A    between atoms: N_9  and  C_10
REMARK    6  A    between atoms: C_13  and  S_14
REMARK    7  A    between atoms: S_14  and  N_17
REMARK                            x       y       z     vdW  Elec       q    Type
REMARK                         _______ _______ _______ _____ _____    ______ ____
ROOT
ATOM      1  C   UNL     1       1.648   7.853  19.871  0.00  0.00    +0.000 A 
ATOM      2  C   UNL     1       2.365   7.834  18.671  0.00  0.00    +0.000 A 
ATOM      3  C   UNL     1       3.002   6.673  18.232  0.00  0.00    +0.000 A 
ATOM      4  C   UNL     1       2.976   5.526  19.029  0.00  0.00    +0.000 A 
ATOM      5  C   UNL     1       2.279   5.528  20.241  0.00  0.00    +0.000 A 
ATOM      6  C   UNL     1       1.646   6.699  20.668  0.00  0.00    +0.000 A 
ENDROOT
BRANCH   4   7
ATOM      7  S   UNL     1       3.802   4.055  18.453  0.00  0.00    +0.000 S 
ATOM      8  O   UNL     1       4.550   3.510  19.566  0.00  0.00    +0.000 OA
ATOM      9  O   UNL     1       2.814   3.257  17.752  0.00  0.00    +0.000 OA
BRANCH   7  10
ATOM     10  N   UNL     1       4.918   4.658  17.289  0.00  0.00    +0.000 NA
ATOM     11  C   UNL     1       6.303   4.857  17.795  0.00  0.00    +0.000 C 
ATOM     12  C   UNL     1       7.189   5.537  16.757  0.00  0.00    +0.000 C 
ATOM     13  C   UNL     1       7.154   4.786  15.434  0.00  0.00    +0.000 C 
ATOM     14  C   UNL     1       5.718   4.713  14.936  0.00  0.00    +0.000 C 
ATOM     15  C   UNL     1       4.818   4.021  15.952  0.00  0.00    +0.000 C 
ENDBRANCH   7  10
ENDBRANCH   4   7
BRANCH   1  16
ATOM     16  N   UNL     1       1.012   9.005  20.361  0.00  0.00    +0.000 N 
ATOM     17  H   UNL     1       1.412   9.255  21.265  0.00  0.00    +0.000 HD
BRANCH  16  18
ATOM     18  C   UNL     1       1.027  10.167  19.466  0.00  0.00    +0.000 C 
BRANCH  18  25
ATOM     19  C   UNL     1      -2.733   9.806  16.108  0.00  0.00    +0.000 C 
ATOM     20  C   UNL     1      -2.177  10.421  17.356  0.00  0.00    +0.000 A 
ATOM     21  C   UNL     1      -2.893  11.378  18.076  0.00  0.00    +0.000 A 
ATOM     22  C   UNL     1      -2.355  11.933  19.237  0.00  0.00    +0.000 A 
ATOM     23  C   UNL     1      -1.092  11.540  19.704  0.00  0.00    +0.000 A 
ATOM     24  C   UNL     1      -0.551  12.173  20.960  0.00  0.00    +0.000 C 
ATOM     25  C   UNL     1      -0.352  10.574  18.983  0.00  0.00    +0.000 A 
ATOM     26  C   UNL     1      -0.913  10.031  17.813  0.00  0.00    +0.000 A 
ENDBRANCH  18  25
ENDBRANCH  16  18
ENDBRANCH   1  16
TORSDOF 5
ENDMDL
MODEL 3
REMARK VINA RESULT:      -7.9      1.386      1.869
REMARK  Name = 
REMARK  7 active torsions:
REMARK  status: ('A' for Active; 'I' for Inactive)
REMARK    1  A    between atoms: C_1  and  C_2
REMARK    2  A    between atoms: C_5  and  C_6
REMARK    3  A    between atoms: C_7  and  C_8
REMARK    4  A    between atoms: C_8  and  N_9
REMARK    5  A    between atoms: N_9  and  C_10
REMARK    6  A    between atoms: C_13  and  S_14
REMARK    7  A    between atoms: S_14  and  N_17
REMARK                            x       y       z     vdW  Elec       q    Type
REMARK                         _______ _______ _______ _____ _____    ______ ____
ROOT
ATOM      1  C   UNL     1       1.485   9.412  18.962  0.00  0.00    +0.000 A 
ATOM      2  C   UNL     1       1.403   8.595  20.093  0.00  0.00    +0.000 A 
ATOM      3  C   UNL     1       1.935   7.305  20.089  0.00  0.00    +0.000 A 
ATOM      4  C   UNL     1       2.508   6.798  18.921  0.00  0.00    +0.000 A 
ATOM      5  C   UNL     1       2.586   7.590  17.773  0.00  0.00    +0.000 A 
ATOM      6  C   UNL     1       2.047   8.881  17.792  0.00  0.00    +0.000 A 
ENDROOT
BRANCH   4   7
ATOM      7  S   UNL     1       3.177   5.145  18.936  0.00  0.00    +0.000 S 
ATOM      8  O   UNL     1       3.325   4.747  20.321  0.00  0.00    +0.000 OA
ATOM      9  O   UNL     1       2.388   4.355  18.010  0.00  0.00    +0.000 OA
BRANCH   7  10
ATOM     10  N   UNL     1       4.746   5.346  18.256  0.00  0.00    +0.000 NA
ATOM     11  C   UNL     1       5.866   5.254  19.231  0.00  0.00    +0.000 C 
ATOM     12  C   UNL     1       7.204   5.598  18.584  0.00  0.00    +0.000 C 
ATOM     13  C   UNL     1       7.441   4.753  17.340  0.00  0.00    +0.000 C 
ATOM     14  C   UNL     1       6.305   4.980  16.355  0.00  0.00    +0.000 C 
ATOM     15  C   UNL     1       4.960   4.626  16.976  0.00  0.00    +0.000 C 
ENDBRANCH   7  10
ENDBRANCH   4   7
BRANCH   1  16
ATOM     16  N   UNL     1       0.942  10.706  18.914  0.00  0.00    +0.000 N 
ATOM     17  H   UNL     1       0.787  10.974  17.943  0.00  0.00    +0.000 HD
BRANCH  16  18
ATOM     18  C   UNL     1      -0.284  10.908  19.693  0.00  0.00    +0.000 C 
BRANCH  18  25
ATOM     19  C   UNL     1      -2.837   9.721  15.497  0.00  0.00    +0.000 C 
ATOM     20  C   UNL     1      -2.777  10.453  16.803  0.00  0.00    +0.000 A 
ATOM     21  C   UNL     1      -3.841  11.241  17.244  0.00  0.00    +0.000 A 
ATOM     22  C   UNL     1      -3.762  11.909  18.465  0.00  0.00    +0.000 A 
ATOM     23  C   UNL     1      -2.620  11.799  19.273  0.00  0.00    +0.000 A 
ATOM     24  C   UNL     1      -2.581  12.545  20.583  0.00  0.00    +0.000 C 
ATOM     25  C   UNL     1      -1.533  11.007  18.839  0.00  0.00    +0.000 A 
ATOM     26  C   UNL     1      -1.633  10.345  17.601  0.00  0.00    +0.000 A 
ENDBRANCH  18  25
ENDBRANCH  16  18
ENDBRANCH   1  16
TORSDOF 5
ENDMDL
MODEL 4
REMARK VINA RESULT:      -7.8      2.632      3.603
REMARK  Name = 
REMARK  7 active torsions:
REMARK  status: ('A' for Active; 'I' for Inactive)
REMARK    1  A    between atoms: C_1  and  C_2
REMARK    2  A    between atoms: C_5  and  C_6
REMARK    3  A    between atoms: C_7  and  C_8
REMARK    4  A    between atoms: C_8  and  N_9
REMARK    5  A    between atoms: N_9  and  C_10
REMARK    6  A    between atoms: C_13  and  S_14
REMARK    7  A    between atoms: S_14  and  N_17
REMARK                            x       y       z     vdW  Elec       q    Type
REMARK                         _______ _______ _______ _____ _____    ______ ____
ROOT
ATOM      1  C   UNL     1       1.385   9.485  19.039  0.00  0.00    +0.000 A 
ATOM      2  C   UNL     1       1.434   8.565  20.091  0.00  0.00    +0.000 A 
ATOM      3  C   UNL     1       2.141   7.368  19.967  0.00  0.00    +0.000 A 
ATOM      4  C   UNL     1       2.760   7.053  18.755  0.00  0.00    +0.000 A 
ATOM      5  C   UNL     1       2.709   7.949  17.685  0.00  0.00    +0.000 A 
ATOM      6  C   UNL     1       1.997   9.145  17.823  0.00  0.00    +0.000 A 
ENDROOT
BRANCH   4   7
ATOM      7  S   UNL     1       3.651   5.515  18.617  0.00  0.00    +0.000 S 
ATOM      8  O   UNL     1       3.923   5.293  17.211  0.00  0.00    +0.000 OA
ATOM      9  O   UNL     1       4.727   5.554  19.589  0.00  0.00    +0.000 OA
BRANCH   7  10
ATOM     10  N   UNL     1       2.505   4.343  19.142  0.00  0.00    +0.000 NA
ATOM     11  C   UNL     1       1.874   3.552  18.050  0.00  0.00    +0.000 C 
ATOM     12  C   UNL     1       0.763   2.652  18.579  0.00  0.00    +0.000 C 
ATOM     13  C   UNL     1       1.265   1.777  19.719  0.00  0.00    +0.000 C 
ATOM     14  C   UNL     1       1.801   2.662  20.833  0.00  0.00    +0.000 C 
ATOM     15  C   UNL     1       2.925   3.559  20.330  0.00  0.00    +0.000 C 
ENDBRANCH   7  10
ENDBRANCH   4   7
BRANCH   1  16
ATOM     16  N   UNL     1       0.668  10.690  19.111  0.00  0.00    +0.000 N 
ATOM     17  H   UNL     1       0.611  11.108  18.183  0.00  0.00    +0.000 HD
BRANCH  16  18
ATOM     18  C   UNL     1      -0.671  10.595  19.703  0.00  0.00    +0.000 C 
BRANCH  18  25
ATOM     19  C   UNL     1      -2.761   9.630  15.204  0.00  0.00    +0.000 C 
ATOM     20  C   UNL     1      -2.808  10.352  16.516  0.00  0.00    +0.000 A 
ATOM     21  C   UNL     1      -3.851  11.224  16.830  0.00  0.00    +0.000 A 
ATOM     22  C   UNL     1      -3.874  11.881  18.060  0.00  0.00    +0.000 A 
ATOM     23  C   UNL     1      -2.856  11.675  19.004  0.00  0.00    +0.000 A 
ATOM     24  C   UNL     1      -2.922  12.412  20.317  0.00  0.00    +0.000 C 
ATOM     25  C   UNL     1      -1.790  10.797  18.700  0.00  0.00    +0.000 A 
ATOM     26  C   UNL     1      -1.786  10.149  17.451  0.00  0.00    +0.000 A 
ENDBRANCH  18  25
ENDBRANCH  16  18
ENDBRANCH   1  16
TORSDOF 5
ENDMDL
MODEL 5
REMARK VINA RESULT:      -7.8      0.877      1.481
REMARK  Name = 
REMARK  7 active torsions:
REMARK  status: ('A' for Active; 'I' for Inactive)
REMARK    1  A    between atoms: C_1  and  C_2
REMARK    2  A    between atoms: C_5  and  C_6
REMARK    3  A    between atoms: C_7  and  C_8
REMARK    4  A    between atoms: C_8  and  N_9
REMARK    5  A    between atoms: N_9  and  C_10
REMARK    6  A    between atoms: C_13  and  S_14
REMARK    7  A    between atoms: S_14  and  N_17
REMARK                            x       y       z     vdW  Elec       q    Type
REMARK                         _______ _______ _______ _____ _____    ______ ____
ROOT
ATOM      1  C   UNL     1       1.624   7.890  19.985  0.00  0.00    +0.000 A 
ATOM      2  C   UNL     1       1.603   6.709  20.734  0.00  0.00    +0.000 A 
ATOM      3  C   UNL     1       2.214   5.547  20.261  0.00  0.00    +0.000 A 
ATOM      4  C   UNL     1       2.806   5.543  18.996  0.00  0.00    +0.000 A 
ATOM      5  C   UNL     1       2.825   6.707  18.224  0.00  0.00    +0.000 A 
ATOM      6  C   UNL     1       2.208   7.864  18.710  0.00  0.00    +0.000 A 
ENDROOT
BRANCH   4   7
ATOM      7  S   UNL     1       3.576   4.045  18.410  0.00  0.00    +0.000 S 
ATOM      8  O   UNL     1       3.513   3.073  19.482  0.00  0.00    +0.000 OA
ATOM      9  O   UNL     1       3.013   3.758  17.104  0.00  0.00    +0.000 OA
BRANCH   7  10
ATOM     10  N   UNL     1       5.220   4.505  18.188  0.00  0.00    +0.000 NA
ATOM     11  C   UNL     1       5.571   4.928  16.805  0.00  0.00    +0.000 C 
ATOM     12  C   UNL     1       7.069   5.167  16.653  0.00  0.00    +0.000 C 
ATOM     13  C   UNL     1       7.576   6.142  17.707  0.00  0.00    +0.000 C 
ATOM     14  C   UNL     1       7.267   5.590  19.090  0.00  0.00    +0.000 C 
ATOM     15  C   UNL     1       5.772   5.360  19.269  0.00  0.00    +0.000 C 
ENDBRANCH   7  10
ENDBRANCH   4   7
BRANCH   1  16
ATOM     16  N   UNL     1       1.003   9.075  20.411  0.00  0.00    +0.000 N 
ATOM     17  H   UNL     1       1.415   9.377  21.293  0.00  0.00    +0.000 HD
BRANCH  16  18
ATOM     18  C   UNL     1       1.015  10.179  19.446  0.00  0.00    +0.000 C 
BRANCH  18  25
ATOM     19  C   UNL     1      -2.762   9.797  16.110  0.00  0.00    +0.000 C 
ATOM     20  C   UNL     1      -2.202  10.418  17.354  0.00  0.00    +0.000 A 
ATOM     21  C   UNL     1      -2.917  11.373  18.076  0.00  0.00    +0.000 A 
ATOM     22  C   UNL     1      -2.374  11.933  19.232  0.00  0.00    +0.000 A 
ATOM     23  C   UNL     1      -1.107  11.545  19.693  0.00  0.00    +0.000 A 
ATOM     24  C   UNL     1      -0.561  12.183  20.945  0.00  0.00    +0.000 C 
ATOM     25  C   UNL     1      -0.368  10.580  18.970  0.00  0.00    +0.000 A 
ATOM     26  C   UNL     1      -0.933  10.032  17.804  0.00  0.00    +0.000 A 
ENDBRANCH  18  25
ENDBRANCH  16  18
ENDBRANCH   1  16
TORSDOF 5
ENDMDL
MODEL 6
REMARK VINA RESULT:      -7.8      2.146      2.883
REMARK  Name = 
REMARK  7 active torsions:
REMARK  status: ('A' for Active; 'I' for Inactive)
REMARK    1  A    between atoms: C_1  and  C_2
REMARK    2  A    between atoms: C_5  and  C_6
REMARK    3  A    between atoms: C_7  and  C_8
REMARK    4  A    between atoms: C_8  and  N_9
REMARK    5  A    between atoms: N_9  and  C_10
REMARK    6  A    between atoms: C_13  and  S_14
REMARK    7  A    between atoms: S_14  and  N_17
REMARK                            x       y       z     vdW  Elec       q    Type
REMARK                         _______ _______ _______ _____ _____    ______ ____
ROOT
ATOM      1  C   UNL     1       1.375   8.787  19.425  0.00  0.00    +0.000 A 
ATOM      2  C   UNL     1       1.713   7.641  20.151  0.00  0.00    +0.000 A 
ATOM      3  C   UNL     1       2.676   6.748  19.677  0.00  0.00    +0.000 A 
ATOM      4  C   UNL     1       3.270   6.969  18.432  0.00  0.00    +0.000 A 
ATOM      5  C   UNL     1       2.935   8.099  17.683  0.00  0.00    +0.000 A 
ATOM      6  C   UNL     1       1.968   8.985  18.170  0.00  0.00    +0.000 A 
ENDROOT
BRANCH   4   7
ATOM      7  S   UNL     1       4.494   5.813  17.844  0.00  0.00    +0.000 S 
ATOM      8  O   UNL     1       4.506   5.889  16.397  0.00  0.00    +0.000 OA
ATOM      9  O   UNL     1       5.701   6.037  18.616  0.00  0.00    +0.000 OA
BRANCH   7  10
ATOM     10  N   UNL     1       3.847   4.285  18.303  0.00  0.00    +0.000 NA
ATOM     11  C   UNL     1       3.178   3.534  17.206  0.00  0.00    +0.000 C 
ATOM     12  C   UNL     1       2.498   2.271  17.724  0.00  0.00    +0.000 C 
ATOM     13  C   UNL     1       3.475   1.408  18.510  0.00  0.00    +0.000 C 
ATOM     14  C   UNL     1       4.038   2.216  19.669  0.00  0.00    +0.000 C 
ATOM     15  C   UNL     1       4.738   3.475  19.172  0.00  0.00    +0.000 C 
ENDBRANCH   7  10
ENDBRANCH   4   7
BRANCH   1  16
ATOM     16  N   UNL     1       0.396   9.699  19.852  0.00  0.00    +0.000 N 
ATOM     17  H   UNL     1       0.615  10.016  20.796  0.00  0.00    +0.000 HD
BRANCH  16  18
ATOM     18  C   UNL     1       0.179  10.853  18.973  0.00  0.00    +0.000 C 
BRANCH  18  25
ATOM     19  C   UNL     1      -3.120   9.677  15.329  0.00  0.00    +0.000 C 
ATOM     20  C   UNL     1      -2.829  10.365  16.627  0.00  0.00    +0.000 A 
ATOM     21  C   UNL     1      -3.814  11.080  17.308  0.00  0.00    +0.000 A 
ATOM     22  C   UNL     1      -3.518  11.710  18.517  0.00  0.00    +0.000 A 
ATOM     23  C   UNL     1      -2.232  11.633  19.073  0.00  0.00    +0.000 A 
ATOM     24  C   UNL     1      -1.960  12.334  20.379  0.00  0.00    +0.000 C 
ATOM     25  C   UNL     1      -1.221  10.914  18.393  0.00  0.00    +0.000 A 
ATOM     26  C   UNL     1      -1.541  10.292  17.173  0.00  0.00    +0.000 A 
ENDBRANCH  18  25
ENDBRANCH  16  18
ENDBRANCH   1  16
TORSDOF 5
ENDMDL
MODEL 7
REMARK VINA RESULT:      -7.8      0.981      1.838
REMARK  Name = 
REMARK  7 active torsions:
REMARK  status: ('A' for Active; 'I' for Inactive)
REMARK    1  A    between atoms: C_1  and  C_2
REMARK    2  A    between atoms: C_5  and  C_6
REMARK    3  A    between atoms: C_7  and  C_8
REMARK    4  A    between atoms: C_8  and  N_9
REMARK    5  A    between atoms: N_9  and  C_10
REMARK    6  A    between atoms: C_13  and  S_14
REMARK    7  A    between atoms: S_14  and  N_17
REMARK                            x       y       z     vdW  Elec       q    Type
REMARK                         _______ _______ _______ _____ _____    ______ ____
ROOT
ATOM      1  C   UNL     1       1.599   7.872  19.916  0.00  0.00    +0.000 A 
ATOM      2  C   UNL     1       2.249   7.923  18.679  0.00  0.00    +0.000 A 
ATOM      3  C   UNL     1       2.941   6.816  18.183  0.00  0.00    +0.000 A 
ATOM      4  C   UNL     1       3.037   5.658  18.958  0.00  0.00    +0.000 A 
ATOM      5  C   UNL     1       2.409   5.591  20.204  0.00  0.00    +0.000 A 
ATOM      6  C   UNL     1       1.720   6.708  20.688  0.00  0.00    +0.000 A 
ENDROOT
BRANCH   4   7
ATOM      7  S   UNL     1       3.930   4.258  18.309  0.00  0.00    +0.000 S 
ATOM      8  O   UNL     1       3.952   3.239  19.338  0.00  0.00    +0.000 OA
ATOM      9  O   UNL     1       3.391   3.980  16.991  0.00  0.00    +0.000 OA
BRANCH   7  10
ATOM     10  N   UNL     1       5.529   4.866  18.110  0.00  0.00    +0.000 NA
ATOM     11  C   UNL     1       5.733   5.703  16.897  0.00  0.00    +0.000 C 
ATOM     12  C   UNL     1       7.201   6.070  16.709  0.00  0.00    +0.000 C 
ATOM     13  C   UNL     1       7.768   6.715  17.966  0.00  0.00    +0.000 C 
ATOM     14  C   UNL     1       7.610   5.757  19.136  0.00  0.00    +0.000 C 
ATOM     15  C   UNL     1       6.147   5.390  19.353  0.00  0.00    +0.000 C 
ENDBRANCH   7  10
ENDBRANCH   4   7
BRANCH   1  16
ATOM     16  N   UNL     1       0.913   8.968  20.463  0.00  0.00    +0.000 N 
ATOM     17  H   UNL     1       1.261   9.152  21.403  0.00  0.00    +0.000 HD
BRANCH  16  18
ATOM     18  C   UNL     1       0.945  10.198  19.665  0.00  0.00    +0.000 C 
BRANCH  18  25
ATOM     19  C   UNL     1      -2.669   9.795  16.155  0.00  0.00    +0.000 C 
ATOM     20  C   UNL     1      -2.166  10.427  17.417  0.00  0.00    +0.000 A 
ATOM     21  C   UNL     1      -2.911  11.392  18.094  0.00  0.00    +0.000 A 
ATOM     22  C   UNL     1      -2.423  11.962  19.270  0.00  0.00    +0.000 A 
ATOM     23  C   UNL     1      -1.181  11.574  19.795  0.00  0.00    +0.000 A 
ATOM     24  C   UNL     1      -0.693  12.223  21.066  0.00  0.00    +0.000 C 
ATOM     25  C   UNL     1      -0.412  10.599  19.119  0.00  0.00    +0.000 A 
ATOM     26  C   UNL     1      -0.922  10.041  17.932  0.00  0.00    +0.000 A 
ENDBRANCH  18  25
ENDBRANCH  16  18
ENDBRANCH   1  16
TORSDOF 5
ENDMDL
MODEL 8
REMARK VINA RESULT:      -7.8      3.918      8.586
REMARK  Name = 
REMARK  7 active torsions:
REMARK  status: ('A' for Active; 'I' for Inactive)
REMARK    1  A    between atoms: C_1  and  C_2
REMARK    2  A    between atoms: C_5  and  C_6
REMARK    3  A    between atoms: C_7  and  C_8
REMARK    4  A    between atoms: C_8  and  N_9
REMARK    5  A    between atoms: N_9  and  C_10
REMARK    6  A    between atoms: C_13  and  S_14
REMARK    7  A    between atoms: S_14  and  N_17
REMARK                            x       y       z     vdW  Elec       q    Type
REMARK                         _______ _______ _______ _____ _____    ______ ____
ROOT
ATOM      1  C   UNL     1       1.775   7.893  20.130  0.00  0.00    +0.000 A 
ATOM      2  C   UNL     1       0.961   8.399  21.147  0.00  0.00    +0.000 A 
ATOM      3  C   UNL     1       0.167   9.528  20.938  0.00  0.00    +0.000 A 
ATOM      4  C   UNL     1       0.228  10.199  19.714  0.00  0.00    +0.000 A 
ATOM      5  C   UNL     1       1.048   9.720  18.689  0.00  0.00    +0.000 A 
ATOM      6  C   UNL     1       1.838   8.588  18.913  0.00  0.00    +0.000 A 
ENDROOT
BRANCH   4   7
ATOM      7  S   UNL     1      -0.790  11.642  19.470  0.00  0.00    +0.000 S 
ATOM      8  O   UNL     1      -1.247  12.079  20.773  0.00  0.00    +0.000 OA
ATOM      9  O   UNL     1      -0.060  12.538  18.594  0.00  0.00    +0.000 OA
BRANCH   7  10
ATOM     10  N   UNL     1      -2.141  11.031  18.596  0.00  0.00    +0.000 NA
ATOM     11  C   UNL     1      -3.397  11.812  18.759  0.00  0.00    +0.000 C 
ATOM     12  C   UNL     1      -4.579  11.123  18.085  0.00  0.00    +0.000 C 
ATOM     13  C   UNL     1      -4.270  10.812  16.627  0.00  0.00    +0.000 C 
ATOM     14  C   UNL     1      -3.033   9.930  16.553  0.00  0.00    +0.000 C 
ATOM     15  C   UNL     1      -1.835  10.608  17.206  0.00  0.00    +0.000 C 
ENDBRANCH   7  10
ENDBRANCH   4   7
BRANCH   1  16
ATOM     16  N   UNL     1       2.607   6.775  20.304  0.00  0.00    +0.000 N 
ATOM     17  H   UNL     1       3.249   6.946  21.077  0.00  0.00    +0.000 HD
BRANCH  16  18
ATOM     18  C   UNL     1       1.916   5.496  20.499  0.00  0.00    +0.000 C 
BRANCH  18  25
ATOM     19  C   UNL     1       4.560   3.974  16.469  0.00  0.00    +0.000 C 
ATOM     20  C   UNL     1       3.709   3.631  17.654  0.00  0.00    +0.000 A 
ATOM     21  C   UNL     1       3.374   2.310  17.951  0.00  0.00    +0.000 A 
ATOM     22  C   UNL     1       2.583   2.017  19.062  0.00  0.00    +0.000 A 
ATOM     23  C   UNL     1       2.116   3.039  19.902  0.00  0.00    +0.000 A 
ATOM     24  C   UNL     1       1.260   2.673  21.087  0.00  0.00    +0.000 C 
ATOM     25  C   UNL     1       2.444   4.384  19.612  0.00  0.00    +0.000 A 
ATOM     26  C   UNL     1       3.239   4.656  18.484  0.00  0.00    +0.000 A 
ENDBRANCH  18  25
ENDBRANCH  16  18
ENDBRANCH   1  16
TORSDOF 5
ENDMDL
MODEL 9
REMARK VINA RESULT:      -7.7      4.082      8.674
REMARK  Name = 
REMARK  7 active torsions:
REMARK  status: ('A' for Active; 'I' for Inactive)
REMARK    1  A    between atoms: C_1  and  C_2
REMARK    2  A    between atoms: C_5  and  C_6
REMARK    3  A    between atoms: C_7  and  C_8
REMARK    4  A    between atoms: C_8  and  N_9
REMARK    5  A    between atoms: N_9  and  C_10
REMARK    6  A    between atoms: C_13  and  S_14
REMARK    7  A    between atoms: S_14  and  N_17
REMARK                            x       y       z     vdW  Elec       q    Type
REMARK                         _______ _______ _______ _____ _____    ______ ____
ROOT
ATOM      1  C   UNL     1       1.585   8.205  19.877  0.00  0.00    +0.000 A 
ATOM      2  C   UNL     1       0.800   8.710  20.918  0.00  0.00    +0.000 A 
ATOM      3  C   UNL     1       0.020   9.854  20.740  0.00  0.00    +0.000 A 
ATOM      4  C   UNL     1       0.067  10.540  19.525  0.00  0.00    +0.000 A 
ATOM      5  C   UNL     1       0.858  10.063  18.477  0.00  0.00    +0.000 A 
ATOM      6  C   UNL     1       1.634   8.915  18.669  0.00  0.00    +0.000 A 
ENDROOT
BRANCH   4   7
ATOM      7  S   UNL     1      -0.933  12.002  19.321  0.00  0.00    +0.000 S 
ATOM      8  O   UNL     1      -1.305  12.464  20.643  0.00  0.00    +0.000 OA
ATOM      9  O   UNL     1      -0.236  12.872  18.394  0.00  0.00    +0.000 OA
BRANCH   7  10
ATOM     10  N   UNL     1      -2.345  11.411  18.534  0.00  0.00    +0.000 NA
ATOM     11  C   UNL     1      -3.623  11.999  19.016  0.00  0.00    +0.000 C 
ATOM     12  C   UNL     1      -4.831  11.314  18.385  0.00  0.00    +0.000 C 
ATOM     13  C   UNL     1      -4.725  11.314  16.866  0.00  0.00    +0.000 C 
ATOM     14  C   UNL     1      -3.443  10.608  16.453  0.00  0.00    +0.000 C 
ATOM     15  C   UNL     1      -2.221  11.288  17.059  0.00  0.00    +0.000 C 
ENDBRANCH   7  10
ENDBRANCH   4   7
BRANCH   1  16
ATOM     16  N   UNL     1       2.402   7.072  20.019  0.00  0.00    +0.000 N 
ATOM     17  H   UNL     1       1.833   6.274  20.300  0.00  0.00    +0.000 HD
BRANCH  16  18
ATOM     18  C   UNL     1       3.211   6.723  18.846  0.00  0.00    +0.000 C 
BRANCH  18  25
ATOM     19  C   UNL     1       0.623   2.385  19.004  0.00  0.00    +0.000 C 
ATOM     20  C   UNL     1       1.747   3.193  18.429  0.00  0.00    +0.000 A 
ATOM     21  C   UNL     1       2.602   2.664  17.462  0.00  0.00    +0.000 A 
ATOM     22  C   UNL     1       3.638   3.438  16.940  0.00  0.00    +0.000 A 
ATOM     23  C   UNL     1       3.838   4.758  17.371  0.00  0.00    +0.000 A 
ATOM     24  C   UNL     1       4.975   5.552  16.781  0.00  0.00    +0.000 C 
ATOM     25  C   UNL     1       2.982   5.307  18.354  0.00  0.00    +0.000 A 
ATOM     26  C   UNL     1       1.946   4.507  18.869  0.00  0.00    +0.000 A 
ENDBRANCH  18  25
ENDBRANCH  16  18
ENDBRANCH   1  16
TORSDOF 5
ENDMDL
