MODEL 1
REMARK VINA RESULT:      -7.6      0.000      0.000
REMARK  Name = 
REMARK  8 active torsions:
REMARK  status: ('A' for Active; 'I' for Inactive)
REMARK    1  A    between atoms: C_1  and  C_2
REMARK    2  A    between atoms: C_2  and  C_3
REMARK    3  A    between atoms: C_2  and  C_4
REMARK    4  A    between atoms: C_2  and  C_5
REMARK    5  A    between atoms: N_9  and  C_10
REMARK    6  A    between atoms: C_10  and  C_11
REMARK    7  A    between atoms: C_11  and  C_12
REMARK    8  A    between atoms: C_16  and  C_17
REMARK                            x       y       z     vdW  Elec       q    Type
REMARK                         _______ _______ _______ _____ _____    ______ ____
ROOT
ATOM      1  C   UNL     1       6.689   4.132  16.670  0.00  0.00    +0.000 C 
ENDROOT
BRANCH   1   6
ATOM      2  C   UNL     1       2.829   3.507  19.391  0.00  0.00    +0.000 A 
ATOM      3  N   UNL     1       3.796   4.339  19.720  0.00  0.00    +0.000 NA
ATOM      4  N   UNL     1       4.822   4.350  18.799  0.00  0.00    +0.000 NA
ATOM      5  C   UNL     1       4.632   3.517  17.800  0.00  0.00    +0.000 A 
ATOM      6  N   UNL     1       5.454   3.353  16.736  0.00  0.00    +0.000 N 
ATOM      7  S   UNL     1       3.172   2.615  17.949  0.00  0.00    +0.000 S 
ATOM      8  H   UNL     1       5.332   2.566  16.110  0.00  0.00    +0.000 HD
BRANCH   2  10
ATOM      9  C   UNL     1       0.527   2.497  19.353  0.00  0.00    +0.000 C 
ATOM     10  C   UNL     1       1.532   3.335  20.177  0.00  0.00    +0.000 C 
ATOM     11  C   UNL     1       0.884   4.699  20.474  0.00  0.00    +0.000 C 
ATOM     12  C   UNL     1       1.791   2.608  21.511  0.00  0.00    +0.000 C 
ENDBRANCH   2  10
ENDBRANCH   1   6
BRANCH   1  13
ATOM     13  C   UNL     1       6.576   5.316  15.703  0.00  0.00    +0.000 C 
BRANCH  13  14
ATOM     14  C   UNL     1       6.857   4.944  14.260  0.00  0.00    +0.000 A 
ATOM     15  C   UNL     1       7.837   5.610  13.513  0.00  0.00    +0.000 A 
ATOM     16  C   UNL     1       8.032   5.302  12.163  0.00  0.00    +0.000 A 
ATOM     17  C   UNL     1       7.264   4.315  11.544  0.00  0.00    +0.000 A 
ATOM     18  C   UNL     1       6.306   3.613  12.281  0.00  0.00    +0.000 A 
ATOM     19  C   UNL     1       6.116   3.927  13.638  0.00  0.00    +0.000 A 
BRANCH  18  20
ATOM     20  C   UNL     1       5.444   2.549  11.688  0.00  0.00    +0.000 C 
ATOM     21  N   UNL     1       5.947   1.280  11.580  0.00  0.00    +0.000 N 
ATOM     22  O   UNL     1       4.309   2.783  11.303  0.00  0.00    +0.000 OA
ATOM     23  H   UNL     1       6.870   0.988  11.853  0.00  0.00    +0.000 HD
ATOM     24  H   UNL     1       5.337   0.589  11.162  0.00  0.00    +0.000 HD
ENDBRANCH  18  20
ENDBRANCH  13  14
ENDBRANCH   1  13
TORSDOF 5
ENDMDL
MODEL 2
REMARK VINA RESULT:      -7.5      0.886      1.299
REMARK  Name = 
REMARK  8 active torsions:
REMARK  status: ('A' for Active; 'I' for Inactive)
REMARK    1  A    between atoms: C_1  and  C_2
REMARK    2  A    between atoms: C_2  and  C_3
REMARK    3  A    between atoms: C_2  and  C_4
REMARK    4  A    between atoms: C_2  and  C_5
REMARK    5  A    between atoms: N_9  and  C_10
REMARK    6  A    between atoms: C_10  and  C_11
REMARK    7  A    between atoms: C_11  and  C_12
REMARK    8  A    between atoms: C_16  and  C_17
REMARK                            x       y       z     vdW  Elec       q    Type
REMARK                         _______ _______ _______ _____ _____    ______ ____
ROOT
ATOM      1  C   UNL     1       6.962   4.755  17.043  0.00  0.00    +0.000 C 
ENDROOT
BRANCH   1   6
ATOM      2  C   UNL     1       2.951   3.842  19.446  0.00  0.00    +0.000 A 
ATOM      3  N   UNL     1       3.004   4.731  18.474  0.00  0.00    +0.000 NA
ATOM      4  N   UNL     1       4.265   4.846  17.930  0.00  0.00    +0.000 NA
ATOM      5  C   UNL     1       5.153   4.063  18.503  0.00  0.00    +0.000 A 
ATOM      6  N   UNL     1       6.452   3.940  18.143  0.00  0.00    +0.000 N 
ATOM      7  S   UNL     1       4.494   3.147  19.804  0.00  0.00    +0.000 S 
ATOM      8  H   UNL     1       7.108   3.460  18.747  0.00  0.00    +0.000 HD
BRANCH   2  10
ATOM      9  C   UNL     1       0.897   4.713  20.605  0.00  0.00    +0.000 C 
ATOM     10  C   UNL     1       1.677   3.445  20.186  0.00  0.00    +0.000 C 
ATOM     11  C   UNL     1       2.006   2.645  21.458  0.00  0.00    +0.000 C 
ATOM     12  C   UNL     1       0.763   2.590  19.285  0.00  0.00    +0.000 C 
ENDBRANCH   2  10
ENDBRANCH   1   6
BRANCH   1  13
ATOM     13  C   UNL     1       5.909   4.979  15.951  0.00  0.00    +0.000 C 
BRANCH  13  14
ATOM     14  C   UNL     1       6.423   4.697  14.553  0.00  0.00    +0.000 A 
ATOM     15  C   UNL     1       7.514   5.399  14.022  0.00  0.00    +0.000 A 
ATOM     16  C   UNL     1       7.928   5.176  12.705  0.00  0.00    +0.000 A 
ATOM     17  C   UNL     1       7.271   4.239  11.905  0.00  0.00    +0.000 A 
ATOM     18  C   UNL     1       6.204   3.503  12.427  0.00  0.00    +0.000 A 
ATOM     19  C   UNL     1       5.794   3.731  13.752  0.00  0.00    +0.000 A 
BRANCH  18  20
ATOM     20  C   UNL     1       5.451   2.489  11.633  0.00  0.00    +0.000 C 
ATOM     21  N   UNL     1       6.032   1.272  11.400  0.00  0.00    +0.000 N 
ATOM     22  O   UNL     1       4.336   2.719  11.191  0.00  0.00    +0.000 OA
ATOM     23  H   UNL     1       6.948   0.990  11.705  0.00  0.00    +0.000 HD
ATOM     24  H   UNL     1       5.495   0.615  10.847  0.00  0.00    +0.000 HD
ENDBRANCH  18  20
ENDBRANCH  13  14
ENDBRANCH   1  13
TORSDOF 5
ENDMDL
MODEL 3
REMARK VINA RESULT:      -7.5      1.072      1.072
REMARK  Name = 
REMARK  8 active torsions:
REMARK  status: ('A' for Active; 'I' for Inactive)
REMARK    1  A    between atoms: C_1  and  C_2
REMARK    2  A    between atoms: C_2  and  C_3
REMARK    3  A    between atoms: C_2  and  C_4
REMARK    4  A    between atoms: C_2  and  C_5
REMARK    5  A    between atoms: N_9  and  C_10
REMARK    6  A    between atoms: C_10  and  C_11
REMARK    7  A    between atoms: C_11  and  C_12
REMARK    8  A    between atoms: C_16  and  C_17
REMARK                            x       y       z     vdW  Elec       q    Type
REMARK                         _______ _______ _______ _____ _____    ______ ____
ROOT
ATOM      1  C   UNL     1       6.823   5.043  16.929  0.00  0.00    +0.000 C 
ENDROOT
BRANCH   1   6
ATOM      2  C   UNL     1       2.968   3.881  19.475  0.00  0.00    +0.000 A 
ATOM      3  N   UNL     1       3.043   4.997  18.778  0.00  0.00    +0.000 NA
ATOM      4  N   UNL     1       4.253   5.139  18.133  0.00  0.00    +0.000 NA
ATOM      5  C   UNL     1       5.084   4.146  18.362  0.00  0.00    +0.000 A 
ATOM      6  N   UNL     1       6.319   4.005  17.825  0.00  0.00    +0.000 N 
ATOM      7  S   UNL     1       4.438   2.969  19.441  0.00  0.00    +0.000 S 
ATOM      8  H   UNL     1       6.962   3.315  18.193  0.00  0.00    +0.000 HD
BRANCH   2  10
ATOM      9  C   UNL     1       0.950   2.385  19.384  0.00  0.00    +0.000 C 
ATOM     10  C   UNL     1       1.728   3.417  20.233  0.00  0.00    +0.000 C 
ATOM     11  C   UNL     1       0.787   4.599  20.525  0.00  0.00    +0.000 C 
ATOM     12  C   UNL     1       2.117   2.752  21.568  0.00  0.00    +0.000 C 
ENDBRANCH   2  10
ENDBRANCH   1   6
BRANCH   1  13
ATOM     13  C   UNL     1       5.855   5.336  15.777  0.00  0.00    +0.000 C 
BRANCH  13  14
ATOM     14  C   UNL     1       6.377   4.895  14.425  0.00  0.00    +0.000 A 
ATOM     15  C   UNL     1       7.565   5.416  13.896  0.00  0.00    +0.000 A 
ATOM     16  C   UNL     1       7.993   5.050  12.616  0.00  0.00    +0.000 A 
ATOM     17  C   UNL     1       7.251   4.148  11.852  0.00  0.00    +0.000 A 
ATOM     18  C   UNL     1       6.082   3.589  12.375  0.00  0.00    +0.000 A 
ATOM     19  C   UNL     1       5.658   3.960  13.663  0.00  0.00    +0.000 A 
BRANCH  18  20
ATOM     20  C   UNL     1       5.234   2.623  11.618  0.00  0.00    +0.000 C 
ATOM     21  N   UNL     1       3.973   3.004  11.248  0.00  0.00    +0.000 N 
ATOM     22  O   UNL     1       5.640   1.509  11.320  0.00  0.00    +0.000 OA
ATOM     23  H   UNL     1       3.541   3.888  11.457  0.00  0.00    +0.000 HD
ATOM     24  H   UNL     1       3.424   2.316  10.746  0.00  0.00    +0.000 HD
ENDBRANCH  18  20
ENDBRANCH  13  14
ENDBRANCH   1  13
TORSDOF 5
ENDMDL
MODEL 4
REMARK VINA RESULT:      -7.3      6.566      8.007
REMARK  Name = 
REMARK  8 active torsions:
REMARK  status: ('A' for Active; 'I' for Inactive)
REMARK    1  A    between atoms: C_1  and  C_2
REMARK    2  A    between atoms: C_2  and  C_3
REMARK    3  A    between atoms: C_2  and  C_4
REMARK    4  A    between atoms: C_2  and  C_5
REMARK    5  A    between atoms: N_9  and  C_10
REMARK    6  A    between atoms: C_10  and  C_11
REMARK    7  A    between atoms: C_11  and  C_12
REMARK    8  A    between atoms: C_16  and  C_17
REMARK                            x       y       z     vdW  Elec       q    Type
REMARK                         _______ _______ _______ _____ _____    ______ ____
ROOT
ATOM      1  C   UNL     1       7.979   8.080  17.895  0.00  0.00    +0.000 C 
ENDROOT
BRANCH   1   6
ATOM      2  C   UNL     1       4.724   4.642  18.423  0.00  0.00    +0.000 A 
ATOM      3  N   UNL     1       5.752   4.771  19.237  0.00  0.00    +0.000 NA
ATOM      4  N   UNL     1       6.575   5.821  18.889  0.00  0.00    +0.000 NA
ATOM      5  C   UNL     1       6.176   6.460  17.812  0.00  0.00    +0.000 A 
ATOM      6  N   UNL     1       6.769   7.551  17.272  0.00  0.00    +0.000 N 
ATOM      7  S   UNL     1       4.759   5.774  17.114  0.00  0.00    +0.000 S 
ATOM      8  H   UNL     1       6.511   7.869  16.345  0.00  0.00    +0.000 HD
BRANCH   2  10
ATOM      9  C   UNL     1       3.876   2.387  17.704  0.00  0.00    +0.000 C 
ATOM     10  C   UNL     1       3.605   3.620  18.598  0.00  0.00    +0.000 C 
ATOM     11  C   UNL     1       2.246   4.215  18.189  0.00  0.00    +0.000 C 
ATOM     12  C   UNL     1       3.519   3.146  20.062  0.00  0.00    +0.000 C 
ENDBRANCH   2  10
ENDBRANCH   1   6
BRANCH   1  13
ATOM     13  C   UNL     1       8.317   9.492  17.399  0.00  0.00    +0.000 C 
BRANCH  13  14
ATOM     14  C   UNL     1       9.190  10.274  18.360  0.00  0.00    +0.000 A 
ATOM     15  C   UNL     1       9.056  10.132  19.748  0.00  0.00    +0.000 A 
ATOM     16  C   UNL     1       9.821  10.915  20.618  0.00  0.00    +0.000 A 
ATOM     17  C   UNL     1      10.741  11.838  20.118  0.00  0.00    +0.000 A 
ATOM     18  C   UNL     1      10.916  11.968  18.738  0.00  0.00    +0.000 A 
ATOM     19  C   UNL     1      10.146  11.177  17.868  0.00  0.00    +0.000 A 
BRANCH  18  20
ATOM     20  C   UNL     1      11.876  12.934  18.129  0.00  0.00    +0.000 C 
ATOM     21  N   UNL     1      12.307  12.715  16.848  0.00  0.00    +0.000 N 
ATOM     22  O   UNL     1      12.280  13.910  18.742  0.00  0.00    +0.000 OA
ATOM     23  H   UNL     1      12.048  11.936  16.266  0.00  0.00    +0.000 HD
ATOM     24  H   UNL     1      12.967  13.386  16.474  0.00  0.00    +0.000 HD
ENDBRANCH  18  20
ENDBRANCH  13  14
ENDBRANCH   1  13
TORSDOF 5
ENDMDL
MODEL 5
REMARK VINA RESULT:      -7.2      1.420      1.536
REMARK  Name = 
REMARK  8 active torsions:
REMARK  status: ('A' for Active; 'I' for Inactive)
REMARK    1  A    between atoms: C_1  and  C_2
REMARK    2  A    between atoms: C_2  and  C_3
REMARK    3  A    between atoms: C_2  and  C_4
REMARK    4  A    between atoms: C_2  and  C_5
REMARK    5  A    between atoms: N_9  and  C_10
REMARK    6  A    between atoms: C_10  and  C_11
REMARK    7  A    between atoms: C_11  and  C_12
REMARK    8  A    between atoms: C_16  and  C_17
REMARK                            x       y       z     vdW  Elec       q    Type
REMARK                         _______ _______ _______ _____ _____    ______ ____
ROOT
ATOM      1  C   UNL     1       5.776   6.200  16.134  0.00  0.00    +0.000 C 
ENDROOT
BRANCH   1   6
ATOM      2  C   UNL     1       2.713   3.974  19.026  0.00  0.00    +0.000 A 
ATOM      3  N   UNL     1       2.801   3.694  17.741  0.00  0.00    +0.000 NA
ATOM      4  N   UNL     1       3.739   4.469  17.092  0.00  0.00    +0.000 NA
ATOM      5  C   UNL     1       4.335   5.334  17.882  0.00  0.00    +0.000 A 
ATOM      6  N   UNL     1       5.323   6.187  17.523  0.00  0.00    +0.000 N 
ATOM      7  S   UNL     1       3.740   5.284  19.498  0.00  0.00    +0.000 S 
ATOM      8  H   UNL     1       5.597   6.943  18.139  0.00  0.00    +0.000 HD
BRANCH   2  10
ATOM      9  C   UNL     1       1.163   2.017  19.317  0.00  0.00    +0.000 C 
ATOM     10  C   UNL     1       1.818   3.232  20.013  0.00  0.00    +0.000 C 
ATOM     11  C   UNL     1       0.694   4.147  20.531  0.00  0.00    +0.000 C 
ATOM     12  C   UNL     1       2.634   2.719  21.216  0.00  0.00    +0.000 C 
ENDBRANCH   2  10
ENDBRANCH   1   6
BRANCH   1  13
ATOM     13  C   UNL     1       6.742   5.048  15.829  0.00  0.00    +0.000 C 
BRANCH  13  14
ATOM     14  C   UNL     1       6.932   4.798  14.346  0.00  0.00    +0.000 A 
ATOM     15  C   UNL     1       7.881   5.511  13.602  0.00  0.00    +0.000 A 
ATOM     16  C   UNL     1       7.992   5.318  12.222  0.00  0.00    +0.000 A 
ATOM     17  C   UNL     1       7.168   4.401  11.567  0.00  0.00    +0.000 A 
ATOM     18  C   UNL     1       6.240   3.654  12.296  0.00  0.00    +0.000 A 
ATOM     19  C   UNL     1       6.135   3.851  13.684  0.00  0.00    +0.000 A 
BRANCH  18  20
ATOM     20  C   UNL     1       5.324   2.659  11.666  0.00  0.00    +0.000 C 
ATOM     21  N   UNL     1       4.059   3.054  11.323  0.00  0.00    +0.000 N 
ATOM     22  O   UNL     1       5.676   1.509  11.450  0.00  0.00    +0.000 OA
ATOM     23  H   UNL     1       3.669   3.969  11.472  0.00  0.00    +0.000 HD
ATOM     24  H   UNL     1       3.463   2.348  10.910  0.00  0.00    +0.000 HD
ENDBRANCH  18  20
ENDBRANCH  13  14
ENDBRANCH   1  13
TORSDOF 5
ENDMDL
MODEL 6
REMARK VINA RESULT:      -7.2      1.346      1.749
REMARK  Name = 
REMARK  8 active torsions:
REMARK  status: ('A' for Active; 'I' for Inactive)
REMARK    1  A    between atoms: C_1  and  C_2
REMARK    2  A    between atoms: C_2  and  C_3
REMARK    3  A    between atoms: C_2  and  C_4
REMARK    4  A    between atoms: C_2  and  C_5
REMARK    5  A    between atoms: N_9  and  C_10
REMARK    6  A    between atoms: C_10  and  C_11
REMARK    7  A    between atoms: C_11  and  C_12
REMARK    8  A    between atoms: C_16  and  C_17
REMARK                            x       y       z     vdW  Elec       q    Type
REMARK                         _______ _______ _______ _____ _____    ______ ____
ROOT
ATOM      1  C   UNL     1       5.541   6.495  15.978  0.00  0.00    +0.000 C 
ENDROOT
BRANCH   1   6
ATOM      2  C   UNL     1       2.517   4.055  18.734  0.00  0.00    +0.000 A 
ATOM      3  N   UNL     1       2.919   3.609  17.561  0.00  0.00    +0.000 NA
ATOM      4  N   UNL     1       3.777   4.482  16.928  0.00  0.00    +0.000 NA
ATOM      5  C   UNL     1       4.001   5.581  17.613  0.00  0.00    +0.000 A 
ATOM      6  N   UNL     1       4.832   6.587  17.252  0.00  0.00    +0.000 N 
ATOM      7  S   UNL     1       3.119   5.638  19.092  0.00  0.00    +0.000 S 
ATOM      8  H   UNL     1       4.807   7.474  17.740  0.00  0.00    +0.000 HD
BRANCH   2  10
ATOM      9  C   UNL     1       2.495   2.459  20.676  0.00  0.00    +0.000 C 
ATOM     10  C   UNL     1       1.624   3.277  19.695  0.00  0.00    +0.000 C 
ATOM     11  C   UNL     1       0.718   2.295  18.932  0.00  0.00    +0.000 C 
ATOM     12  C   UNL     1       0.737   4.233  20.517  0.00  0.00    +0.000 C 
ENDBRANCH   2  10
ENDBRANCH   1   6
BRANCH   1  13
ATOM     13  C   UNL     1       6.314   5.178  15.839  0.00  0.00    +0.000 C 
BRANCH  13  14
ATOM     14  C   UNL     1       6.681   4.844  14.406  0.00  0.00    +0.000 A 
ATOM     15  C   UNL     1       7.700   5.532  13.735  0.00  0.00    +0.000 A 
ATOM     16  C   UNL     1       7.976   5.260  12.392  0.00  0.00    +0.000 A 
ATOM     17  C   UNL     1       7.249   4.287  11.703  0.00  0.00    +0.000 A 
ATOM     18  C   UNL     1       6.253   3.564  12.364  0.00  0.00    +0.000 A 
ATOM     19  C   UNL     1       5.982   3.841  13.715  0.00  0.00    +0.000 A 
BRANCH  18  20
ATOM     20  C   UNL     1       5.433   2.512  11.695  0.00  0.00    +0.000 C 
ATOM     21  N   UNL     1       5.987   1.278  11.487  0.00  0.00    +0.000 N 
ATOM     22  O   UNL     1       4.286   2.727  11.333  0.00  0.00    +0.000 OA
ATOM     23  H   UNL     1       6.924   1.006  11.731  0.00  0.00    +0.000 HD
ATOM     24  H   UNL     1       5.404   0.596  11.019  0.00  0.00    +0.000 HD
ENDBRANCH  18  20
ENDBRANCH  13  14
ENDBRANCH   1  13
TORSDOF 5
ENDMDL
MODEL 7
REMARK VINA RESULT:      -7.1      6.251      9.145
REMARK  Name = 
REMARK  8 active torsions:
REMARK  status: ('A' for Active; 'I' for Inactive)
REMARK    1  A    between atoms: C_1  and  C_2
REMARK    2  A    between atoms: C_2  and  C_3
REMARK    3  A    between atoms: C_2  and  C_4
REMARK    4  A    between atoms: C_2  and  C_5
REMARK    5  A    between atoms: N_9  and  C_10
REMARK    6  A    between atoms: C_10  and  C_11
REMARK    7  A    between atoms: C_11  and  C_12
REMARK    8  A    between atoms: C_16  and  C_17
REMARK                            x       y       z     vdW  Elec       q    Type
REMARK                         _______ _______ _______ _____ _____    ______ ____
ROOT
ATOM      1  C   UNL     1       1.335   7.942  20.988  0.00  0.00    +0.000 C 
ENDROOT
BRANCH   1   6
ATOM      2  C   UNL     1      -1.353  11.615  22.393  0.00  0.00    +0.000 A 
ATOM      3  N   UNL     1      -0.947  10.679  23.227  0.00  0.00    +0.000 NA
ATOM      4  N   UNL     1      -0.197   9.704  22.604  0.00  0.00    +0.000 NA
ATOM      5  C   UNL     1      -0.059   9.900  21.312  0.00  0.00    +0.000 A 
ATOM      6  N   UNL     1       0.661   9.127  20.464  0.00  0.00    +0.000 N 
ATOM      7  S   UNL     1      -0.895  11.299  20.754  0.00  0.00    +0.000 S 
ATOM      8  H   UNL     1       0.565   9.238  19.462  0.00  0.00    +0.000 HD
BRANCH   2  10
ATOM      9  C   UNL     1      -2.702  13.561  21.548  0.00  0.00    +0.000 C 
ATOM     10  C   UNL     1      -2.137  12.858  22.804  0.00  0.00    +0.000 C 
ATOM     11  C   UNL     1      -1.232  13.859  23.544  0.00  0.00    +0.000 C 
ATOM     12  C   UNL     1      -3.317  12.484  23.722  0.00  0.00    +0.000 C 
ENDBRANCH   2  10
ENDBRANCH   1   6
BRANCH   1  13
ATOM     13  C   UNL     1       2.174   7.232  19.918  0.00  0.00    +0.000 C 
BRANCH  13  14
ATOM     14  C   UNL     1       2.177   5.723  20.060  0.00  0.00    +0.000 A 
ATOM     15  C   UNL     1       1.039   5.028  20.491  0.00  0.00    +0.000 A 
ATOM     16  C   UNL     1       1.083   3.644  20.684  0.00  0.00    +0.000 A 
ATOM     17  C   UNL     1       2.257   2.931  20.436  0.00  0.00    +0.000 A 
ATOM     18  C   UNL     1       3.392   3.600  19.971  0.00  0.00    +0.000 A 
ATOM     19  C   UNL     1       3.341   4.991  19.777  0.00  0.00    +0.000 A 
BRANCH  18  20
ATOM     20  C   UNL     1       4.684   2.907  19.688  0.00  0.00    +0.000 C 
ATOM     21  N   UNL     1       5.520   3.435  18.742  0.00  0.00    +0.000 N 
ATOM     22  O   UNL     1       5.009   1.890  20.280  0.00  0.00    +0.000 OA
ATOM     23  H   UNL     1       5.338   4.257  18.190  0.00  0.00    +0.000 HD
ATOM     24  H   UNL     1       6.380   2.931  18.570  0.00  0.00    +0.000 HD
ENDBRANCH  18  20
ENDBRANCH  13  14
ENDBRANCH   1  13
TORSDOF 5
ENDMDL
MODEL 8
REMARK VINA RESULT:      -7.1      6.516      8.077
REMARK  Name = 
REMARK  8 active torsions:
REMARK  status: ('A' for Active; 'I' for Inactive)
REMARK    1  A    between atoms: C_1  and  C_2
REMARK    2  A    between atoms: C_2  and  C_3
REMARK    3  A    between atoms: C_2  and  C_4
REMARK    4  A    between atoms: C_2  and  C_5
REMARK    5  A    between atoms: N_9  and  C_10
REMARK    6  A    between atoms: C_10  and  C_11
REMARK    7  A    between atoms: C_11  and  C_12
REMARK    8  A    between atoms: C_16  and  C_17
REMARK                            x       y       z     vdW  Elec       q    Type
REMARK                         _______ _______ _______ _____ _____    ______ ____
ROOT
ATOM      1  C   UNL     1       8.223   8.143  17.855  0.00  0.00    +0.000 C 
ENDROOT
BRANCH   1   6
ATOM      2  C   UNL     1       5.154   4.582  18.625  0.00  0.00    +0.000 A 
ATOM      3  N   UNL     1       6.016   4.980  19.539  0.00  0.00    +0.000 NA
ATOM      4  N   UNL     1       6.817   6.011  19.097  0.00  0.00    +0.000 NA
ATOM      5  C   UNL     1       6.570   6.368  17.857  0.00  0.00    +0.000 A 
ATOM      6  N   UNL     1       7.175   7.377  17.186  0.00  0.00    +0.000 N 
ATOM      7  S   UNL     1       5.341   5.413  17.119  0.00  0.00    +0.000 S 
ATOM      8  H   UNL     1       7.061   7.467  16.183  0.00  0.00    +0.000 HD
BRANCH   2  10
ATOM      9  C   UNL     1       2.783   4.167  19.350  0.00  0.00    +0.000 C 
ATOM     10  C   UNL     1       4.090   3.511  18.848  0.00  0.00    +0.000 C 
ATOM     11  C   UNL     1       4.549   2.492  19.906  0.00  0.00    +0.000 C 
ATOM     12  C   UNL     1       3.784   2.761  17.537  0.00  0.00    +0.000 C 
ENDBRANCH   2  10
ENDBRANCH   1   6
BRANCH   1  13
ATOM     13  C   UNL     1       7.956   9.652  17.811  0.00  0.00    +0.000 C 
BRANCH  13  14
ATOM     14  C   UNL     1       9.034  10.474  18.490  0.00  0.00    +0.000 A 
ATOM     15  C   UNL     1       9.317  10.321  19.854  0.00  0.00    +0.000 A 
ATOM     16  C   UNL     1      10.265  11.138  20.478  0.00  0.00    +0.000 A 
ATOM     17  C   UNL     1      10.954  12.108  19.748  0.00  0.00    +0.000 A 
ATOM     18  C   UNL     1      10.713  12.252  18.379  0.00  0.00    +0.000 A 
ATOM     19  C   UNL     1       9.760  11.426  17.758  0.00  0.00    +0.000 A 
BRANCH  18  20
ATOM     20  C   UNL     1      11.406  13.268  17.535  0.00  0.00    +0.000 C 
ATOM     21  N   UNL     1      10.988  14.570  17.595  0.00  0.00    +0.000 N 
ATOM     22  O   UNL     1      12.333  12.965  16.799  0.00  0.00    +0.000 OA
ATOM     23  H   UNL     1      10.227  14.917  18.154  0.00  0.00    +0.000 HD
ATOM     24  H   UNL     1      11.475  15.227  16.998  0.00  0.00    +0.000 HD
ENDBRANCH  18  20
ENDBRANCH  13  14
ENDBRANCH   1  13
TORSDOF 5
ENDMDL
MODEL 9
REMARK VINA RESULT:      -7.0      4.290      5.952
REMARK  Name = 
REMARK  8 active torsions:
REMARK  status: ('A' for Active; 'I' for Inactive)
REMARK    1  A    between atoms: C_1  and  C_2
REMARK    2  A    between atoms: C_2  and  C_3
REMARK    3  A    between atoms: C_2  and  C_4
REMARK    4  A    between atoms: C_2  and  C_5
REMARK    5  A    between atoms: N_9  and  C_10
REMARK    6  A    between atoms: C_10  and  C_11
REMARK    7  A    between atoms: C_11  and  C_12
REMARK    8  A    between atoms: C_16  and  C_17
REMARK                            x       y       z     vdW  Elec       q    Type
REMARK                         _______ _______ _______ _____ _____    ______ ____
ROOT
ATOM      1  C   UNL     1       3.084   5.308  19.742  0.00  0.00    +0.000 C 
ENDROOT
BRANCH   1   6
ATOM      2  C   UNL     1       1.149   9.655  19.497  0.00  0.00    +0.000 A 
ATOM      3  N   UNL     1       1.100   8.921  20.591  0.00  0.00    +0.000 NA
ATOM      4  N   UNL     1       1.707   7.693  20.434  0.00  0.00    +0.000 NA
ATOM      5  C   UNL     1       2.189   7.503  19.226  0.00  0.00    +0.000 A 
ATOM      6  N   UNL     1       2.870   6.410  18.807  0.00  0.00    +0.000 N 
ATOM      7  S   UNL     1       1.885   8.827  18.167  0.00  0.00    +0.000 S 
ATOM      8  H   UNL     1       3.044   6.261  17.820  0.00  0.00    +0.000 HD
BRANCH   2  10
ATOM      9  C   UNL     1       1.658  11.965  18.646  0.00  0.00    +0.000 C 
ATOM     10  C   UNL     1       0.628  11.084  19.391  0.00  0.00    +0.000 C 
ATOM     11  C   UNL     1       0.402  11.693  20.786  0.00  0.00    +0.000 C 
ATOM     12  C   UNL     1      -0.700  11.128  18.610  0.00  0.00    +0.000 C 
ENDBRANCH   2  10
ENDBRANCH   1   6
BRANCH   1  13
ATOM     13  C   UNL     1       3.910   4.174  19.123  0.00  0.00    +0.000 C 
BRANCH  13  14
ATOM     14  C   UNL     1       5.232   4.639  18.544  0.00  0.00    +0.000 A 
ATOM     15  C   UNL     1       6.175   5.314  19.331  0.00  0.00    +0.000 A 
ATOM     16  C   UNL     1       7.357   5.798  18.762  0.00  0.00    +0.000 A 
ATOM     17  C   UNL     1       7.622   5.604  17.406  0.00  0.00    +0.000 A 
ATOM     18  C   UNL     1       6.711   4.902  16.612  0.00  0.00    +0.000 A 
ATOM     19  C   UNL     1       5.526   4.416  17.190  0.00  0.00    +0.000 A 
BRANCH  18  20
ATOM     20  C   UNL     1       6.923   4.659  15.155  0.00  0.00    +0.000 C 
ATOM     21  N   UNL     1       6.274   3.609  14.562  0.00  0.00    +0.000 N 
ATOM     22  O   UNL     1       7.654   5.372  14.485  0.00  0.00    +0.000 OA
ATOM     23  H   UNL     1       5.665   2.957  15.027  0.00  0.00    +0.000 HD
ATOM     24  H   UNL     1       6.453   3.469  13.576  0.00  0.00    +0.000 HD
ENDBRANCH  18  20
ENDBRANCH  13  14
ENDBRANCH   1  13
TORSDOF 5
ENDMDL
