MODEL 1
REMARK VINA RESULT:      -8.2      0.000      0.000
REMARK  Name = 
REMARK  7 active torsions:
REMARK  status: ('A' for Active; 'I' for Inactive)
REMARK    1  A    between atoms: C_1  and  C_2
REMARK    2  A    between atoms: C_4  and  O_5
REMARK    3  A    between atoms: O_5  and  C_6
REMARK    4  A    between atoms: C_15  and  N_16
REMARK    5  A    between atoms: C_18  and  C_19
REMARK    6  A    between atoms: C_22  and  C_23
REMARK    7  A    between atoms: C_23  and  O_25
REMARK                            x       y       z     vdW  Elec       q    Type
REMARK                         _______ _______ _______ _____ _____    ______ ____
ROOT
ATOM      1  C   UNL     1       2.032   9.371  18.110  0.00  0.00    +0.000 C 
ATOM      2  C   UNL     1       2.100   8.050  18.826  0.00  0.00    +0.000 A 
ATOM      3  C   UNL     1       2.640   6.956  18.129  0.00  0.00    +0.000 A 
ATOM      4  C   UNL     1       2.757   5.731  18.766  0.00  0.00    +0.000 A 
ATOM      5  N   UNL     1       2.411   5.530  20.053  0.00  0.00    +0.000 NA
ATOM      6  C   UNL     1       1.866   6.576  20.707  0.00  0.00    +0.000 A 
ATOM      7  C   UNL     1       1.677   7.843  20.154  0.00  0.00    +0.000 A 
ENDROOT
BRANCH   7   8
ATOM      8  N   UNL     1       1.078   8.855  20.946  0.00  0.00    +0.000 N 
ATOM      9  C   UNL     1      -0.027   9.621  20.655  0.00  0.00    +0.000 A 
ATOM     10  C   UNL     1      -0.197  10.437  21.748  0.00  0.00    +0.000 A 
ATOM     11  N   UNL     1       0.787  10.179  22.653  0.00  0.00    +0.000 NA
ATOM     12  N   UNL     1       1.555   9.222  22.157  0.00  0.00    +0.000 NA
BRANCH  10  13
ATOM     13  C   UNL     1      -1.256  11.403  21.950  0.00  0.00    +0.000 A 
ATOM     14  C   UNL     1      -1.727  12.202  20.900  0.00  0.00    +0.000 A 
ATOM     15  C   UNL     1      -2.780  13.088  21.106  0.00  0.00    +0.000 A 
ATOM     16  C   UNL     1      -3.375  13.203  22.366  0.00  0.00    +0.000 A 
ATOM     17  C   UNL     1      -2.908  12.413  23.424  0.00  0.00    +0.000 A 
ATOM     18  C   UNL     1      -1.850  11.526  23.215  0.00  0.00    +0.000 A 
BRANCH  16  19
ATOM     19  C   UNL     1      -4.531  14.127  22.492  0.00  0.00    +0.000 C 
ATOM     20  O   UNL     1      -5.079  14.617  21.519  0.00  0.00    +0.000 OA
BRANCH  19  21
ATOM     21  O   UNL     1      -4.895  14.408  23.759  0.00  0.00    +0.000 OA
ATOM     22  H   UNL     1      -5.821  14.213  23.989  0.00  0.00    +0.000 HD
ENDBRANCH  19  21
ENDBRANCH  16  19
ENDBRANCH  10  13
ENDBRANCH   7   8
BRANCH   4  23
ATOM     23  O   UNL     1       3.305   4.693  18.028  0.00  0.00    +0.000 OA
BRANCH  23  24
ATOM     24  C   UNL     1       4.654   4.720  17.753  0.00  0.00    +0.000 A 
ATOM     25  C   UNL     1       5.642   5.044  18.691  0.00  0.00    +0.000 A 
ATOM     26  C   UNL     1       6.991   5.028  18.333  0.00  0.00    +0.000 A 
ATOM     27  C   UNL     1       7.360   4.649  17.046  0.00  0.00    +0.000 A 
ATOM     28  C   UNL     1       6.377   4.286  16.130  0.00  0.00    +0.000 A 
ATOM     29  F   UNL     1       6.737   3.900  14.899  0.00  0.00    +0.000 F 
ATOM     30  C   UNL     1       5.028   4.314  16.471  0.00  0.00    +0.000 A 
ENDBRANCH  23  24
ENDBRANCH   4  23
TORSDOF 6
ENDMDL
MODEL 2
REMARK VINA RESULT:      -8.2      2.504      3.982
REMARK  Name = 
REMARK  7 active torsions:
REMARK  status: ('A' for Active; 'I' for Inactive)
REMARK    1  A    between atoms: C_1  and  C_2
REMARK    2  A    between atoms: C_4  and  O_5
REMARK    3  A    between atoms: O_5  and  C_6
REMARK    4  A    between atoms: C_15  and  N_16
REMARK    5  A    between atoms: C_18  and  C_19
REMARK    6  A    between atoms: C_22  and  C_23
REMARK    7  A    between atoms: C_23  and  O_25
REMARK                            x       y       z     vdW  Elec       q    Type
REMARK                         _______ _______ _______ _____ _____    ______ ____
ROOT
ATOM      1  C   UNL     1       1.872   4.297  17.724  0.00  0.00    +0.000 C 
ATOM      2  C   UNL     1       3.252   4.867  17.536  0.00  0.00    +0.000 A 
ATOM      3  C   UNL     1       4.189   4.091  16.835  0.00  0.00    +0.000 A 
ATOM      4  C   UNL     1       5.459   4.597  16.605  0.00  0.00    +0.000 A 
ATOM      5  N   UNL     1       5.845   5.830  16.990  0.00  0.00    +0.000 NA
ATOM      6  C   UNL     1       4.950   6.557  17.689  0.00  0.00    +0.000 A 
ATOM      7  C   UNL     1       3.656   6.134  17.999  0.00  0.00    +0.000 A 
ENDROOT
BRANCH   7   8
ATOM      8  N   UNL     1       2.817   6.992  18.754  0.00  0.00    +0.000 N 
ATOM      9  C   UNL     1       2.199   8.152  18.347  0.00  0.00    +0.000 A 
ATOM     10  C   UNL     1       1.499   8.590  19.446  0.00  0.00    +0.000 A 
ATOM     11  N   UNL     1       1.711   7.730  20.480  0.00  0.00    +0.000 NA
ATOM     12  N   UNL     1       2.511   6.768  20.052  0.00  0.00    +0.000 NA
BRANCH  10  13
ATOM     13  C   UNL     1       0.644   9.755  19.518  0.00  0.00    +0.000 A 
ATOM     14  C   UNL     1      -0.209  10.103  18.462  0.00  0.00    +0.000 A 
ATOM     15  C   UNL     1      -1.059  11.200  18.573  0.00  0.00    +0.000 A 
ATOM     16  C   UNL     1      -1.067  11.976  19.737  0.00  0.00    +0.000 A 
ATOM     17  C   UNL     1      -0.216  11.640  20.796  0.00  0.00    +0.000 A 
ATOM     18  C   UNL     1       0.638  10.541  20.681  0.00  0.00    +0.000 A 
BRANCH  16  19
ATOM     19  C   UNL     1      -2.044  13.093  19.803  0.00  0.00    +0.000 C 
ATOM     20  O   UNL     1      -1.777  14.160  20.328  0.00  0.00    +0.000 OA
BRANCH  19  21
ATOM     21  O   UNL     1      -3.254  12.817  19.275  0.00  0.00    +0.000 OA
ATOM     22  H   UNL     1      -3.848  13.578  19.154  0.00  0.00    +0.000 HD
ENDBRANCH  19  21
ENDBRANCH  16  19
ENDBRANCH  10  13
ENDBRANCH   7   8
BRANCH   4  23
ATOM     23  O   UNL     1       6.336   3.787  15.901  0.00  0.00    +0.000 OA
BRANCH  23  24
ATOM     24  C   UNL     1       6.556   4.055  14.568  0.00  0.00    +0.000 A 
ATOM     25  C   UNL     1       7.496   4.979  14.096  0.00  0.00    +0.000 A 
ATOM     26  C   UNL     1       7.668   5.176  12.725  0.00  0.00    +0.000 A 
ATOM     27  C   UNL     1       6.929   4.421  11.820  0.00  0.00    +0.000 A 
ATOM     28  C   UNL     1       6.027   3.473  12.294  0.00  0.00    +0.000 A 
ATOM     29  F   UNL     1       5.334   2.732  11.420  0.00  0.00    +0.000 F 
ATOM     30  C   UNL     1       5.835   3.280  13.659  0.00  0.00    +0.000 A 
ENDBRANCH  23  24
ENDBRANCH   4  23
TORSDOF 6
ENDMDL
MODEL 3
REMARK VINA RESULT:      -8.2      3.810     10.802
REMARK  Name = 
REMARK  7 active torsions:
REMARK  status: ('A' for Active; 'I' for Inactive)
REMARK    1  A    between atoms: C_1  and  C_2
REMARK    2  A    between atoms: C_4  and  O_5
REMARK    3  A    between atoms: O_5  and  C_6
REMARK    4  A    between atoms: C_15  and  N_16
REMARK    5  A    between atoms: C_18  and  C_19
REMARK    6  A    between atoms: C_22  and  C_23
REMARK    7  A    between atoms: C_23  and  O_25
REMARK                            x       y       z     vdW  Elec       q    Type
REMARK                         _______ _______ _______ _____ _____    ______ ____
ROOT
ATOM      1  C   UNL     1       0.226  10.331  18.477  0.00  0.00    +0.000 C 
ATOM      2  C   UNL     1       0.280  10.340  19.980  0.00  0.00    +0.000 A 
ATOM      3  C   UNL     1      -0.293  11.434  20.649  0.00  0.00    +0.000 A 
ATOM      4  C   UNL     1      -0.299  11.461  22.034  0.00  0.00    +0.000 A 
ATOM      5  N   UNL     1       0.189  10.462  22.796  0.00  0.00    +0.000 NA
ATOM      6  C   UNL     1       0.765   9.428  22.148  0.00  0.00    +0.000 A 
ATOM      7  C   UNL     1       0.849   9.314  20.760  0.00  0.00    +0.000 A 
ENDROOT
BRANCH   7   8
ATOM      8  N   UNL     1       1.494   8.180  20.204  0.00  0.00    +0.000 N 
ATOM      9  C   UNL     1       2.247   8.108  19.055  0.00  0.00    +0.000 A 
ATOM     10  C   UNL     1       2.650   6.796  18.971  0.00  0.00    +0.000 A 
ATOM     11  N   UNL     1       2.135   6.105  20.025  0.00  0.00    +0.000 NA
ATOM     12  N   UNL     1       1.436   6.951  20.764  0.00  0.00    +0.000 NA
BRANCH  10  13
ATOM     13  C   UNL     1       3.504   6.217  17.957  0.00  0.00    +0.000 A 
ATOM     14  C   UNL     1       4.318   7.016  17.142  0.00  0.00    +0.000 A 
ATOM     15  C   UNL     1       5.169   6.434  16.207  0.00  0.00    +0.000 A 
ATOM     16  C   UNL     1       5.217   5.044  16.060  0.00  0.00    +0.000 A 
ATOM     17  C   UNL     1       4.405   4.237  16.865  0.00  0.00    +0.000 A 
ATOM     18  C   UNL     1       3.550   4.823  17.801  0.00  0.00    +0.000 A 
BRANCH  16  19
ATOM     19  C   UNL     1       6.193   4.497  15.084  0.00  0.00    +0.000 C 
ATOM     20  O   UNL     1       5.844   3.868  14.099  0.00  0.00    +0.000 OA
BRANCH  19  21
ATOM     21  O   UNL     1       7.487   4.716  15.395  0.00  0.00    +0.000 OA
ATOM     22  H   UNL     1       8.029   3.921  15.543  0.00  0.00    +0.000 HD
ENDBRANCH  19  21
ENDBRANCH  16  19
ENDBRANCH  10  13
ENDBRANCH   7   8
BRANCH   4  23
ATOM     23  O   UNL     1      -0.886  12.564  22.635  0.00  0.00    +0.000 OA
BRANCH  23  24
ATOM     24  C   UNL     1      -2.258  12.675  22.612  0.00  0.00    +0.000 A 
ATOM     25  C   UNL     1      -3.005  12.980  21.467  0.00  0.00    +0.000 A 
ATOM     26  C   UNL     1      -4.397  13.054  21.528  0.00  0.00    +0.000 A 
ATOM     27  C   UNL     1      -5.051  12.783  22.725  0.00  0.00    +0.000 A 
ATOM     28  C   UNL     1      -4.308  12.439  23.850  0.00  0.00    +0.000 A 
ATOM     29  F   UNL     1      -4.943  12.157  24.996  0.00  0.00    +0.000 F 
ATOM     30  C   UNL     1      -2.919  12.379  23.805  0.00  0.00    +0.000 A 
ENDBRANCH  23  24
ENDBRANCH   4  23
TORSDOF 6
ENDMDL
MODEL 4
REMARK VINA RESULT:      -8.2      3.812     10.741
REMARK  Name = 
REMARK  7 active torsions:
REMARK  status: ('A' for Active; 'I' for Inactive)
REMARK    1  A    between atoms: C_1  and  C_2
REMARK    2  A    between atoms: C_4  and  O_5
REMARK    3  A    between atoms: O_5  and  C_6
REMARK    4  A    between atoms: C_15  and  N_16
REMARK    5  A    between atoms: C_18  and  C_19
REMARK    6  A    between atoms: C_22  and  C_23
REMARK    7  A    between atoms: C_23  and  O_25
REMARK                            x       y       z     vdW  Elec       q    Type
REMARK                         _______ _______ _______ _____ _____    ______ ____
ROOT
ATOM      1  C   UNL     1      -1.302  10.404  17.951  0.00  0.00    +0.000 C 
ATOM      2  C   UNL     1      -0.732  10.982  19.218  0.00  0.00    +0.000 A 
ATOM      3  C   UNL     1      -1.401  12.071  19.799  0.00  0.00    +0.000 A 
ATOM      4  C   UNL     1      -0.930  12.607  20.987  0.00  0.00    +0.000 A 
ATOM      5  N   UNL     1       0.132  12.111  21.653  0.00  0.00    +0.000 NA
ATOM      6  C   UNL     1       0.788  11.084  21.075  0.00  0.00    +0.000 A 
ATOM      7  C   UNL     1       0.416  10.488  19.869  0.00  0.00    +0.000 A 
ENDROOT
BRANCH   7   8
ATOM      8  N   UNL     1       1.201   9.422  19.361  0.00  0.00    +0.000 N 
ATOM      9  C   UNL     1       1.524   8.235  19.977  0.00  0.00    +0.000 A 
ATOM     10  C   UNL     1       2.290   7.552  19.062  0.00  0.00    +0.000 A 
ATOM     11  N   UNL     1       2.435   8.317  17.945  0.00  0.00    +0.000 NA
ATOM     12  N   UNL     1       1.775   9.447  18.137  0.00  0.00    +0.000 NA
BRANCH  10  13
ATOM     13  C   UNL     1       2.842   6.223  19.216  0.00  0.00    +0.000 A 
ATOM     14  C   UNL     1       2.383   5.351  20.212  0.00  0.00    +0.000 A 
ATOM     15  C   UNL     1       2.894   4.060  20.310  0.00  0.00    +0.000 A 
ATOM     16  C   UNL     1       3.881   3.618  19.423  0.00  0.00    +0.000 A 
ATOM     17  C   UNL     1       4.350   4.483  18.427  0.00  0.00    +0.000 A 
ATOM     18  C   UNL     1       3.837   5.779  18.332  0.00  0.00    +0.000 A 
BRANCH  16  19
ATOM     19  C   UNL     1       4.332   2.209  19.554  0.00  0.00    +0.000 C 
ATOM     20  O   UNL     1       4.981   1.822  20.511  0.00  0.00    +0.000 OA
BRANCH  19  21
ATOM     21  O   UNL     1       4.002   1.412  18.519  0.00  0.00    +0.000 OA
ATOM     22  H   UNL     1       3.545   0.584  18.748  0.00  0.00    +0.000 HD
ENDBRANCH  19  21
ENDBRANCH  16  19
ENDBRANCH  10  13
ENDBRANCH   7   8
BRANCH   4  23
ATOM     23  O   UNL     1      -1.638  13.676  21.514  0.00  0.00    +0.000 OA
BRANCH  23  24
ATOM     24  C   UNL     1      -2.890  13.443  22.039  0.00  0.00    +0.000 A 
ATOM     25  C   UNL     1      -4.082  13.553  21.313  0.00  0.00    +0.000 A 
ATOM     26  C   UNL     1      -5.309  13.279  21.919  0.00  0.00    +0.000 A 
ATOM     27  C   UNL     1      -5.345  12.856  23.244  0.00  0.00    +0.000 A 
ATOM     28  C   UNL     1      -4.155  12.708  23.949  0.00  0.00    +0.000 A 
ATOM     29  F   UNL     1      -4.193  12.279  25.218  0.00  0.00    +0.000 F 
ATOM     30  C   UNL     1      -2.928  12.994  23.360  0.00  0.00    +0.000 A 
ENDBRANCH  23  24
ENDBRANCH   4  23
TORSDOF 6
ENDMDL
MODEL 5
REMARK VINA RESULT:      -8.1      0.433      1.037
REMARK  Name = 
REMARK  7 active torsions:
REMARK  status: ('A' for Active; 'I' for Inactive)
REMARK    1  A    between atoms: C_1  and  C_2
REMARK    2  A    between atoms: C_4  and  O_5
REMARK    3  A    between atoms: O_5  and  C_6
REMARK    4  A    between atoms: C_15  and  N_16
REMARK    5  A    between atoms: C_18  and  C_19
REMARK    6  A    between atoms: C_22  and  C_23
REMARK    7  A    between atoms: C_23  and  O_25
REMARK                            x       y       z     vdW  Elec       q    Type
REMARK                         _______ _______ _______ _____ _____    ______ ____
ROOT
ATOM      1  C   UNL     1       2.089   9.308  18.004  0.00  0.00    +0.000 C 
ATOM      2  C   UNL     1       2.143   7.978  18.704  0.00  0.00    +0.000 A 
ATOM      3  C   UNL     1       2.677   6.888  17.997  0.00  0.00    +0.000 A 
ATOM      4  C   UNL     1       2.781   5.655  18.620  0.00  0.00    +0.000 A 
ATOM      5  N   UNL     1       2.429   5.442  19.904  0.00  0.00    +0.000 NA
ATOM      6  C   UNL     1       1.889   6.486  20.568  0.00  0.00    +0.000 A 
ATOM      7  C   UNL     1       1.714   7.760  20.028  0.00  0.00    +0.000 A 
ENDROOT
BRANCH   7   8
ATOM      8  N   UNL     1       1.120   8.768  20.830  0.00  0.00    +0.000 N 
ATOM      9  C   UNL     1       0.017   9.540  20.548  0.00  0.00    +0.000 A 
ATOM     10  C   UNL     1      -0.147  10.348  21.648  0.00  0.00    +0.000 A 
ATOM     11  N   UNL     1       0.839  10.080  22.547  0.00  0.00    +0.000 NA
ATOM     12  N   UNL     1       1.602   9.124  22.042  0.00  0.00    +0.000 NA
BRANCH  10  13
ATOM     13  C   UNL     1      -1.202  11.315  21.861  0.00  0.00    +0.000 A 
ATOM     14  C   UNL     1      -1.760  11.521  23.130  0.00  0.00    +0.000 A 
ATOM     15  C   UNL     1      -2.739  12.492  23.321  0.00  0.00    +0.000 A 
ATOM     16  C   UNL     1      -3.188  13.268  22.248  0.00  0.00    +0.000 A 
ATOM     17  C   UNL     1      -2.641  13.067  20.975  0.00  0.00    +0.000 A 
ATOM     18  C   UNL     1      -1.660  12.090  20.785  0.00  0.00    +0.000 A 
BRANCH  16  19
ATOM     19  C   UNL     1      -4.191  14.323  22.543  0.00  0.00    +0.000 C 
ATOM     20  O   UNL     1      -5.329  14.058  22.889  0.00  0.00    +0.000 OA
BRANCH  19  21
ATOM     21  O   UNL     1      -3.754  15.585  22.361  0.00  0.00    +0.000 OA
ATOM     22  H   UNL     1      -3.327  16.003  23.129  0.00  0.00    +0.000 HD
ENDBRANCH  19  21
ENDBRANCH  16  19
ENDBRANCH  10  13
ENDBRANCH   7   8
BRANCH   4  23
ATOM     23  O   UNL     1       3.323   4.621  17.872  0.00  0.00    +0.000 OA
BRANCH  23  24
ATOM     24  C   UNL     1       4.669   4.649  17.587  0.00  0.00    +0.000 A 
ATOM     25  C   UNL     1       5.668   4.927  18.528  0.00  0.00    +0.000 A 
ATOM     26  C   UNL     1       7.014   4.916  18.157  0.00  0.00    +0.000 A 
ATOM     27  C   UNL     1       7.368   4.588  16.853  0.00  0.00    +0.000 A 
ATOM     28  C   UNL     1       6.374   4.271  15.931  0.00  0.00    +0.000 A 
ATOM     29  F   UNL     1       6.721   3.933  14.682  0.00  0.00    +0.000 F 
ATOM     30  C   UNL     1       5.029   4.295  16.286  0.00  0.00    +0.000 A 
ENDBRANCH  23  24
ENDBRANCH   4  23
TORSDOF 6
ENDMDL
MODEL 6
REMARK VINA RESULT:      -8.1      2.594      4.203
REMARK  Name = 
REMARK  7 active torsions:
REMARK  status: ('A' for Active; 'I' for Inactive)
REMARK    1  A    between atoms: C_1  and  C_2
REMARK    2  A    between atoms: C_4  and  O_5
REMARK    3  A    between atoms: O_5  and  C_6
REMARK    4  A    between atoms: C_15  and  N_16
REMARK    5  A    between atoms: C_18  and  C_19
REMARK    6  A    between atoms: C_22  and  C_23
REMARK    7  A    between atoms: C_23  and  O_25
REMARK                            x       y       z     vdW  Elec       q    Type
REMARK                         _______ _______ _______ _____ _____    ______ ____
ROOT
ATOM      1  C   UNL     1       1.766   4.292  18.054  0.00  0.00    +0.000 C 
ATOM      2  C   UNL     1       3.105   4.847  17.652  0.00  0.00    +0.000 A 
ATOM      3  C   UNL     1       3.982   4.000  16.955  0.00  0.00    +0.000 A 
ATOM      4  C   UNL     1       5.209   4.485  16.532  0.00  0.00    +0.000 A 
ATOM      5  N   UNL     1       5.605   5.760  16.720  0.00  0.00    +0.000 NA
ATOM      6  C   UNL     1       4.771   6.560  17.415  0.00  0.00    +0.000 A 
ATOM      7  C   UNL     1       3.527   6.167  17.910  0.00  0.00    +0.000 A 
ENDROOT
BRANCH   7   8
ATOM      8  N   UNL     1       2.752   7.104  18.639  0.00  0.00    +0.000 N 
ATOM      9  C   UNL     1       2.277   8.325  18.219  0.00  0.00    +0.000 A 
ATOM     10  C   UNL     1       1.582   8.828  19.293  0.00  0.00    +0.000 A 
ATOM     11  N   UNL     1       1.657   7.944  20.325  0.00  0.00    +0.000 NA
ATOM     12  N   UNL     1       2.369   6.905  19.920  0.00  0.00    +0.000 NA
BRANCH  10  13
ATOM     13  C   UNL     1       0.852  10.077  19.342  0.00  0.00    +0.000 A 
ATOM     14  C   UNL     1      -0.339  10.199  20.071  0.00  0.00    +0.000 A 
ATOM     15  C   UNL     1      -0.998  11.423  20.145  0.00  0.00    +0.000 A 
ATOM     16  C   UNL     1      -0.488  12.545  19.485  0.00  0.00    +0.000 A 
ATOM     17  C   UNL     1       0.699  12.433  18.750  0.00  0.00    +0.000 A 
ATOM     18  C   UNL     1       1.357  11.203  18.675  0.00  0.00    +0.000 A 
BRANCH  16  19
ATOM     19  C   UNL     1      -1.215  13.828  19.661  0.00  0.00    +0.000 C 
ATOM     20  O   UNL     1      -2.142  13.946  20.444  0.00  0.00    +0.000 OA
BRANCH  19  21
ATOM     21  O   UNL     1      -0.796  14.830  18.862  0.00  0.00    +0.000 OA
ATOM     22  H   UNL     1      -0.169  14.581  18.161  0.00  0.00    +0.000 HD
ENDBRANCH  19  21
ENDBRANCH  16  19
ENDBRANCH  10  13
ENDBRANCH   7   8
BRANCH   4  23
ATOM     23  O   UNL     1       6.026   3.602  15.843  0.00  0.00    +0.000 OA
BRANCH  23  24
ATOM     24  C   UNL     1       6.365   3.896  14.542  0.00  0.00    +0.000 A 
ATOM     25  C   UNL     1       5.668   3.428  13.421  0.00  0.00    +0.000 A 
ATOM     26  C   UNL     1       6.069   3.791  12.135  0.00  0.00    +0.000 A 
ATOM     27  C   UNL     1       7.145   4.656  11.965  0.00  0.00    +0.000 A 
ATOM     28  C   UNL     1       7.809   5.152  13.083  0.00  0.00    +0.000 A 
ATOM     29  F   UNL     1       8.831   6.002  12.916  0.00  0.00    +0.000 F 
ATOM     30  C   UNL     1       7.428   4.784  14.370  0.00  0.00    +0.000 A 
ENDBRANCH  23  24
ENDBRANCH   4  23
TORSDOF 6
ENDMDL
MODEL 7
REMARK VINA RESULT:      -8.1      2.045      2.754
REMARK  Name = 
REMARK  7 active torsions:
REMARK  status: ('A' for Active; 'I' for Inactive)
REMARK    1  A    between atoms: C_1  and  C_2
REMARK    2  A    between atoms: C_4  and  O_5
REMARK    3  A    between atoms: O_5  and  C_6
REMARK    4  A    between atoms: C_15  and  N_16
REMARK    5  A    between atoms: C_18  and  C_19
REMARK    6  A    between atoms: C_22  and  C_23
REMARK    7  A    between atoms: C_23  and  O_25
REMARK                            x       y       z     vdW  Elec       q    Type
REMARK                         _______ _______ _______ _____ _____    ______ ____
ROOT
ATOM      1  C   UNL     1       1.629  10.486  17.787  0.00  0.00    +0.000 C 
ATOM      2  C   UNL     1       1.762   9.226  18.597  0.00  0.00    +0.000 A 
ATOM      3  C   UNL     1       2.396   8.126  17.996  0.00  0.00    +0.000 A 
ATOM      4  C   UNL     1       2.575   6.959  18.722  0.00  0.00    +0.000 A 
ATOM      5  N   UNL     1       2.202   6.825  20.010  0.00  0.00    +0.000 NA
ATOM      6  C   UNL     1       1.567   7.875  20.572  0.00  0.00    +0.000 A 
ATOM      7  C   UNL     1       1.312   9.084  19.924  0.00  0.00    +0.000 A 
ENDROOT
BRANCH   7   8
ATOM      8  N   UNL     1       0.621  10.105  20.626  0.00  0.00    +0.000 N 
ATOM      9  C   UNL     1      -0.730  10.365  20.636  0.00  0.00    +0.000 A 
ATOM     10  C   UNL     1      -0.882  11.444  21.474  0.00  0.00    +0.000 A 
ATOM     11  N   UNL     1       0.343  11.826  21.932  0.00  0.00    +0.000 NA
ATOM     12  N   UNL     1       1.245  11.011  21.411  0.00  0.00    +0.000 NA
BRANCH  10  13
ATOM     13  C   UNL     1      -2.126  12.077  21.853  0.00  0.00    +0.000 A 
ATOM     14  C   UNL     1      -2.575  12.071  23.181  0.00  0.00    +0.000 A 
ATOM     15  C   UNL     1      -3.751  12.729  23.531  0.00  0.00    +0.000 A 
ATOM     16  C   UNL     1      -4.507  13.396  22.562  0.00  0.00    +0.000 A 
ATOM     17  C   UNL     1      -4.070  13.403  21.232  0.00  0.00    +0.000 A 
ATOM     18  C   UNL     1      -2.891  12.740  20.882  0.00  0.00    +0.000 A 
BRANCH  16  19
ATOM     19  C   UNL     1      -5.716  14.123  23.024  0.00  0.00    +0.000 C 
ATOM     20  O   UNL     1      -6.652  14.365  22.281  0.00  0.00    +0.000 OA
BRANCH  19  21
ATOM     21  O   UNL     1      -5.676  14.527  24.309  0.00  0.00    +0.000 OA
ATOM     22  H   UNL     1      -6.375  15.145  24.583  0.00  0.00    +0.000 HD
ENDBRANCH  19  21
ENDBRANCH  16  19
ENDBRANCH  10  13
ENDBRANCH   7   8
BRANCH   4  23
ATOM     23  O   UNL     1       3.214   5.913  18.075  0.00  0.00    +0.000 OA
BRANCH  23  24
ATOM     24  C   UNL     1       2.851   4.623  18.391  0.00  0.00    +0.000 A 
ATOM     25  C   UNL     1       1.610   4.055  18.076  0.00  0.00    +0.000 A 
ATOM     26  C   UNL     1       1.331   2.730  18.417  0.00  0.00    +0.000 A 
ATOM     27  C   UNL     1       2.305   1.957  19.038  0.00  0.00    +0.000 A 
ATOM     28  C   UNL     1       3.552   2.512  19.310  0.00  0.00    +0.000 A 
ATOM     29  F   UNL     1       4.495   1.757  19.888  0.00  0.00    +0.000 F 
ATOM     30  C   UNL     1       3.836   3.836  18.990  0.00  0.00    +0.000 A 
ENDBRANCH  23  24
ENDBRANCH   4  23
TORSDOF 6
ENDMDL
MODEL 8
REMARK VINA RESULT:      -8.1      2.554      4.086
REMARK  Name = 
REMARK  7 active torsions:
REMARK  status: ('A' for Active; 'I' for Inactive)
REMARK    1  A    between atoms: C_1  and  C_2
REMARK    2  A    between atoms: C_4  and  O_5
REMARK    3  A    between atoms: O_5  and  C_6
REMARK    4  A    between atoms: C_15  and  N_16
REMARK    5  A    between atoms: C_18  and  C_19
REMARK    6  A    between atoms: C_22  and  C_23
REMARK    7  A    between atoms: C_23  and  O_25
REMARK                            x       y       z     vdW  Elec       q    Type
REMARK                         _______ _______ _______ _____ _____    ______ ____
ROOT
ATOM      1  C   UNL     1       1.796   4.282  17.777  0.00  0.00    +0.000 C 
ATOM      2  C   UNL     1       3.174   4.849  17.572  0.00  0.00    +0.000 A 
ATOM      3  C   UNL     1       4.105   4.068  16.868  0.00  0.00    +0.000 A 
ATOM      4  C   UNL     1       5.373   4.570  16.623  0.00  0.00    +0.000 A 
ATOM      5  N   UNL     1       5.764   5.805  16.996  0.00  0.00    +0.000 NA
ATOM      6  C   UNL     1       4.875   6.539  17.698  0.00  0.00    +0.000 A 
ATOM      7  C   UNL     1       3.584   6.120  18.022  0.00  0.00    +0.000 A 
ENDROOT
BRANCH   7   8
ATOM      8  N   UNL     1       2.753   6.984  18.779  0.00  0.00    +0.000 N 
ATOM      9  C   UNL     1       2.215   8.192  18.402  0.00  0.00    +0.000 A 
ATOM     10  C   UNL     1       1.484   8.615  19.487  0.00  0.00    +0.000 A 
ATOM     11  N   UNL     1       1.600   7.696  20.485  0.00  0.00    +0.000 NA
ATOM     12  N   UNL     1       2.371   6.714  20.048  0.00  0.00    +0.000 NA
BRANCH  10  13
ATOM     13  C   UNL     1       0.687   9.818  19.577  0.00  0.00    +0.000 A 
ATOM     14  C   UNL     1       0.854  10.730  20.629  0.00  0.00    +0.000 A 
ATOM     15  C   UNL     1       0.111  11.906  20.669  0.00  0.00    +0.000 A 
ATOM     16  C   UNL     1      -0.822  12.190  19.666  0.00  0.00    +0.000 A 
ATOM     17  C   UNL     1      -1.001  11.284  18.614  0.00  0.00    +0.000 A 
ATOM     18  C   UNL     1      -0.255  10.103  18.578  0.00  0.00    +0.000 A 
BRANCH  16  19
ATOM     19  C   UNL     1      -1.533  13.491  19.747  0.00  0.00    +0.000 C 
ATOM     20  O   UNL     1      -2.612  13.609  20.303  0.00  0.00    +0.000 OA
BRANCH  19  21
ATOM     21  O   UNL     1      -0.912  14.514  19.127  0.00  0.00    +0.000 OA
ATOM     22  H   UNL     1       0.061  14.486  19.130  0.00  0.00    +0.000 HD
ENDBRANCH  19  21
ENDBRANCH  16  19
ENDBRANCH  10  13
ENDBRANCH   7   8
BRANCH   4  23
ATOM     23  O   UNL     1       6.243   3.754  15.917  0.00  0.00    +0.000 OA
BRANCH  23  24
ATOM     24  C   UNL     1       6.492   4.045  14.594  0.00  0.00    +0.000 A 
ATOM     25  C   UNL     1       7.488   4.926  14.156  0.00  0.00    +0.000 A 
ATOM     26  C   UNL     1       7.686   5.150  12.793  0.00  0.00    +0.000 A 
ATOM     27  C   UNL     1       6.916   4.463  11.861  0.00  0.00    +0.000 A 
ATOM     28  C   UNL     1       5.956   3.556  12.300  0.00  0.00    +0.000 A 
ATOM     29  F   UNL     1       5.231   2.879  11.399  0.00  0.00    +0.000 F 
ATOM     30  C   UNL     1       5.738   3.338  13.657  0.00  0.00    +0.000 A 
ENDBRANCH  23  24
ENDBRANCH   4  23
TORSDOF 6
ENDMDL
MODEL 9
REMARK VINA RESULT:      -8.1      0.957      1.684
REMARK  Name = 
REMARK  7 active torsions:
REMARK  status: ('A' for Active; 'I' for Inactive)
REMARK    1  A    between atoms: C_1  and  C_2
REMARK    2  A    between atoms: C_4  and  O_5
REMARK    3  A    between atoms: O_5  and  C_6
REMARK    4  A    between atoms: C_15  and  N_16
REMARK    5  A    between atoms: C_18  and  C_19
REMARK    6  A    between atoms: C_22  and  C_23
REMARK    7  A    between atoms: C_23  and  O_25
REMARK                            x       y       z     vdW  Elec       q    Type
REMARK                         _______ _______ _______ _____ _____    ______ ____
ROOT
ATOM      1  C   UNL     1       2.265   8.896  17.976  0.00  0.00    +0.000 C 
ATOM      2  C   UNL     1       2.294   7.590  18.723  0.00  0.00    +0.000 A 
ATOM      3  C   UNL     1       2.809   6.467  18.056  0.00  0.00    +0.000 A 
ATOM      4  C   UNL     1       2.890   5.254  18.723  0.00  0.00    +0.000 A 
ATOM      5  N   UNL     1       2.532   5.094  20.012  0.00  0.00    +0.000 NA
ATOM      6  C   UNL     1       2.010   6.169  20.637  0.00  0.00    +0.000 A 
ATOM      7  C   UNL     1       1.858   7.427  20.053  0.00  0.00    +0.000 A 
ENDROOT
BRANCH   7   8
ATOM      8  N   UNL     1       1.280   8.473  20.817  0.00  0.00    +0.000 N 
ATOM      9  C   UNL     1       0.234   9.298  20.476  0.00  0.00    +0.000 A 
ATOM     10  C   UNL     1       0.060  10.125  21.560  0.00  0.00    +0.000 A 
ATOM     11  N   UNL     1       0.987   9.815  22.508  0.00  0.00    +0.000 NA
ATOM     12  N   UNL     1       1.722   8.816  22.048  0.00  0.00    +0.000 NA
BRANCH  10  13
ATOM     13  C   UNL     1      -0.951  11.148  21.714  0.00  0.00    +0.000 A 
ATOM     14  C   UNL     1      -1.473  11.477  22.973  0.00  0.00    +0.000 A 
ATOM     15  C   UNL     1      -2.408  12.499  23.104  0.00  0.00    +0.000 A 
ATOM     16  C   UNL     1      -2.850  13.205  21.980  0.00  0.00    +0.000 A 
ATOM     17  C   UNL     1      -2.340  12.881  20.718  0.00  0.00    +0.000 A 
ATOM     18  C   UNL     1      -1.402  11.853  20.589  0.00  0.00    +0.000 A 
BRANCH  16  19
ATOM     19  C   UNL     1      -3.804  14.320  22.209  0.00  0.00    +0.000 C 
ATOM     20  O   UNL     1      -3.870  14.910  23.274  0.00  0.00    +0.000 OA
BRANCH  19  21
ATOM     21  O   UNL     1      -4.611  14.596  21.165  0.00  0.00    +0.000 OA
ATOM     22  H   UNL     1      -4.189  14.592  20.288  0.00  0.00    +0.000 HD
ENDBRANCH  19  21
ENDBRANCH  16  19
ENDBRANCH  10  13
ENDBRANCH   7   8
BRANCH   4  23
ATOM     23  O   UNL     1       3.415   4.185  18.013  0.00  0.00    +0.000 OA
BRANCH  23  24
ATOM     24  C   UNL     1       4.672   4.311  17.466  0.00  0.00    +0.000 A 
ATOM     25  C   UNL     1       4.945   4.246  16.094  0.00  0.00    +0.000 A 
ATOM     26  C   UNL     1       6.249   4.404  15.623  0.00  0.00    +0.000 A 
ATOM     27  C   UNL     1       7.280   4.665  16.519  0.00  0.00    +0.000 A 
ATOM     28  C   UNL     1       6.999   4.770  17.877  0.00  0.00    +0.000 A 
ATOM     29  F   UNL     1       7.991   5.045  18.734  0.00  0.00    +0.000 F 
ATOM     30  C   UNL     1       5.705   4.599  18.360  0.00  0.00    +0.000 A 
ENDBRANCH  23  24
ENDBRANCH   4  23
TORSDOF 6
ENDMDL
