MODEL 1
REMARK VINA RESULT:      -6.1      0.000      0.000
REMARK  Name = 
REMARK  7 active torsions:
REMARK  status: ('A' for Active; 'I' for Inactive)
REMARK    1  A    between atoms: C_2  and  C_3
REMARK    2  A    between atoms: C_3  and  N_4
REMARK    3  A    between atoms: C_7  and  C_8
REMARK    4  A    between atoms: C_8  and  O_9
REMARK    5  A    between atoms: N_12  and  C_13
REMARK    6  A    between atoms: C_13  and  C_14
REMARK    7  A    between atoms: C_14  and  C_15
REMARK                            x       y       z     vdW  Elec       q    Type
REMARK                         _______ _______ _______ _____ _____    ______ ____
ROOT
ATOM      1  O   UNL     1       1.600   5.812  17.882  0.00  0.00    +0.000 OA
ATOM      2  C   UNL     1       2.609   6.176  18.482  0.00  0.00    +0.000 C 
ATOM      3  N   UNL     1       2.726   6.127  19.853  0.00  0.00    +0.000 N 
ATOM      4  H   UNL     1       3.650   6.346  20.214  0.00  0.00    +0.000 HD
ENDROOT
BRANCH   2   5
ATOM      5  C   UNL     1       3.806   6.804  17.759  0.00  0.00    +0.000 C 
BRANCH   5   6
ATOM      6  N   UNL     1       4.979   5.886  17.618  0.00  0.00    +0.000 NA
ATOM      7  C   UNL     1       4.648   4.740  16.743  0.00  0.00    +0.000 C 
ATOM      8  C   UNL     1       5.867   3.835  16.528  0.00  0.00    +0.000 C 
ATOM      9  C   UNL     1       7.050   4.598  15.918  0.00  0.00    +0.000 C 
ATOM     10  C   UNL     1       7.348   5.815  16.798  0.00  0.00    +0.000 C 
ATOM     11  C   UNL     1       6.100   6.667  17.049  0.00  0.00    +0.000 C 
BRANCH   9  12
ATOM     12  C   UNL     1       6.802   5.000  14.457  0.00  0.00    +0.000 C 
BRANCH  12  13
ATOM     13  O   UNL     1       7.968   5.584  13.891  0.00  0.00    +0.000 OA
ATOM     14  H   UNL     1       8.728   5.311  14.432  0.00  0.00    +0.000 HD
ENDBRANCH  12  13
ENDBRANCH   9  12
ENDBRANCH   5   6
ENDBRANCH   2   5
BRANCH   3  15
ATOM     15  C   UNL     1       1.714   5.517  20.692  0.00  0.00    +0.000 C 
BRANCH  15  16
ATOM     16  C   UNL     1       2.153   4.145  21.199  0.00  0.00    +0.000 C 
BRANCH  16  17
ATOM     17  C   UNL     1       2.436   3.181  20.086  0.00  0.00    +0.000 A 
ATOM     18  C   UNL     1       1.549   2.650  19.171  0.00  0.00    +0.000 A 
ATOM     19  C   UNL     1       2.177   1.748  18.265  0.00  0.00    +0.000 A 
ATOM     20  C   UNL     1       3.523   1.616  18.521  0.00  0.00    +0.000 A 
ATOM     21  S   UNL     1       4.021   2.574  19.846  0.00  0.00    +0.000 S 
ENDBRANCH  16  17
ENDBRANCH  15  16
ENDBRANCH   3  15
TORSDOF 7
ENDMDL
MODEL 2
REMARK VINA RESULT:      -5.9      5.044      8.100
REMARK  Name = 
REMARK  7 active torsions:
REMARK  status: ('A' for Active; 'I' for Inactive)
REMARK    1  A    between atoms: C_2  and  C_3
REMARK    2  A    between atoms: C_3  and  N_4
REMARK    3  A    between atoms: C_7  and  C_8
REMARK    4  A    between atoms: C_8  and  O_9
REMARK    5  A    between atoms: N_12  and  C_13
REMARK    6  A    between atoms: C_13  and  C_14
REMARK    7  A    between atoms: C_14  and  C_15
REMARK                            x       y       z     vdW  Elec       q    Type
REMARK                         _______ _______ _______ _____ _____    ______ ____
ROOT
ATOM      1  O   UNL     1       6.742   7.696  16.669  0.00  0.00    +0.000 OA
ATOM      2  C   UNL     1       7.273   7.263  17.690  0.00  0.00    +0.000 C 
ATOM      3  N   UNL     1       8.208   7.975  18.409  0.00  0.00    +0.000 N 
ATOM      4  H   UNL     1       8.482   7.554  19.293  0.00  0.00    +0.000 HD
ENDROOT
BRANCH   2   5
ATOM      5  C   UNL     1       7.008   5.846  18.210  0.00  0.00    +0.000 C 
BRANCH   5   6
ATOM      6  N   UNL     1       5.581   5.415  18.092  0.00  0.00    +0.000 NA
ATOM      7  C   UNL     1       5.469   4.173  17.295  0.00  0.00    +0.000 C 
ATOM      8  C   UNL     1       4.019   3.679  17.236  0.00  0.00    +0.000 C 
ATOM      9  C   UNL     1       3.440   3.424  18.633  0.00  0.00    +0.000 C 
ATOM     10  C   UNL     1       3.612   4.695  19.470  0.00  0.00    +0.000 C 
ATOM     11  C   UNL     1       5.057   5.202  19.460  0.00  0.00    +0.000 C 
BRANCH   9  12
ATOM     12  C   UNL     1       4.071   2.203  19.319  0.00  0.00    +0.000 C 
BRANCH  12  13
ATOM     13  O   UNL     1       4.070   1.080  18.447  0.00  0.00    +0.000 OA
ATOM     14  H   UNL     1       4.589   1.317  17.659  0.00  0.00    +0.000 HD
ENDBRANCH  12  13
ENDBRANCH   9  12
ENDBRANCH   5   6
ENDBRANCH   2   5
BRANCH   3  15
ATOM     15  C   UNL     1       8.542   9.349  18.093  0.00  0.00    +0.000 C 
BRANCH  15  16
ATOM     16  C   UNL     1       9.225  10.049  19.266  0.00  0.00    +0.000 C 
BRANCH  16  17
ATOM     17  C   UNL     1      10.021  11.247  18.841  0.00  0.00    +0.000 A 
ATOM     18  C   UNL     1      11.351  11.520  19.092  0.00  0.00    +0.000 A 
ATOM     19  C   UNL     1      11.761  12.770  18.545  0.00  0.00    +0.000 A 
ATOM     20  C   UNL     1      10.730  13.411  17.897  0.00  0.00    +0.000 A 
ATOM     21  S   UNL     1       9.278  12.511  17.952  0.00  0.00    +0.000 S 
ENDBRANCH  16  17
ENDBRANCH  15  16
ENDBRANCH   3  15
TORSDOF 7
ENDMDL
MODEL 3
REMARK VINA RESULT:      -5.9      1.193      1.325
REMARK  Name = 
REMARK  7 active torsions:
REMARK  status: ('A' for Active; 'I' for Inactive)
REMARK    1  A    between atoms: C_2  and  C_3
REMARK    2  A    between atoms: C_3  and  N_4
REMARK    3  A    between atoms: C_7  and  C_8
REMARK    4  A    between atoms: C_8  and  O_9
REMARK    5  A    between atoms: N_12  and  C_13
REMARK    6  A    between atoms: C_13  and  C_14
REMARK    7  A    between atoms: C_14  and  C_15
REMARK                            x       y       z     vdW  Elec       q    Type
REMARK                         _______ _______ _______ _____ _____    ______ ____
ROOT
ATOM      1  O   UNL     1       2.186   8.097  19.195  0.00  0.00    +0.000 OA
ATOM      2  C   UNL     1       2.720   7.072  18.777  0.00  0.00    +0.000 C 
ATOM      3  N   UNL     1       2.645   5.864  19.434  0.00  0.00    +0.000 N 
ATOM      4  H   UNL     1       3.030   5.073  18.926  0.00  0.00    +0.000 HD
ENDROOT
BRANCH   2   5
ATOM      5  C   UNL     1       3.600   7.065  17.521  0.00  0.00    +0.000 C 
BRANCH   5   6
ATOM      6  N   UNL     1       4.784   6.155  17.617  0.00  0.00    +0.000 NA
ATOM      7  C   UNL     1       4.535   4.889  16.893  0.00  0.00    +0.000 C 
ATOM      8  C   UNL     1       5.771   3.983  16.917  0.00  0.00    +0.000 C 
ATOM      9  C   UNL     1       7.000   4.669  16.306  0.00  0.00    +0.000 C 
ATOM     10  C   UNL     1       7.216   6.005  17.022  0.00  0.00    +0.000 C 
ATOM     11  C   UNL     1       5.947   6.863  17.038  0.00  0.00    +0.000 C 
BRANCH   9  12
ATOM     12  C   UNL     1       6.879   4.852  14.786  0.00  0.00    +0.000 C 
BRANCH  12  13
ATOM     13  O   UNL     1       6.462   3.642  14.166  0.00  0.00    +0.000 OA
ATOM     14  H   UNL     1       5.902   3.877  13.406  0.00  0.00    +0.000 HD
ENDBRANCH  12  13
ENDBRANCH   9  12
ENDBRANCH   5   6
ENDBRANCH   2   5
BRANCH   3  15
ATOM     15  C   UNL     1       1.816   5.674  20.608  0.00  0.00    +0.000 C 
BRANCH  15  16
ATOM     16  C   UNL     1       1.325   4.233  20.725  0.00  0.00    +0.000 C 
BRANCH  16  17
ATOM     17  C   UNL     1       2.152   3.274  19.921  0.00  0.00    +0.000 A 
ATOM     18  C   UNL     1       3.384   2.737  20.238  0.00  0.00    +0.000 A 
ATOM     19  C   UNL     1       3.877   1.871  19.219  0.00  0.00    +0.000 A 
ATOM     20  C   UNL     1       3.007   1.777  18.157  0.00  0.00    +0.000 A 
ATOM     21  S   UNL     1       1.606   2.730  18.390  0.00  0.00    +0.000 S 
ENDBRANCH  16  17
ENDBRANCH  15  16
ENDBRANCH   3  15
TORSDOF 7
ENDMDL
MODEL 4
REMARK VINA RESULT:      -5.8      4.910      6.484
REMARK  Name = 
REMARK  7 active torsions:
REMARK  status: ('A' for Active; 'I' for Inactive)
REMARK    1  A    between atoms: C_2  and  C_3
REMARK    2  A    between atoms: C_3  and  N_4
REMARK    3  A    between atoms: C_7  and  C_8
REMARK    4  A    between atoms: C_8  and  O_9
REMARK    5  A    between atoms: N_12  and  C_13
REMARK    6  A    between atoms: C_13  and  C_14
REMARK    7  A    between atoms: C_14  and  C_15
REMARK                            x       y       z     vdW  Elec       q    Type
REMARK                         _______ _______ _______ _____ _____    ______ ____
ROOT
ATOM      1  O   UNL     1       1.921   8.891  17.384  0.00  0.00    +0.000 OA
ATOM      2  C   UNL     1       1.775   8.627  18.576  0.00  0.00    +0.000 C 
ATOM      3  N   UNL     1       1.157   9.479  19.464  0.00  0.00    +0.000 N 
ATOM      4  H   UNL     1       0.999   9.093  20.391  0.00  0.00    +0.000 HD
ENDROOT
BRANCH   2   5
ATOM      5  C   UNL     1       2.352   7.353  19.205  0.00  0.00    +0.000 C 
BRANCH   5   6
ATOM      6  N   UNL     1       2.717   6.298  18.210  0.00  0.00    +0.000 NA
ATOM      7  C   UNL     1       4.147   5.937  18.327  0.00  0.00    +0.000 C 
ATOM      8  C   UNL     1       4.514   4.800  17.366  0.00  0.00    +0.000 C 
ATOM      9  C   UNL     1       3.665   3.545  17.608  0.00  0.00    +0.000 C 
ATOM     10  C   UNL     1       2.187   3.939  17.543  0.00  0.00    +0.000 C 
ATOM     11  C   UNL     1       1.862   5.118  18.466  0.00  0.00    +0.000 C 
BRANCH   9  12
ATOM     12  C   UNL     1       4.009   2.847  18.932  0.00  0.00    +0.000 C 
BRANCH  12  13
ATOM     13  O   UNL     1       5.402   2.940  19.202  0.00  0.00    +0.000 OA
ATOM     14  H   UNL     1       5.744   3.716  18.727  0.00  0.00    +0.000 HD
ENDBRANCH  12  13
ENDBRANCH   9  12
ENDBRANCH   5   6
ENDBRANCH   2   5
BRANCH   3  15
ATOM     15  C   UNL     1       0.509  10.703  19.036  0.00  0.00    +0.000 C 
BRANCH  15  16
ATOM     16  C   UNL     1      -0.963  10.732  19.439  0.00  0.00    +0.000 C 
BRANCH  16  17
ATOM     17  C   UNL     1      -1.888  10.615  18.264  0.00  0.00    +0.000 A 
ATOM     18  C   UNL     1      -1.706   9.885  17.105  0.00  0.00    +0.000 A 
ATOM     19  C   UNL     1      -2.794  10.028  16.197  0.00  0.00    +0.000 A 
ATOM     20  C   UNL     1      -3.770  10.864  16.691  0.00  0.00    +0.000 A 
ATOM     21  S   UNL     1      -3.371  11.472  18.238  0.00  0.00    +0.000 S 
ENDBRANCH  16  17
ENDBRANCH  15  16
ENDBRANCH   3  15
TORSDOF 7
ENDMDL
MODEL 5
REMARK VINA RESULT:      -5.8      3.617      5.176
REMARK  Name = 
REMARK  7 active torsions:
REMARK  status: ('A' for Active; 'I' for Inactive)
REMARK    1  A    between atoms: C_2  and  C_3
REMARK    2  A    between atoms: C_3  and  N_4
REMARK    3  A    between atoms: C_7  and  C_8
REMARK    4  A    between atoms: C_8  and  O_9
REMARK    5  A    between atoms: N_12  and  C_13
REMARK    6  A    between atoms: C_13  and  C_14
REMARK    7  A    between atoms: C_14  and  C_15
REMARK                            x       y       z     vdW  Elec       q    Type
REMARK                         _______ _______ _______ _____ _____    ______ ____
ROOT
ATOM      1  O   UNL     1       1.430   4.699  19.664  0.00  0.00    +0.000 OA
ATOM      2  C   UNL     1       2.475   5.283  19.941  0.00  0.00    +0.000 C 
ATOM      3  N   UNL     1       2.507   6.552  20.475  0.00  0.00    +0.000 N 
ATOM      4  H   UNL     1       3.427   6.874  20.765  0.00  0.00    +0.000 HD
ENDROOT
BRANCH   2   5
ATOM      5  C   UNL     1       3.852   4.682  19.633  0.00  0.00    +0.000 C 
BRANCH   5   6
ATOM      6  N   UNL     1       4.796   5.638  18.976  0.00  0.00    +0.000 NA
ATOM      7  C   UNL     1       6.192   5.162  19.092  0.00  0.00    +0.000 C 
ATOM      8  C   UNL     1       7.160   6.094  18.353  0.00  0.00    +0.000 C 
ATOM      9  C   UNL     1       6.806   6.230  16.867  0.00  0.00    +0.000 C 
ATOM     10  C   UNL     1       5.342   6.666  16.755  0.00  0.00    +0.000 C 
ATOM     11  C   UNL     1       4.405   5.756  17.554  0.00  0.00    +0.000 C 
BRANCH   9  12
ATOM     12  C   UNL     1       7.077   4.942  16.075  0.00  0.00    +0.000 C 
BRANCH  12  13
ATOM     13  O   UNL     1       7.598   5.244  14.787  0.00  0.00    +0.000 OA
ATOM     14  H   UNL     1       8.556   5.379  14.880  0.00  0.00    +0.000 HD
ENDBRANCH  12  13
ENDBRANCH   9  12
ENDBRANCH   5   6
ENDBRANCH   2   5
BRANCH   3  15
ATOM     15  C   UNL     1       1.302   7.251  20.877  0.00  0.00    +0.000 C 
BRANCH  15  16
ATOM     16  C   UNL     1       1.363   8.733  20.517  0.00  0.00    +0.000 C 
BRANCH  16  17
ATOM     17  C   UNL     1       0.458   9.573  21.370  0.00  0.00    +0.000 A 
ATOM     18  C   UNL     1       0.046   9.337  22.666  0.00  0.00    +0.000 A 
ATOM     19  C   UNL     1      -0.832  10.349  23.149  0.00  0.00    +0.000 A 
ATOM     20  C   UNL     1      -1.065  11.323  22.205  0.00  0.00    +0.000 A 
ATOM     21  S   UNL     1      -0.229  11.014  20.746  0.00  0.00    +0.000 S 
ENDBRANCH  16  17
ENDBRANCH  15  16
ENDBRANCH   3  15
TORSDOF 7
ENDMDL
MODEL 6
REMARK VINA RESULT:      -5.7      3.846      5.449
REMARK  Name = 
REMARK  7 active torsions:
REMARK  status: ('A' for Active; 'I' for Inactive)
REMARK    1  A    between atoms: C_2  and  C_3
REMARK    2  A    between atoms: C_3  and  N_4
REMARK    3  A    between atoms: C_7  and  C_8
REMARK    4  A    between atoms: C_8  and  O_9
REMARK    5  A    between atoms: N_12  and  C_13
REMARK    6  A    between atoms: C_13  and  C_14
REMARK    7  A    between atoms: C_14  and  C_15
REMARK                            x       y       z     vdW  Elec       q    Type
REMARK                         _______ _______ _______ _____ _____    ______ ____
ROOT
ATOM      1  O   UNL     1       1.214   4.789  20.412  0.00  0.00    +0.000 OA
ATOM      2  C   UNL     1       2.231   5.463  20.265  0.00  0.00    +0.000 C 
ATOM      3  N   UNL     1       2.273   6.821  20.496  0.00  0.00    +0.000 N 
ATOM      4  H   UNL     1       3.199   7.237  20.449  0.00  0.00    +0.000 HD
ENDROOT
BRANCH   2   5
ATOM      5  C   UNL     1       3.534   4.865  19.721  0.00  0.00    +0.000 C 
BRANCH   5   6
ATOM      6  N   UNL     1       3.727   5.068  18.252  0.00  0.00    +0.000 NA
ATOM      7  C   UNL     1       4.476   6.316  17.987  0.00  0.00    +0.000 C 
ATOM      8  C   UNL     1       4.749   6.493  16.488  0.00  0.00    +0.000 C 
ATOM      9  C   UNL     1       5.532   5.311  15.902  0.00  0.00    +0.000 C 
ATOM     10  C   UNL     1       4.780   4.019  16.232  0.00  0.00    +0.000 C 
ATOM     11  C   UNL     1       4.465   3.899  17.726  0.00  0.00    +0.000 C 
BRANCH   9  12
ATOM     12  C   UNL     1       6.985   5.265  16.396  0.00  0.00    +0.000 C 
BRANCH  12  13
ATOM     13  O   UNL     1       7.562   6.564  16.386  0.00  0.00    +0.000 OA
ATOM     14  H   UNL     1       7.013   7.135  16.949  0.00  0.00    +0.000 HD
ENDBRANCH  12  13
ENDBRANCH   9  12
ENDBRANCH   5   6
ENDBRANCH   2   5
BRANCH   3  15
ATOM     15  C   UNL     1       1.149   7.542  21.060  0.00  0.00    +0.000 C 
BRANCH  15  16
ATOM     16  C   UNL     1       1.094   8.983  20.558  0.00  0.00    +0.000 C 
BRANCH  16  17
ATOM     17  C   UNL     1       0.250   9.867  21.427  0.00  0.00    +0.000 A 
ATOM     18  C   UNL     1      -0.316   9.570  22.651  0.00  0.00    +0.000 A 
ATOM     19  C   UNL     1      -1.073  10.656  23.177  0.00  0.00    +0.000 A 
ATOM     20  C   UNL     1      -1.062  11.746  22.337  0.00  0.00    +0.000 A 
ATOM     21  S   UNL     1      -0.147  11.456  20.922  0.00  0.00    +0.000 S 
ENDBRANCH  16  17
ENDBRANCH  15  16
ENDBRANCH   3  15
TORSDOF 7
ENDMDL
MODEL 7
REMARK VINA RESULT:      -5.7      4.651      6.680
REMARK  Name = 
REMARK  7 active torsions:
REMARK  status: ('A' for Active; 'I' for Inactive)
REMARK    1  A    between atoms: C_2  and  C_3
REMARK    2  A    between atoms: C_3  and  N_4
REMARK    3  A    between atoms: C_7  and  C_8
REMARK    4  A    between atoms: C_8  and  O_9
REMARK    5  A    between atoms: N_12  and  C_13
REMARK    6  A    between atoms: C_13  and  C_14
REMARK    7  A    between atoms: C_14  and  C_15
REMARK                            x       y       z     vdW  Elec       q    Type
REMARK                         _______ _______ _______ _____ _____    ______ ____
ROOT
ATOM      1  O   UNL     1       3.149   8.076  17.512  0.00  0.00    +0.000 OA
ATOM      2  C   UNL     1       2.481   7.800  18.506  0.00  0.00    +0.000 C 
ATOM      3  N   UNL     1       1.536   8.650  19.036  0.00  0.00    +0.000 N 
ATOM      4  H   UNL     1       0.974   8.256  19.785  0.00  0.00    +0.000 HD
ENDROOT
BRANCH   2   5
ATOM      5  C   UNL     1       2.702   6.510  19.304  0.00  0.00    +0.000 C 
BRANCH   5   6
ATOM      6  N   UNL     1       2.080   5.299  18.683  0.00  0.00    +0.000 NA
ATOM      7  C   UNL     1       3.032   4.626  17.774  0.00  0.00    +0.000 C 
ATOM      8  C   UNL     1       2.433   3.340  17.194  0.00  0.00    +0.000 C 
ATOM      9  C   UNL     1       2.015   2.353  18.291  0.00  0.00    +0.000 C 
ATOM     10  C   UNL     1       1.076   3.075  19.261  0.00  0.00    +0.000 C 
ATOM     11  C   UNL     1       1.674   4.388  19.776  0.00  0.00    +0.000 C 
BRANCH   9  12
ATOM     12  C   UNL     1       3.219   1.737  19.019  0.00  0.00    +0.000 C 
BRANCH  12  13
ATOM     13  O   UNL     1       4.153   1.205  18.088  0.00  0.00    +0.000 OA
ATOM     14  H   UNL     1       3.731   1.210  17.212  0.00  0.00    +0.000 HD
ENDBRANCH  12  13
ENDBRANCH   9  12
ENDBRANCH   5   6
ENDBRANCH   2   5
BRANCH   3  15
ATOM     15  C   UNL     1       1.160   9.889  18.383  0.00  0.00    +0.000 C 
BRANCH  15  16
ATOM     16  C   UNL     1       0.053  10.614  19.144  0.00  0.00    +0.000 C 
BRANCH  16  17
ATOM     17  C   UNL     1      -1.243  10.647  18.389  0.00  0.00    +0.000 A 
ATOM     18  C   UNL     1      -1.622   9.872  17.311  0.00  0.00    +0.000 A 
ATOM     19  C   UNL     1      -2.926  10.197  16.841  0.00  0.00    +0.000 A 
ATOM     20  C   UNL     1      -3.500  11.211  17.573  0.00  0.00    +0.000 A 
ATOM     21  S   UNL     1      -2.468  11.766  18.818  0.00  0.00    +0.000 S 
ENDBRANCH  16  17
ENDBRANCH  15  16
ENDBRANCH   3  15
TORSDOF 7
ENDMDL
MODEL 8
REMARK VINA RESULT:      -5.7      3.837      5.456
REMARK  Name = 
REMARK  7 active torsions:
REMARK  status: ('A' for Active; 'I' for Inactive)
REMARK    1  A    between atoms: C_2  and  C_3
REMARK    2  A    between atoms: C_3  and  N_4
REMARK    3  A    between atoms: C_7  and  C_8
REMARK    4  A    between atoms: C_8  and  O_9
REMARK    5  A    between atoms: N_12  and  C_13
REMARK    6  A    between atoms: C_13  and  C_14
REMARK    7  A    between atoms: C_14  and  C_15
REMARK                            x       y       z     vdW  Elec       q    Type
REMARK                         _______ _______ _______ _____ _____    ______ ____
ROOT
ATOM      1  O   UNL     1       1.439   5.097  20.240  0.00  0.00    +0.000 OA
ATOM      2  C   UNL     1       2.411   5.844  20.147  0.00  0.00    +0.000 C 
ATOM      3  N   UNL     1       2.351   7.191  20.427  0.00  0.00    +0.000 N 
ATOM      4  H   UNL     1       3.247   7.671  20.424  0.00  0.00    +0.000 HD
ENDROOT
BRANCH   2   5
ATOM      5  C   UNL     1       3.766   5.357  19.622  0.00  0.00    +0.000 C 
BRANCH   5   6
ATOM      6  N   UNL     1       3.869   5.346  18.130  0.00  0.00    +0.000 NA
ATOM      7  C   UNL     1       4.717   6.460  17.652  0.00  0.00    +0.000 C 
ATOM      8  C   UNL     1       4.894   6.411  16.130  0.00  0.00    +0.000 C 
ATOM      9  C   UNL     1       5.510   5.085  15.664  0.00  0.00    +0.000 C 
ATOM     10  C   UNL     1       4.658   3.936  16.211  0.00  0.00    +0.000 C 
ATOM     11  C   UNL     1       4.445   4.045  17.724  0.00  0.00    +0.000 C 
BRANCH   9  12
ATOM     12  C   UNL     1       6.984   4.945  16.071  0.00  0.00    +0.000 C 
BRANCH  12  13
ATOM     13  O   UNL     1       7.675   6.174  15.891  0.00  0.00    +0.000 OA
ATOM     14  H   UNL     1       7.017   6.889  15.914  0.00  0.00    +0.000 HD
ENDBRANCH  12  13
ENDBRANCH   9  12
ENDBRANCH   5   6
ENDBRANCH   2   5
BRANCH   3  15
ATOM     15  C   UNL     1       1.166   7.812  20.984  0.00  0.00    +0.000 C 
BRANCH  15  16
ATOM     16  C   UNL     1       0.910   9.187  20.372  0.00  0.00    +0.000 C 
BRANCH  16  17
ATOM     17  C   UNL     1       0.039  10.052  21.235  0.00  0.00    +0.000 A 
ATOM     18  C   UNL     1      -0.559  11.253  20.911  0.00  0.00    +0.000 A 
ATOM     19  C   UNL     1      -1.303  11.800  21.996  0.00  0.00    +0.000 A 
ATOM     20  C   UNL     1      -1.246  10.999  23.114  0.00  0.00    +0.000 A 
ATOM     21  S   UNL     1      -0.299   9.600  22.853  0.00  0.00    +0.000 S 
ENDBRANCH  16  17
ENDBRANCH  15  16
ENDBRANCH   3  15
TORSDOF 7
ENDMDL
MODEL 9
REMARK VINA RESULT:      -5.6      1.142      1.202
REMARK  Name = 
REMARK  7 active torsions:
REMARK  status: ('A' for Active; 'I' for Inactive)
REMARK    1  A    between atoms: C_2  and  C_3
REMARK    2  A    between atoms: C_3  and  N_4
REMARK    3  A    between atoms: C_7  and  C_8
REMARK    4  A    between atoms: C_8  and  O_9
REMARK    5  A    between atoms: N_12  and  C_13
REMARK    6  A    between atoms: C_13  and  C_14
REMARK    7  A    between atoms: C_14  and  C_15
REMARK                            x       y       z     vdW  Elec       q    Type
REMARK                         _______ _______ _______ _____ _____    ______ ____
ROOT
ATOM      1  O   UNL     1       2.228   8.000  17.885  0.00  0.00    +0.000 OA
ATOM      2  C   UNL     1       3.152   7.284  18.265  0.00  0.00    +0.000 C 
ATOM      3  N   UNL     1       3.065   6.471  19.374  0.00  0.00    +0.000 N 
ATOM      4  H   UNL     1       3.854   5.846  19.511  0.00  0.00    +0.000 HD
ENDROOT
BRANCH   2   5
ATOM      5  C   UNL     1       4.527   7.298  17.587  0.00  0.00    +0.000 C 
BRANCH   5   6
ATOM      6  N   UNL     1       5.136   5.941  17.426  0.00  0.00    +0.000 NA
ATOM      7  C   UNL     1       4.200   5.021  16.744  0.00  0.00    +0.000 C 
ATOM      8  C   UNL     1       4.844   3.651  16.501  0.00  0.00    +0.000 C 
ATOM      9  C   UNL     1       6.128   3.758  15.669  0.00  0.00    +0.000 C 
ATOM     10  C   UNL     1       7.067   4.755  16.351  0.00  0.00    +0.000 C 
ATOM     11  C   UNL     1       6.380   6.094  16.638  0.00  0.00    +0.000 C 
BRANCH   9  12
ATOM     12  C   UNL     1       5.853   4.143  14.208  0.00  0.00    +0.000 C 
BRANCH  12  13
ATOM     13  O   UNL     1       6.419   3.188  13.320  0.00  0.00    +0.000 OA
ATOM     14  H   UNL     1       6.255   3.495  12.412  0.00  0.00    +0.000 HD
ENDBRANCH  12  13
ENDBRANCH   9  12
ENDBRANCH   5   6
ENDBRANCH   2   5
BRANCH   3  15
ATOM     15  C   UNL     1       1.826   6.294  20.105  0.00  0.00    +0.000 C 
BRANCH  15  16
ATOM     16  C   UNL     1       1.773   4.938  20.804  0.00  0.00    +0.000 C 
BRANCH  16  17
ATOM     17  C   UNL     1       2.039   3.794  19.870  0.00  0.00    +0.000 A 
ATOM     18  C   UNL     1       1.241   3.329  18.843  0.00  0.00    +0.000 A 
ATOM     19  C   UNL     1       1.813   2.207  18.178  0.00  0.00    +0.000 A 
ATOM     20  C   UNL     1       3.027   1.850  18.720  0.00  0.00    +0.000 A 
ATOM     21  S   UNL     1       3.469   2.863  20.024  0.00  0.00    +0.000 S 
ENDBRANCH  16  17
ENDBRANCH  15  16
ENDBRANCH   3  15
TORSDOF 7
ENDMDL
