MODEL 1
REMARK VINA RESULT:      -8.0      0.000      0.000
REMARK  Name = 
REMARK  10 active torsions:
REMARK  status: ('A' for Active; 'I' for Inactive)
REMARK    1  A    between atoms: C_1  and  C_2
REMARK    2  A    between atoms: C_2  and  C_3
REMARK    3  A    between atoms: C_10  and  C_11
REMARK    4  A    between atoms: C_13  and  C_14
REMARK    5  A    between atoms: C_17  and  S_18
REMARK    6  A    between atoms: S_18  and  N_21
REMARK    7  A    between atoms: N_21  and  C_22
REMARK    8  A    between atoms: C_22  and  C_23
REMARK    9  A    between atoms: C_22  and  C_24
REMARK   10  A    between atoms: N_30  and  C_31
REMARK                            x       y       z     vdW  Elec       q    Type
REMARK                         _______ _______ _______ _____ _____    ______ ____
ROOT
ATOM      1  C   UNL     1      -3.303  13.171  21.537  0.00  0.00    +0.000 A 
ATOM      2  C   UNL     1      -2.644  12.560  20.458  0.00  0.00    +0.000 A 
ATOM      3  C   UNL     1      -1.609  11.628  20.695  0.00  0.00    +0.000 A 
ATOM      4  C   UNL     1      -1.227  11.324  22.003  0.00  0.00    +0.000 A 
ATOM      5  C   UNL     1      -1.882  11.955  23.084  0.00  0.00    +0.000 A 
ATOM      6  C   UNL     1      -2.905  12.866  22.831  0.00  0.00    +0.000 A 
ATOM      7  F   UNL     1      -3.520  13.446  23.872  0.00  0.00    +0.000 F 
ATOM      8  C   UNL     1      -0.188  10.365  21.922  0.00  0.00    +0.000 A 
ATOM      9  C   UNL     1       0.046  10.034  20.587  0.00  0.00    +0.000 A 
ATOM     10  N   UNL     1      -0.806  10.863  19.842  0.00  0.00    +0.000 N 
ENDROOT
BRANCH   9  11
ATOM     11  C   UNL     1       1.001   9.034  20.067  0.00  0.00    +0.000 A 
ATOM     12  C   UNL     1       1.557   9.139  18.787  0.00  0.00    +0.000 A 
ATOM     13  C   UNL     1       2.344   8.101  18.287  0.00  0.00    +0.000 A 
ATOM     14  C   UNL     1       2.590   7.002  19.098  0.00  0.00    +0.000 A 
ATOM     15  C   UNL     1       2.054   6.987  20.372  0.00  0.00    +0.000 A 
ATOM     16  N   UNL     1       1.237   7.963  20.856  0.00  0.00    +0.000 NA
BRANCH  14  17
ATOM     17  S   UNL     1       3.580   5.671  18.526  0.00  0.00    +0.000 S 
ATOM     18  O   UNL     1       2.965   5.168  17.319  0.00  0.00    +0.000 OA
ATOM     19  O   UNL     1       4.976   6.061  18.561  0.00  0.00    +0.000 OA
BRANCH  17  20
ATOM     20  N   UNL     1       3.341   4.486  19.694  0.00  0.00    +0.000 NA
ATOM     21  H   UNL     1       3.105   4.899  20.603  0.00  0.00    +0.000 HD
BRANCH  20  22
ATOM     22  C   UNL     1       2.597   3.223  19.350  0.00  0.00    +0.000 C 
ATOM     23  C   UNL     1       3.516   2.012  19.444  0.00  0.00    +0.000 C 
BRANCH  22  24
ATOM     24  C   UNL     1       1.344   3.017  20.241  0.00  0.00    +0.000 C 
ATOM     25  F   UNL     1       0.263   2.678  19.496  0.00  0.00    +0.000 F 
ATOM     26  F   UNL     1       1.545   2.008  21.122  0.00  0.00    +0.000 F 
ATOM     27  F   UNL     1       1.015   4.117  20.952  0.00  0.00    +0.000 F 
ENDBRANCH  22  24
ENDBRANCH  20  22
ENDBRANCH  17  20
ENDBRANCH  14  17
ENDBRANCH   9  11
BRANCH  10  28
ATOM     28  C   UNL     1      -0.874  10.878  18.381  0.00  0.00    +0.000 C 
ATOM     29  C   UNL     1      -2.003   9.995  17.786  0.00  0.00    +0.000 C 
ATOM     30  C   UNL     1      -2.418  11.165  16.881  0.00  0.00    +0.000 C 
ATOM     31  C   UNL     1      -1.606  12.112  17.778  0.00  0.00    +0.000 C 
ENDBRANCH  10  28
BRANCH   1  33
ATOM     32  C   UNL     1      -5.428  13.625  20.278  0.00  0.00    +0.000 C 
ATOM     33  C   UNL     1      -4.412  14.157  21.276  0.00  0.00    +0.000 C 
ENDBRANCH   1  33
BRANCH   8  34
ATOM     34  C   UNL     1       0.489   9.819  23.060  0.00  0.00    +0.000 C 
ATOM     35  N   UNL     1       1.064   9.401  23.978  0.00  0.00    +0.000 NA
ENDBRANCH   8  34
TORSDOF 8
ENDMDL
MODEL 2
REMARK VINA RESULT:      -7.9      2.815      3.018
REMARK  Name = 
REMARK  10 active torsions:
REMARK  status: ('A' for Active; 'I' for Inactive)
REMARK    1  A    between atoms: C_1  and  C_2
REMARK    2  A    between atoms: C_2  and  C_3
REMARK    3  A    between atoms: C_10  and  C_11
REMARK    4  A    between atoms: C_13  and  C_14
REMARK    5  A    between atoms: C_17  and  S_18
REMARK    6  A    between atoms: S_18  and  N_21
REMARK    7  A    between atoms: N_21  and  C_22
REMARK    8  A    between atoms: C_22  and  C_23
REMARK    9  A    between atoms: C_22  and  C_24
REMARK   10  A    between atoms: N_30  and  C_31
REMARK                            x       y       z     vdW  Elec       q    Type
REMARK                         _______ _______ _______ _____ _____    ______ ____
ROOT
ATOM      1  C   UNL     1      -3.132  12.529  21.733  0.00  0.00    +0.000 A 
ATOM      2  C   UNL     1      -2.564  12.037  20.548  0.00  0.00    +0.000 A 
ATOM      3  C   UNL     1      -1.405  11.230  20.598  0.00  0.00    +0.000 A 
ATOM      4  C   UNL     1      -0.813  10.933  21.827  0.00  0.00    +0.000 A 
ATOM      5  C   UNL     1      -1.380  11.444  23.015  0.00  0.00    +0.000 A 
ATOM      6  C   UNL     1      -2.527  12.232  22.946  0.00  0.00    +0.000 A 
ATOM      7  F   UNL     1      -3.053  12.700  24.088  0.00  0.00    +0.000 F 
ATOM      8  C   UNL     1       0.308  10.109  21.561  0.00  0.00    +0.000 A 
ATOM      9  C   UNL     1       0.391   9.852  20.193  0.00  0.00    +0.000 A 
ATOM     10  N   UNL     1      -0.646  10.595  19.609  0.00  0.00    +0.000 N 
ENDROOT
BRANCH   9  11
ATOM     11  C   UNL     1       1.373   8.991  19.501  0.00  0.00    +0.000 A 
ATOM     12  C   UNL     1       1.926   9.347  18.266  0.00  0.00    +0.000 A 
ATOM     13  C   UNL     1       2.742   8.441  17.586  0.00  0.00    +0.000 A 
ATOM     14  C   UNL     1       3.018   7.219  18.181  0.00  0.00    +0.000 A 
ATOM     15  C   UNL     1       2.483   6.953  19.428  0.00  0.00    +0.000 A 
ATOM     16  N   UNL     1       1.639   7.800  20.079  0.00  0.00    +0.000 NA
BRANCH  14  17
ATOM     17  S   UNL     1       4.045   6.044  17.378  0.00  0.00    +0.000 S 
ATOM     18  O   UNL     1       3.306   4.804  17.312  0.00  0.00    +0.000 OA
ATOM     19  O   UNL     1       4.628   6.644  16.194  0.00  0.00    +0.000 OA
BRANCH  17  20
ATOM     20  N   UNL     1       5.277   5.787  18.492  0.00  0.00    +0.000 NA
ATOM     21  H   UNL     1       5.057   5.003  19.118  0.00  0.00    +0.000 HD
BRANCH  20  22
ATOM     22  C   UNL     1       6.718   5.884  18.066  0.00  0.00    +0.000 C 
ATOM     23  C   UNL     1       7.638   5.927  19.279  0.00  0.00    +0.000 C 
BRANCH  22  24
ATOM     24  C   UNL     1       7.130   4.728  17.118  0.00  0.00    +0.000 C 
ATOM     25  F   UNL     1       7.452   5.195  15.886  0.00  0.00    +0.000 F 
ATOM     26  F   UNL     1       8.226   4.088  17.593  0.00  0.00    +0.000 F 
ATOM     27  F   UNL     1       6.159   3.804  16.958  0.00  0.00    +0.000 F 
ENDBRANCH  22  24
ENDBRANCH  20  22
ENDBRANCH  17  20
ENDBRANCH  14  17
ENDBRANCH   9  11
BRANCH  10  28
ATOM     28  C   UNL     1      -0.918  10.649  18.173  0.00  0.00    +0.000 C 
ATOM     29  C   UNL     1      -2.277  10.026  17.758  0.00  0.00    +0.000 C 
ATOM     30  C   UNL     1      -2.568  11.272  16.907  0.00  0.00    +0.000 C 
ATOM     31  C   UNL     1      -1.459  12.017  17.666  0.00  0.00    +0.000 C 
ENDBRANCH  10  28
BRANCH   1  33
ATOM     32  C   UNL     1      -4.080  14.784  21.167  0.00  0.00    +0.000 C 
ATOM     33  C   UNL     1      -4.374  13.381  21.672  0.00  0.00    +0.000 C 
ENDBRANCH   1  33
BRANCH   8  34
ATOM     34  C   UNL     1       1.195   9.612  22.570  0.00  0.00    +0.000 C 
ATOM     35  N   UNL     1       1.931   9.190  23.363  0.00  0.00    +0.000 NA
ENDBRANCH   8  34
TORSDOF 8
ENDMDL
MODEL 3
REMARK VINA RESULT:      -7.9      2.672      2.950
REMARK  Name = 
REMARK  10 active torsions:
REMARK  status: ('A' for Active; 'I' for Inactive)
REMARK    1  A    between atoms: C_1  and  C_2
REMARK    2  A    between atoms: C_2  and  C_3
REMARK    3  A    between atoms: C_10  and  C_11
REMARK    4  A    between atoms: C_13  and  C_14
REMARK    5  A    between atoms: C_17  and  S_18
REMARK    6  A    between atoms: S_18  and  N_21
REMARK    7  A    between atoms: N_21  and  C_22
REMARK    8  A    between atoms: C_22  and  C_23
REMARK    9  A    between atoms: C_22  and  C_24
REMARK   10  A    between atoms: N_30  and  C_31
REMARK                            x       y       z     vdW  Elec       q    Type
REMARK                         _______ _______ _______ _____ _____    ______ ____
ROOT
ATOM      1  C   UNL     1      -3.160  13.319  21.411  0.00  0.00    +0.000 A 
ATOM      2  C   UNL     1      -2.510  12.642  20.367  0.00  0.00    +0.000 A 
ATOM      3  C   UNL     1      -1.534  11.663  20.655  0.00  0.00    +0.000 A 
ATOM      4  C   UNL     1      -1.201  11.376  21.980  0.00  0.00    +0.000 A 
ATOM      5  C   UNL     1      -1.846  12.073  23.027  0.00  0.00    +0.000 A 
ATOM      6  C   UNL     1      -2.811  13.030  22.723  0.00  0.00    +0.000 A 
ATOM      7  F   UNL     1      -3.417  13.673  23.732  0.00  0.00    +0.000 F 
ATOM      8  C   UNL     1      -0.215  10.360  21.953  0.00  0.00    +0.000 A 
ATOM      9  C   UNL     1       0.032   9.979  20.634  0.00  0.00    +0.000 A 
ATOM     10  N   UNL     1      -0.755  10.830  19.845  0.00  0.00    +0.000 N 
ENDROOT
BRANCH   9  11
ATOM     11  C   UNL     1       0.942   8.912  20.165  0.00  0.00    +0.000 A 
ATOM     12  C   UNL     1       1.585   8.983  18.925  0.00  0.00    +0.000 A 
ATOM     13  C   UNL     1       2.325   7.892  18.465  0.00  0.00    +0.000 A 
ATOM     14  C   UNL     1       2.436   6.774  19.279  0.00  0.00    +0.000 A 
ATOM     15  C   UNL     1       1.819   6.791  20.516  0.00  0.00    +0.000 A 
ATOM     16  N   UNL     1       1.047   7.823  20.957  0.00  0.00    +0.000 NA
BRANCH  14  17
ATOM     17  S   UNL     1       3.361   5.376  18.759  0.00  0.00    +0.000 S 
ATOM     18  O   UNL     1       3.727   4.639  19.947  0.00  0.00    +0.000 OA
ATOM     19  O   UNL     1       2.683   4.738  17.648  0.00  0.00    +0.000 OA
BRANCH  17  20
ATOM     20  N   UNL     1       4.786   6.053  18.180  0.00  0.00    +0.000 NA
ATOM     21  H   UNL     1       5.139   6.780  18.813  0.00  0.00    +0.000 HD
BRANCH  20  22
ATOM     22  C   UNL     1       5.840   5.179  17.553  0.00  0.00    +0.000 C 
ATOM     23  C   UNL     1       5.886   5.387  16.045  0.00  0.00    +0.000 C 
BRANCH  22  24
ATOM     24  C   UNL     1       7.244   5.415  18.171  0.00  0.00    +0.000 C 
ATOM     25  F   UNL     1       8.124   4.467  17.764  0.00  0.00    +0.000 F 
ATOM     26  F   UNL     1       7.745   6.610  17.778  0.00  0.00    +0.000 F 
ATOM     27  F   UNL     1       7.234   5.404  19.522  0.00  0.00    +0.000 F 
ENDBRANCH  22  24
ENDBRANCH  20  22
ENDBRANCH  17  20
ENDBRANCH  14  17
ENDBRANCH   9  11
BRANCH  10  28
ATOM     28  C   UNL     1      -0.787  10.807  18.383  0.00  0.00    +0.000 C 
ATOM     29  C   UNL     1      -2.031  10.098  17.783  0.00  0.00    +0.000 C 
ATOM     30  C   UNL     1      -2.231  11.288  16.833  0.00  0.00    +0.000 C 
ATOM     31  C   UNL     1      -1.296  12.121  17.724  0.00  0.00    +0.000 C 
ENDBRANCH  10  28
BRANCH   1  33
ATOM     32  C   UNL     1      -5.483  13.735  20.554  0.00  0.00    +0.000 C 
ATOM     33  C   UNL     1      -4.207  14.356  21.096  0.00  0.00    +0.000 C 
ENDBRANCH   1  33
BRANCH   8  34
ATOM     34  C   UNL     1       0.404   9.810  23.122  0.00  0.00    +0.000 C 
ATOM     35  N   UNL     1       0.876   9.345  24.075  0.00  0.00    +0.000 NA
ENDBRANCH   8  34
TORSDOF 8
ENDMDL
MODEL 4
REMARK VINA RESULT:      -7.8      1.860      2.163
REMARK  Name = 
REMARK  10 active torsions:
REMARK  status: ('A' for Active; 'I' for Inactive)
REMARK    1  A    between atoms: C_1  and  C_2
REMARK    2  A    between atoms: C_2  and  C_3
REMARK    3  A    between atoms: C_10  and  C_11
REMARK    4  A    between atoms: C_13  and  C_14
REMARK    5  A    between atoms: C_17  and  S_18
REMARK    6  A    between atoms: S_18  and  N_21
REMARK    7  A    between atoms: N_21  and  C_22
REMARK    8  A    between atoms: C_22  and  C_23
REMARK    9  A    between atoms: C_22  and  C_24
REMARK   10  A    between atoms: N_30  and  C_31
REMARK                            x       y       z     vdW  Elec       q    Type
REMARK                         _______ _______ _______ _____ _____    ______ ____
ROOT
ATOM      1  C   UNL     1      -3.331  14.258  20.640  0.00  0.00    +0.000 A 
ATOM      2  C   UNL     1      -3.116  13.030  19.996  0.00  0.00    +0.000 A 
ATOM      3  C   UNL     1      -1.823  12.461  19.965  0.00  0.00    +0.000 A 
ATOM      4  C   UNL     1      -0.752  13.128  20.563  0.00  0.00    +0.000 A 
ATOM      5  C   UNL     1      -0.972  14.372  21.195  0.00  0.00    +0.000 A 
ATOM      6  C   UNL     1      -2.255  14.913  21.221  0.00  0.00    +0.000 A 
ATOM      7  F   UNL     1      -2.442  16.091  21.835  0.00  0.00    +0.000 F 
ATOM      8  C   UNL     1       0.397  12.320  20.381  0.00  0.00    +0.000 A 
ATOM      9  C   UNL     1       0.045  11.141  19.723  0.00  0.00    +0.000 A 
ATOM     10  N   UNL     1      -1.320  11.270  19.430  0.00  0.00    +0.000 N 
ENDROOT
BRANCH   9  11
ATOM     11  C   UNL     1       0.927  10.002  19.393  0.00  0.00    +0.000 A 
ATOM     12  C   UNL     1       1.569   9.901  18.153  0.00  0.00    +0.000 A 
ATOM     13  C   UNL     1       2.280   8.743  17.834  0.00  0.00    +0.000 A 
ATOM     14  C   UNL     1       2.366   7.734  18.782  0.00  0.00    +0.000 A 
ATOM     15  C   UNL     1       1.753   7.921  20.007  0.00  0.00    +0.000 A 
ATOM     16  N   UNL     1       1.008   9.018  20.314  0.00  0.00    +0.000 NA
BRANCH  14  17
ATOM     17  S   UNL     1       3.254   6.259  18.441  0.00  0.00    +0.000 S 
ATOM     18  O   UNL     1       3.797   6.385  17.107  0.00  0.00    +0.000 OA
ATOM     19  O   UNL     1       4.097   5.932  19.575  0.00  0.00    +0.000 OA
BRANCH  17  20
ATOM     20  N   UNL     1       2.044   5.098  18.339  0.00  0.00    +0.000 NA
ATOM     21  H   UNL     1       1.832   4.864  17.362  0.00  0.00    +0.000 HD
BRANCH  20  22
ATOM     22  C   UNL     1       2.026   3.935  19.296  0.00  0.00    +0.000 C 
ATOM     23  C   UNL     1       1.107   4.222  20.476  0.00  0.00    +0.000 C 
BRANCH  22  24
ATOM     24  C   UNL     1       1.614   2.609  18.604  0.00  0.00    +0.000 C 
ATOM     25  F   UNL     1       1.878   1.541  19.395  0.00  0.00    +0.000 F 
ATOM     26  F   UNL     1       0.283   2.594  18.355  0.00  0.00    +0.000 F 
ATOM     27  F   UNL     1       2.249   2.408  17.429  0.00  0.00    +0.000 F 
ENDBRANCH  22  24
ENDBRANCH  20  22
ENDBRANCH  17  20
ENDBRANCH  14  17
ENDBRANCH   9  11
BRANCH  10  28
ATOM     28  C   UNL     1      -2.109  10.271  18.710  0.00  0.00    +0.000 C 
ATOM     29  C   UNL     1      -3.450  10.806  18.140  0.00  0.00    +0.000 C 
ATOM     30  C   UNL     1      -3.120  10.147  16.792  0.00  0.00    +0.000 C 
ATOM     31  C   UNL     1      -1.657  10.020  17.243  0.00  0.00    +0.000 C 
ENDBRANCH  10  28
BRANCH   1  33
ATOM     32  C   UNL     1      -5.784  13.838  20.308  0.00  0.00    +0.000 C 
ATOM     33  C   UNL     1      -4.715  14.853  20.676  0.00  0.00    +0.000 C 
ENDBRANCH   1  33
BRANCH   8  34
ATOM     34  C   UNL     1       1.708  12.676  20.834  0.00  0.00    +0.000 C 
ATOM     35  N   UNL     1       2.785  12.944  21.176  0.00  0.00    +0.000 NA
ENDBRANCH   8  34
TORSDOF 8
ENDMDL
MODEL 5
REMARK VINA RESULT:      -7.7      2.803      3.179
REMARK  Name = 
REMARK  10 active torsions:
REMARK  status: ('A' for Active; 'I' for Inactive)
REMARK    1  A    between atoms: C_1  and  C_2
REMARK    2  A    between atoms: C_2  and  C_3
REMARK    3  A    between atoms: C_10  and  C_11
REMARK    4  A    between atoms: C_13  and  C_14
REMARK    5  A    between atoms: C_17  and  S_18
REMARK    6  A    between atoms: S_18  and  N_21
REMARK    7  A    between atoms: N_21  and  C_22
REMARK    8  A    between atoms: C_22  and  C_23
REMARK    9  A    between atoms: C_22  and  C_24
REMARK   10  A    between atoms: N_30  and  C_31
REMARK                            x       y       z     vdW  Elec       q    Type
REMARK                         _______ _______ _______ _____ _____    ______ ____
ROOT
ATOM      1  C   UNL     1      -3.264  13.098  21.551  0.00  0.00    +0.000 A 
ATOM      2  C   UNL     1      -2.639  12.465  20.465  0.00  0.00    +0.000 A 
ATOM      3  C   UNL     1      -1.596  11.539  20.687  0.00  0.00    +0.000 A 
ATOM      4  C   UNL     1      -1.173  11.261  21.988  0.00  0.00    +0.000 A 
ATOM      5  C   UNL     1      -1.795  11.914  23.076  0.00  0.00    +0.000 A 
ATOM      6  C   UNL     1      -2.826  12.818  22.838  0.00  0.00    +0.000 A 
ATOM      7  F   UNL     1      -3.408  13.419  23.886  0.00  0.00    +0.000 F 
ATOM      8  C   UNL     1      -0.136  10.301  21.894  0.00  0.00    +0.000 A 
ATOM      9  C   UNL     1       0.056   9.944  20.560  0.00  0.00    +0.000 A 
ATOM     10  N   UNL     1      -0.819  10.757  19.825  0.00  0.00    +0.000 N 
ENDROOT
BRANCH   9  11
ATOM     11  C   UNL     1       0.995   8.933  20.030  0.00  0.00    +0.000 A 
ATOM     12  C   UNL     1       1.612   9.081  18.783  0.00  0.00    +0.000 A 
ATOM     13  C   UNL     1       2.382   8.039  18.263  0.00  0.00    +0.000 A 
ATOM     14  C   UNL     1       2.549   6.892  19.025  0.00  0.00    +0.000 A 
ATOM     15  C   UNL     1       1.955   6.833  20.272  0.00  0.00    +0.000 A 
ATOM     16  N   UNL     1       1.154   7.815  20.770  0.00  0.00    +0.000 NA
BRANCH  14  17
ATOM     17  S   UNL     1       3.513   5.552  18.429  0.00  0.00    +0.000 S 
ATOM     18  O   UNL     1       4.472   5.224  19.459  0.00  0.00    +0.000 OA
ATOM     19  O   UNL     1       2.638   4.547  17.857  0.00  0.00    +0.000 OA
BRANCH  17  20
ATOM     20  N   UNL     1       4.399   6.244  17.179  0.00  0.00    +0.000 NA
ATOM     21  H   UNL     1       4.470   7.262  17.290  0.00  0.00    +0.000 HD
BRANCH  20  22
ATOM     22  C   UNL     1       5.640   5.566  16.663  0.00  0.00    +0.000 C 
ATOM     23  C   UNL     1       5.588   5.425  15.147  0.00  0.00    +0.000 C 
BRANCH  22  24
ATOM     24  C   UNL     1       6.935   6.304  17.091  0.00  0.00    +0.000 C 
ATOM     25  F   UNL     1       6.663   7.560  17.524  0.00  0.00    +0.000 F 
ATOM     26  F   UNL     1       7.538   5.658  18.117  0.00  0.00    +0.000 F 
ATOM     27  F   UNL     1       7.838   6.409  16.092  0.00  0.00    +0.000 F 
ENDBRANCH  22  24
ENDBRANCH  20  22
ENDBRANCH  17  20
ENDBRANCH  14  17
ENDBRANCH   9  11
BRANCH  10  28
ATOM     28  C   UNL     1      -0.933  10.743  18.367  0.00  0.00    +0.000 C 
ATOM     29  C   UNL     1      -2.182   9.994  17.832  0.00  0.00    +0.000 C 
ATOM     30  C   UNL     1      -2.478  11.183  16.905  0.00  0.00    +0.000 C 
ATOM     31  C   UNL     1      -1.525  12.043  17.749  0.00  0.00    +0.000 C 
ENDBRANCH  10  28
BRANCH   1  33
ATOM     32  C   UNL     1      -3.876  15.506  21.188  0.00  0.00    +0.000 C 
ATOM     33  C   UNL     1      -4.382  14.078  21.305  0.00  0.00    +0.000 C 
ENDBRANCH   1  33
BRANCH   8  34
ATOM     34  C   UNL     1       0.577   9.778  23.021  0.00  0.00    +0.000 C 
ATOM     35  N   UNL     1       1.186   9.364  23.919  0.00  0.00    +0.000 NA
ENDBRANCH   8  34
TORSDOF 8
ENDMDL
MODEL 6
REMARK VINA RESULT:      -7.6      2.437      2.766
REMARK  Name = 
REMARK  10 active torsions:
REMARK  status: ('A' for Active; 'I' for Inactive)
REMARK    1  A    between atoms: C_1  and  C_2
REMARK    2  A    between atoms: C_2  and  C_3
REMARK    3  A    between atoms: C_10  and  C_11
REMARK    4  A    between atoms: C_13  and  C_14
REMARK    5  A    between atoms: C_17  and  S_18
REMARK    6  A    between atoms: S_18  and  N_21
REMARK    7  A    between atoms: N_21  and  C_22
REMARK    8  A    between atoms: C_22  and  C_23
REMARK    9  A    between atoms: C_22  and  C_24
REMARK   10  A    between atoms: N_30  and  C_31
REMARK                            x       y       z     vdW  Elec       q    Type
REMARK                         _______ _______ _______ _____ _____    ______ ____
ROOT
ATOM      1  C   UNL     1      -3.318  13.218  21.424  0.00  0.00    +0.000 A 
ATOM      2  C   UNL     1      -2.665  12.547  20.378  0.00  0.00    +0.000 A 
ATOM      3  C   UNL     1      -1.658  11.598  20.663  0.00  0.00    +0.000 A 
ATOM      4  C   UNL     1      -1.300  11.335  21.986  0.00  0.00    +0.000 A 
ATOM      5  C   UNL     1      -1.949  12.026  23.034  0.00  0.00    +0.000 A 
ATOM      6  C   UNL     1      -2.944  12.953  22.733  0.00  0.00    +0.000 A 
ATOM      7  F   UNL     1      -3.553  13.591  23.744  0.00  0.00    +0.000 F 
ATOM      8  C   UNL     1      -0.287  10.345  21.956  0.00  0.00    +0.000 A 
ATOM      9  C   UNL     1      -0.047   9.956  20.638  0.00  0.00    +0.000 A 
ATOM     10  N   UNL     1      -0.868  10.778  19.851  0.00  0.00    +0.000 N 
ENDROOT
BRANCH   9  11
ATOM     11  C   UNL     1       0.885   8.910  20.169  0.00  0.00    +0.000 A 
ATOM     12  C   UNL     1       1.560   9.016  18.948  0.00  0.00    +0.000 A 
ATOM     13  C   UNL     1       2.322   7.943  18.482  0.00  0.00    +0.000 A 
ATOM     14  C   UNL     1       2.423   6.807  19.272  0.00  0.00    +0.000 A 
ATOM     15  C   UNL     1       1.773   6.789  20.492  0.00  0.00    +0.000 A 
ATOM     16  N   UNL     1       0.980   7.803  20.937  0.00  0.00    +0.000 NA
BRANCH  14  17
ATOM     17  S   UNL     1       3.374   5.431  18.743  0.00  0.00    +0.000 S 
ATOM     18  O   UNL     1       4.080   4.929  19.901  0.00  0.00    +0.000 OA
ATOM     19  O   UNL     1       2.551   4.564  17.922  0.00  0.00    +0.000 OA
BRANCH  17  20
ATOM     20  N   UNL     1       4.542   6.128  17.757  0.00  0.00    +0.000 NA
ATOM     21  H   UNL     1       5.369   6.407  18.297  0.00  0.00    +0.000 HD
BRANCH  20  22
ATOM     22  C   UNL     1       4.828   5.551  16.396  0.00  0.00    +0.000 C 
ATOM     23  C   UNL     1       5.392   6.617  15.466  0.00  0.00    +0.000 C 
BRANCH  22  24
ATOM     24  C   UNL     1       5.786   4.333  16.462  0.00  0.00    +0.000 C 
ATOM     25  F   UNL     1       5.095   3.169  16.541  0.00  0.00    +0.000 F 
ATOM     26  F   UNL     1       6.547   4.262  15.343  0.00  0.00    +0.000 F 
ATOM     27  F   UNL     1       6.624   4.378  17.520  0.00  0.00    +0.000 F 
ENDBRANCH  22  24
ENDBRANCH  20  22
ENDBRANCH  17  20
ENDBRANCH  14  17
ENDBRANCH   9  11
BRANCH  10  28
ATOM     28  C   UNL     1      -0.919  10.737  18.390  0.00  0.00    +0.000 C 
ATOM     29  C   UNL     1      -2.142   9.974  17.815  0.00  0.00    +0.000 C 
ATOM     30  C   UNL     1      -2.401  11.145  16.856  0.00  0.00    +0.000 C 
ATOM     31  C   UNL     1      -1.487  12.024  17.724  0.00  0.00    +0.000 C 
ENDBRANCH  10  28
BRANCH   1  33
ATOM     32  C   UNL     1      -5.685  13.557  20.656  0.00  0.00    +0.000 C 
ATOM     33  C   UNL     1      -4.397  14.223  21.111  0.00  0.00    +0.000 C 
ENDBRANCH   1  33
BRANCH   8  34
ATOM     34  C   UNL     1       0.362   9.826  23.123  0.00  0.00    +0.000 C 
ATOM     35  N   UNL     1       0.903   9.379  24.048  0.00  0.00    +0.000 NA
ENDBRANCH   8  34
TORSDOF 8
ENDMDL
MODEL 7
REMARK VINA RESULT:      -7.5      2.730      2.952
REMARK  Name = 
REMARK  10 active torsions:
REMARK  status: ('A' for Active; 'I' for Inactive)
REMARK    1  A    between atoms: C_1  and  C_2
REMARK    2  A    between atoms: C_2  and  C_3
REMARK    3  A    between atoms: C_10  and  C_11
REMARK    4  A    between atoms: C_13  and  C_14
REMARK    5  A    between atoms: C_17  and  S_18
REMARK    6  A    between atoms: S_18  and  N_21
REMARK    7  A    between atoms: N_21  and  C_22
REMARK    8  A    between atoms: C_22  and  C_23
REMARK    9  A    between atoms: C_22  and  C_24
REMARK   10  A    between atoms: N_30  and  C_31
REMARK                            x       y       z     vdW  Elec       q    Type
REMARK                         _______ _______ _______ _____ _____    ______ ____
ROOT
ATOM      1  C   UNL     1      -3.107  12.881  21.691  0.00  0.00    +0.000 A 
ATOM      2  C   UNL     1      -2.532  12.350  20.526  0.00  0.00    +0.000 A 
ATOM      3  C   UNL     1      -1.422  11.481  20.614  0.00  0.00    +0.000 A 
ATOM      4  C   UNL     1      -0.884  11.160  21.862  0.00  0.00    +0.000 A 
ATOM      5  C   UNL     1      -1.457  11.710  23.030  0.00  0.00    +0.000 A 
ATOM      6  C   UNL     1      -2.556  12.559  22.923  0.00  0.00    +0.000 A 
ATOM      7  F   UNL     1      -3.089  13.063  24.046  0.00  0.00    +0.000 F 
ATOM      8  C   UNL     1       0.197  10.273  21.634  0.00  0.00    +0.000 A 
ATOM      9  C   UNL     1       0.306  10.004  20.270  0.00  0.00    +0.000 A 
ATOM     10  N   UNL     1      -0.670  10.799  19.652  0.00  0.00    +0.000 N 
ENDROOT
BRANCH   9  11
ATOM     11  C   UNL     1       1.259   9.085  19.612  0.00  0.00    +0.000 A 
ATOM     12  C   UNL     1       1.836   9.384  18.373  0.00  0.00    +0.000 A 
ATOM     13  C   UNL     1       2.621   8.427  17.727  0.00  0.00    +0.000 A 
ATOM     14  C   UNL     1       2.843   7.212  18.358  0.00  0.00    +0.000 A 
ATOM     15  C   UNL     1       2.287   7.003  19.607  0.00  0.00    +0.000 A 
ATOM     16  N   UNL     1       1.472   7.901  20.226  0.00  0.00    +0.000 NA
BRANCH  14  17
ATOM     17  S   UNL     1       3.829   5.975  17.599  0.00  0.00    +0.000 S 
ATOM     18  O   UNL     1       3.057   4.753  17.598  0.00  0.00    +0.000 OA
ATOM     19  O   UNL     1       4.413   6.505  16.383  0.00  0.00    +0.000 OA
BRANCH  17  20
ATOM     20  N   UNL     1       5.067   5.736  18.710  0.00  0.00    +0.000 NA
ATOM     21  H   UNL     1       4.702   5.661  19.666  0.00  0.00    +0.000 HD
BRANCH  20  22
ATOM     22  C   UNL     1       6.210   4.811  18.385  0.00  0.00    +0.000 C 
ATOM     23  C   UNL     1       6.182   4.414  16.914  0.00  0.00    +0.000 C 
BRANCH  22  24
ATOM     24  C   UNL     1       7.587   5.426  18.749  0.00  0.00    +0.000 C 
ATOM     25  F   UNL     1       7.645   5.754  20.064  0.00  0.00    +0.000 F 
ATOM     26  F   UNL     1       8.583   4.536  18.524  0.00  0.00    +0.000 F 
ATOM     27  F   UNL     1       7.871   6.541  18.042  0.00  0.00    +0.000 F 
ENDBRANCH  22  24
ENDBRANCH  20  22
ENDBRANCH  17  20
ENDBRANCH  14  17
ENDBRANCH   9  11
BRANCH  10  28
ATOM     28  C   UNL     1      -0.896  10.858  18.208  0.00  0.00    +0.000 C 
ATOM     29  C   UNL     1      -2.044   9.945  17.704  0.00  0.00    +0.000 C 
ATOM     30  C   UNL     1      -2.603  11.123  16.892  0.00  0.00    +0.000 C 
ATOM     31  C   UNL     1      -1.739  12.076  17.733  0.00  0.00    +0.000 C 
ENDBRANCH  10  28
BRANCH   1  33
ATOM     32  C   UNL     1      -3.908  15.261  21.747  0.00  0.00    +0.000 C 
ATOM     33  C   UNL     1      -4.297  13.800  21.589  0.00  0.00    +0.000 C 
ENDBRANCH   1  33
BRANCH   8  34
ATOM     34  C   UNL     1       1.025   9.735  22.672  0.00  0.00    +0.000 C 
ATOM     35  N   UNL     1       1.678   9.319  23.537  0.00  0.00    +0.000 NA
ENDBRANCH   8  34
TORSDOF 8
ENDMDL
MODEL 8
REMARK VINA RESULT:      -7.5      1.907      2.261
REMARK  Name = 
REMARK  10 active torsions:
REMARK  status: ('A' for Active; 'I' for Inactive)
REMARK    1  A    between atoms: C_1  and  C_2
REMARK    2  A    between atoms: C_2  and  C_3
REMARK    3  A    between atoms: C_10  and  C_11
REMARK    4  A    between atoms: C_13  and  C_14
REMARK    5  A    between atoms: C_17  and  S_18
REMARK    6  A    between atoms: S_18  and  N_21
REMARK    7  A    between atoms: N_21  and  C_22
REMARK    8  A    between atoms: C_22  and  C_23
REMARK    9  A    between atoms: C_22  and  C_24
REMARK   10  A    between atoms: N_30  and  C_31
REMARK                            x       y       z     vdW  Elec       q    Type
REMARK                         _______ _______ _______ _____ _____    ______ ____
ROOT
ATOM      1  C   UNL     1      -4.156  13.489  20.092  0.00  0.00    +0.000 A 
ATOM      2  C   UNL     1      -3.729  12.334  19.420  0.00  0.00    +0.000 A 
ATOM      3  C   UNL     1      -2.384  11.912  19.518  0.00  0.00    +0.000 A 
ATOM      4  C   UNL     1      -1.472  12.654  20.272  0.00  0.00    +0.000 A 
ATOM      5  C   UNL     1      -1.905  13.825  20.933  0.00  0.00    +0.000 A 
ATOM      6  C   UNL     1      -3.237  14.221  20.830  0.00  0.00    +0.000 A 
ATOM      7  F   UNL     1      -3.627  15.331  21.472  0.00  0.00    +0.000 F 
ATOM      8  C   UNL     1      -0.225  11.988  20.192  0.00  0.00    +0.000 A 
ATOM      9  C   UNL     1      -0.361  10.820  19.441  0.00  0.00    +0.000 A 
ATOM     10  N   UNL     1      -1.690  10.818  18.991  0.00  0.00    +0.000 N 
ENDROOT
BRANCH   9  11
ATOM     11  C   UNL     1       0.679   9.807  19.164  0.00  0.00    +0.000 A 
ATOM     12  C   UNL     1       1.321   9.728  17.924  0.00  0.00    +0.000 A 
ATOM     13  C   UNL     1       2.195   8.671  17.663  0.00  0.00    +0.000 A 
ATOM     14  C   UNL     1       2.435   7.744  18.666  0.00  0.00    +0.000 A 
ATOM     15  C   UNL     1       1.808   7.911  19.887  0.00  0.00    +0.000 A 
ATOM     16  N   UNL     1       0.909   8.903  20.140  0.00  0.00    +0.000 NA
BRANCH  14  17
ATOM     17  S   UNL     1       3.531   6.399  18.400  0.00  0.00    +0.000 S 
ATOM     18  O   UNL     1       4.441   6.791  17.348  0.00  0.00    +0.000 OA
ATOM     19  O   UNL     1       4.012   5.910  19.677  0.00  0.00    +0.000 OA
BRANCH  17  20
ATOM     20  N   UNL     1       2.536   5.221  17.732  0.00  0.00    +0.000 NA
ATOM     21  H   UNL     1       1.870   5.627  17.066  0.00  0.00    +0.000 HD
BRANCH  20  22
ATOM     22  C   UNL     1       3.104   3.883  17.337  0.00  0.00    +0.000 C 
ATOM     23  C   UNL     1       4.608   3.845  17.574  0.00  0.00    +0.000 C 
BRANCH  22  24
ATOM     24  C   UNL     1       2.413   2.708  18.078  0.00  0.00    +0.000 C 
ATOM     25  F   UNL     1       2.876   2.589  19.347  0.00  0.00    +0.000 F 
ATOM     26  F   UNL     1       1.078   2.919  18.166  0.00  0.00    +0.000 F 
ATOM     27  F   UNL     1       2.597   1.518  17.468  0.00  0.00    +0.000 F 
ENDBRANCH  22  24
ENDBRANCH  20  22
ENDBRANCH  17  20
ENDBRANCH  14  17
ENDBRANCH   9  11
BRANCH  10  28
ATOM     28  C   UNL     1      -2.271   9.785  18.134  0.00  0.00    +0.000 C 
ATOM     29  C   UNL     1      -3.771  10.001  17.801  0.00  0.00    +0.000 C 
ATOM     30  C   UNL     1      -3.464   9.732  16.321  0.00  0.00    +0.000 C 
ATOM     31  C   UNL     1      -1.973   9.956  16.617  0.00  0.00    +0.000 C 
ENDBRANCH  10  28
BRANCH   1  33
ATOM     32  C   UNL     1      -6.434  13.412  21.148  0.00  0.00    +0.000 C 
ATOM     33  C   UNL     1      -5.595  13.927  19.990  0.00  0.00    +0.000 C 
ENDBRANCH   1  33
BRANCH   8  34
ATOM     34  C   UNL     1       0.976  12.456  20.817  0.00  0.00    +0.000 C 
ATOM     35  N   UNL     1       1.940  12.870  21.315  0.00  0.00    +0.000 NA
ENDBRANCH   8  34
TORSDOF 8
ENDMDL
MODEL 9
REMARK VINA RESULT:      -7.5      2.958      3.399
REMARK  Name = 
REMARK  10 active torsions:
REMARK  status: ('A' for Active; 'I' for Inactive)
REMARK    1  A    between atoms: C_1  and  C_2
REMARK    2  A    between atoms: C_2  and  C_3
REMARK    3  A    between atoms: C_10  and  C_11
REMARK    4  A    between atoms: C_13  and  C_14
REMARK    5  A    between atoms: C_17  and  S_18
REMARK    6  A    between atoms: S_18  and  N_21
REMARK    7  A    between atoms: N_21  and  C_22
REMARK    8  A    between atoms: C_22  and  C_23
REMARK    9  A    between atoms: C_22  and  C_24
REMARK   10  A    between atoms: N_30  and  C_31
REMARK                            x       y       z     vdW  Elec       q    Type
REMARK                         _______ _______ _______ _____ _____    ______ ____
ROOT
ATOM      1  C   UNL     1      -3.826  13.609  20.120  0.00  0.00    +0.000 A 
ATOM      2  C   UNL     1      -3.477  12.408  19.484  0.00  0.00    +0.000 A 
ATOM      3  C   UNL     1      -2.153  11.923  19.561  0.00  0.00    +0.000 A 
ATOM      4  C   UNL     1      -1.183  12.646  20.258  0.00  0.00    +0.000 A 
ATOM      5  C   UNL     1      -1.537  13.862  20.883  0.00  0.00    +0.000 A 
ATOM      6  C   UNL     1      -2.849  14.321  20.802  0.00  0.00    +0.000 A 
ATOM      7  F   UNL     1      -3.165  15.474  21.410  0.00  0.00    +0.000 F 
ATOM      8  C   UNL     1       0.027  11.915  20.170  0.00  0.00    +0.000 A 
ATOM      9  C   UNL     1      -0.190  10.727  19.470  0.00  0.00    +0.000 A 
ATOM     10  N   UNL     1      -1.530  10.775  19.059  0.00  0.00    +0.000 N 
ENDROOT
BRANCH   9  11
ATOM     11  C   UNL     1       0.789   9.652  19.206  0.00  0.00    +0.000 A 
ATOM     12  C   UNL     1       1.399   9.500  17.956  0.00  0.00    +0.000 A 
ATOM     13  C   UNL     1       2.210   8.391  17.711  0.00  0.00    +0.000 A 
ATOM     14  C   UNL     1       2.424   7.484  18.739  0.00  0.00    +0.000 A 
ATOM     15  C   UNL     1       1.834   7.723  19.966  0.00  0.00    +0.000 A 
ATOM     16  N   UNL     1       0.994   8.768  20.206  0.00  0.00    +0.000 NA
BRANCH  14  17
ATOM     17  S   UNL     1       3.442   6.076  18.494  0.00  0.00    +0.000 S 
ATOM     18  O   UNL     1       4.212   5.889  19.703  0.00  0.00    +0.000 OA
ATOM     19  O   UNL     1       2.650   5.003  17.925  0.00  0.00    +0.000 OA
BRANCH  17  20
ATOM     20  N   UNL     1       4.535   6.592  17.327  0.00  0.00    +0.000 NA
ATOM     21  H   UNL     1       5.118   7.362  17.674  0.00  0.00    +0.000 HD
BRANCH  20  22
ATOM     22  C   UNL     1       5.248   5.588  16.459  0.00  0.00    +0.000 C 
ATOM     23  C   UNL     1       5.454   6.139  15.054  0.00  0.00    +0.000 C 
BRANCH  22  24
ATOM     24  C   UNL     1       6.605   5.144  17.067  0.00  0.00    +0.000 C 
ATOM     25  F   UNL     1       6.420   4.367  18.163  0.00  0.00    +0.000 F 
ATOM     26  F   UNL     1       7.307   4.403  16.176  0.00  0.00    +0.000 F 
ATOM     27  F   UNL     1       7.384   6.183  17.435  0.00  0.00    +0.000 F 
ENDBRANCH  22  24
ENDBRANCH  20  22
ENDBRANCH  17  20
ENDBRANCH  14  17
ENDBRANCH   9  11
BRANCH  10  28
ATOM     28  C   UNL     1      -2.187   9.740  18.261  0.00  0.00    +0.000 C 
ATOM     29  C   UNL     1      -3.673  10.039  17.929  0.00  0.00    +0.000 C 
ATOM     30  C   UNL     1      -3.401   9.674  16.462  0.00  0.00    +0.000 C 
ATOM     31  C   UNL     1      -1.895   9.813  16.735  0.00  0.00    +0.000 C 
ENDBRANCH  10  28
BRANCH   1  33
ATOM     32  C   UNL     1      -6.228  13.168  20.707  0.00  0.00    +0.000 C 
ATOM     33  C   UNL     1      -5.244  14.115  20.041  0.00  0.00    +0.000 C 
ENDBRANCH   1  33
BRANCH   8  34
ATOM     34  C   UNL     1       1.268  12.345  20.741  0.00  0.00    +0.000 C 
ATOM     35  N   UNL     1       2.285  12.660  21.204  0.00  0.00    +0.000 NA
ENDBRANCH   8  34
TORSDOF 8
ENDMDL
