MODEL 1
REMARK VINA RESULT:      -9.9      0.000      0.000
REMARK  Name = 
REMARK  3 active torsions:
REMARK  status: ('A' for Active; 'I' for Inactive)
REMARK    1  A    between atoms: C_2  and  C_12
REMARK    2  A    between atoms: N_3  and  C_4
REMARK    3  A    between atoms: C_15  and  C_16
REMARK                            x       y       z     vdW  Elec       q    Type
REMARK                         _______ _______ _______ _____ _____    ______ ____
ROOT
ATOM      1  C   UNL     1       6.227   4.557  18.968  0.00  0.00    +0.000 C 
ATOM      2  C   UNL     1       5.239   5.738  19.004  0.00  0.00    +0.000 C 
ATOM      3  C   UNL     1       3.967   5.042  19.301  0.00  0.00    +0.000 A 
ATOM      4  C   UNL     1       2.657   5.510  19.432  0.00  0.00    +0.000 A 
ATOM      5  C   UNL     1       1.705   4.531  19.778  0.00  0.00    +0.000 A 
ATOM      6  C   UNL     1       2.090   3.202  19.966  0.00  0.00    +0.000 A 
ATOM      7  N   UNL     1       3.351   2.755  19.820  0.00  0.00    +0.000 NA
ATOM      8  C   UNL     1       4.237   3.699  19.491  0.00  0.00    +0.000 A 
ATOM      9  O   UNL     1       5.554   3.335  19.298  0.00  0.00    +0.000 OA
ENDROOT
BRANCH   4  10
ATOM     10  C   UNL     1       2.230   6.917  19.209  0.00  0.00    +0.000 A 
ATOM     11  C   UNL     1       2.392   7.537  17.938  0.00  0.00    +0.000 A 
ATOM     12  C   UNL     1       2.072   8.885  17.712  0.00  0.00    +0.000 A 
ATOM     13  C   UNL     1       1.559   9.605  18.764  0.00  0.00    +0.000 A 
ATOM     14  C   UNL     1       1.377   9.029  19.995  0.00  0.00    +0.000 A 
ATOM     15  C   UNL     1       1.713   7.713  20.247  0.00  0.00    +0.000 A 
ATOM     16  O   UNL     1       0.863   9.901  20.904  0.00  0.00    +0.000 OA
ATOM     17  C   UNL     1       0.759  11.098  20.105  0.00  0.00    +0.000 C 
ATOM     18  O   UNL     1       1.196  10.914  18.741  0.00  0.00    +0.000 OA
ENDBRANCH   4  10
BRANCH   1  20
ATOM     19  O   UNL     1       8.152   4.334  17.542  0.00  0.00    +0.000 OA
ATOM     20  C   UNL     1       6.935   4.489  17.603  0.00  0.00    +0.000 C 
ATOM     21  N   UNL     1       6.081   4.572  16.510  0.00  0.00    +0.000 N 
ATOM     22  H   UNL     1       5.118   4.826  16.722  0.00  0.00    +0.000 HD
BRANCH  21  23
ATOM     23  C   UNL     1       6.471   4.544  15.149  0.00  0.00    +0.000 A 
ATOM     24  C   UNL     1       7.513   5.329  14.636  0.00  0.00    +0.000 A 
ATOM     25  C   UNL     1       7.812   5.325  13.271  0.00  0.00    +0.000 A 
ATOM     26  C   UNL     1       7.080   4.526  12.408  0.00  0.00    +0.000 A 
ATOM     27  F   UNL     1       7.364   4.557  11.100  0.00  0.00    +0.000 F 
ATOM     28  C   UNL     1       6.064   3.708  12.900  0.00  0.00    +0.000 A 
ATOM     29 CL   UNL     1       5.150   2.715  11.834  0.00  0.00    +0.000 Cl
ATOM     30  C   UNL     1       5.766   3.707  14.273  0.00  0.00    +0.000 A 
ENDBRANCH  21  23
ENDBRANCH   1  20
TORSDOF 3
ENDMDL
MODEL 2
REMARK VINA RESULT:      -9.7      0.990      1.334
REMARK  Name = 
REMARK  3 active torsions:
REMARK  status: ('A' for Active; 'I' for Inactive)
REMARK    1  A    between atoms: C_2  and  C_12
REMARK    2  A    between atoms: N_3  and  C_4
REMARK    3  A    between atoms: C_15  and  C_16
REMARK                            x       y       z     vdW  Elec       q    Type
REMARK                         _______ _______ _______ _____ _____    ______ ____
ROOT
ATOM      1  C   UNL     1       6.093   4.669  19.030  0.00  0.00    +0.000 C 
ATOM      2  C   UNL     1       5.104   5.850  19.073  0.00  0.00    +0.000 C 
ATOM      3  C   UNL     1       3.853   5.166  19.471  0.00  0.00    +0.000 A 
ATOM      4  C   UNL     1       2.552   5.638  19.657  0.00  0.00    +0.000 A 
ATOM      5  C   UNL     1       1.624   4.672  20.097  0.00  0.00    +0.000 A 
ATOM      6  C   UNL     1       2.024   3.354  20.319  0.00  0.00    +0.000 A 
ATOM      7  N   UNL     1       3.276   2.902  20.120  0.00  0.00    +0.000 NA
ATOM      8  C   UNL     1       4.138   3.832  19.701  0.00  0.00    +0.000 A 
ATOM      9  O   UNL     1       5.443   3.462  19.449  0.00  0.00    +0.000 OA
ENDROOT
BRANCH   4  10
ATOM     10  C   UNL     1       2.108   7.033  19.399  0.00  0.00    +0.000 A 
ATOM     11  C   UNL     1       2.234   7.613  18.106  0.00  0.00    +0.000 A 
ATOM     12  C   UNL     1       1.897   8.951  17.845  0.00  0.00    +0.000 A 
ATOM     13  C   UNL     1       1.404   9.700  18.887  0.00  0.00    +0.000 A 
ATOM     14  C   UNL     1       1.256   9.163  20.139  0.00  0.00    +0.000 A 
ATOM     15  C   UNL     1       1.609   7.858  20.425  0.00  0.00    +0.000 A 
ATOM     16  O   UNL     1       0.756  10.060  21.032  0.00  0.00    +0.000 OA
ATOM     17  C   UNL     1       0.624  11.229  20.198  0.00  0.00    +0.000 C 
ATOM     18  O   UNL     1       1.030  11.005  18.831  0.00  0.00    +0.000 OA
ENDBRANCH   4  10
BRANCH   1  20
ATOM     19  O   UNL     1       7.937   4.415  17.506  0.00  0.00    +0.000 OA
ATOM     20  C   UNL     1       6.721   4.544  17.630  0.00  0.00    +0.000 C 
ATOM     21  N   UNL     1       5.804   4.549  16.587  0.00  0.00    +0.000 N 
ATOM     22  H   UNL     1       4.849   4.792  16.842  0.00  0.00    +0.000 HD
BRANCH  21  23
ATOM     23  C   UNL     1       6.115   4.458  15.209  0.00  0.00    +0.000 A 
ATOM     24  C   UNL     1       5.415   3.631  14.320  0.00  0.00    +0.000 A 
ATOM     25  C   UNL     1       5.806   3.515  12.984  0.00  0.00    +0.000 A 
ATOM     26  C   UNL     1       6.894   4.238  12.521  0.00  0.00    +0.000 A 
ATOM     27  F   UNL     1       7.270   4.094  11.243  0.00  0.00    +0.000 F 
ATOM     28  C   UNL     1       7.582   5.097  13.375  0.00  0.00    +0.000 A 
ATOM     29 CL   UNL     1       8.933   5.995  12.808  0.00  0.00    +0.000 Cl
ATOM     30  C   UNL     1       7.186   5.217  14.718  0.00  0.00    +0.000 A 
ENDBRANCH  21  23
ENDBRANCH   1  20
TORSDOF 3
ENDMDL
MODEL 3
REMARK VINA RESULT:      -9.5      0.635      1.260
REMARK  Name = 
REMARK  3 active torsions:
REMARK  status: ('A' for Active; 'I' for Inactive)
REMARK    1  A    between atoms: C_2  and  C_12
REMARK    2  A    between atoms: N_3  and  C_4
REMARK    3  A    between atoms: C_15  and  C_16
REMARK                            x       y       z     vdW  Elec       q    Type
REMARK                         _______ _______ _______ _____ _____    ______ ____
ROOT
ATOM      1  C   UNL     1       5.986   4.278  19.090  0.00  0.00    +0.000 C 
ATOM      2  C   UNL     1       5.048   5.479  19.315  0.00  0.00    +0.000 C 
ATOM      3  C   UNL     1       3.740   4.802  19.458  0.00  0.00    +0.000 A 
ATOM      4  C   UNL     1       2.447   5.299  19.644  0.00  0.00    +0.000 A 
ATOM      5  C   UNL     1       1.446   4.319  19.790  0.00  0.00    +0.000 A 
ATOM      6  C   UNL     1       1.769   2.962  19.747  0.00  0.00    +0.000 A 
ATOM      7  N   UNL     1       3.014   2.490  19.549  0.00  0.00    +0.000 NA
ATOM      8  C   UNL     1       3.947   3.435  19.411  0.00  0.00    +0.000 A 
ATOM      9  O   UNL     1       5.252   3.050  19.183  0.00  0.00    +0.000 OA
ENDROOT
BRANCH   4  10
ATOM     10  C   UNL     1       2.087   6.742  19.666  0.00  0.00    +0.000 A 
ATOM     11  C   UNL     1       1.476   7.325  20.812  0.00  0.00    +0.000 A 
ATOM     12  C   UNL     1       1.054   8.664  20.839  0.00  0.00    +0.000 A 
ATOM     13  C   UNL     1       1.272   9.426  19.716  0.00  0.00    +0.000 A 
ATOM     14  C   UNL     1       1.873   8.895  18.604  0.00  0.00    +0.000 A 
ATOM     15  C   UNL     1       2.270   7.573  18.545  0.00  0.00    +0.000 A 
ATOM     16  O   UNL     1       1.999   9.803  17.599  0.00  0.00    +0.000 OA
ATOM     17  C   UNL     1       1.391  10.963  18.204  0.00  0.00    +0.000 C 
ATOM     18  O   UNL     1       0.931  10.731  19.553  0.00  0.00    +0.000 OA
ENDBRANCH   4  10
BRANCH   1  20
ATOM     19  O   UNL     1       7.935   4.649  17.729  0.00  0.00    +0.000 OA
ATOM     20  C   UNL     1       6.728   4.420  17.749  0.00  0.00    +0.000 C 
ATOM     21  N   UNL     1       5.930   4.225  16.629  0.00  0.00    +0.000 N 
ATOM     22  H   UNL     1       4.929   4.171  16.805  0.00  0.00    +0.000 HD
BRANCH  21  23
ATOM     23  C   UNL     1       6.358   4.308  15.281  0.00  0.00    +0.000 A 
ATOM     24  C   UNL     1       7.393   5.152  14.857  0.00  0.00    +0.000 A 
ATOM     25  C   UNL     1       7.730   5.256  13.506  0.00  0.00    +0.000 A 
ATOM     26  C   UNL     1       7.041   4.506  12.565  0.00  0.00    +0.000 A 
ATOM     27  F   UNL     1       7.361   4.640  11.272  0.00  0.00    +0.000 F 
ATOM     28  C   UNL     1       6.034   3.631  12.966  0.00  0.00    +0.000 A 
ATOM     29 CL   UNL     1       5.175   2.699  11.804  0.00  0.00    +0.000 Cl
ATOM     30  C   UNL     1       5.698   3.522  14.326  0.00  0.00    +0.000 A 
ENDBRANCH  21  23
ENDBRANCH   1  20
TORSDOF 3
ENDMDL
MODEL 4
REMARK VINA RESULT:      -9.3      1.154      1.825
REMARK  Name = 
REMARK  3 active torsions:
REMARK  status: ('A' for Active; 'I' for Inactive)
REMARK    1  A    between atoms: C_2  and  C_12
REMARK    2  A    between atoms: N_3  and  C_4
REMARK    3  A    between atoms: C_15  and  C_16
REMARK                            x       y       z     vdW  Elec       q    Type
REMARK                         _______ _______ _______ _____ _____    ______ ____
ROOT
ATOM      1  C   UNL     1       5.988   4.336  19.044  0.00  0.00    +0.000 C 
ATOM      2  C   UNL     1       5.054   5.542  19.259  0.00  0.00    +0.000 C 
ATOM      3  C   UNL     1       3.768   4.865  19.541  0.00  0.00    +0.000 A 
ATOM      4  C   UNL     1       2.486   5.363  19.789  0.00  0.00    +0.000 A 
ATOM      5  C   UNL     1       1.511   4.387  20.072  0.00  0.00    +0.000 A 
ATOM      6  C   UNL     1       1.847   3.032  20.093  0.00  0.00    +0.000 A 
ATOM      7  N   UNL     1       3.080   2.558  19.835  0.00  0.00    +0.000 NA
ATOM      8  C   UNL     1       3.989   3.500  19.568  0.00  0.00    +0.000 A 
ATOM      9  O   UNL     1       5.279   3.111  19.270  0.00  0.00    +0.000 OA
ENDROOT
BRANCH   4  10
ATOM     10  C   UNL     1       2.110   6.801  19.744  0.00  0.00    +0.000 A 
ATOM     11  C   UNL     1       1.477   7.426  20.855  0.00  0.00    +0.000 A 
ATOM     12  C   UNL     1       1.040   8.759  20.819  0.00  0.00    +0.000 A 
ATOM     13  C   UNL     1       1.266   9.475  19.668  0.00  0.00    +0.000 A 
ATOM     14  C   UNL     1       1.887   8.904  18.588  0.00  0.00    +0.000 A 
ATOM     15  C   UNL     1       2.300   7.585  18.591  0.00  0.00    +0.000 A 
ATOM     16  O   UNL     1       2.017   9.770  17.546  0.00  0.00    +0.000 OA
ATOM     17  C   UNL     1       1.388  10.948  18.093  0.00  0.00    +0.000 C 
ATOM     18  O   UNL     1       0.913  10.768  19.444  0.00  0.00    +0.000 OA
ENDBRANCH   4  10
BRANCH   1  20
ATOM     19  O   UNL     1       7.845   4.520  17.525  0.00  0.00    +0.000 OA
ATOM     20  C   UNL     1       6.628   4.396  17.645  0.00  0.00    +0.000 C 
ATOM     21  N   UNL     1       5.729   4.256  16.596  0.00  0.00    +0.000 N 
ATOM     22  H   UNL     1       4.744   4.290  16.853  0.00  0.00    +0.000 HD
BRANCH  21  23
ATOM     23  C   UNL     1       6.052   4.283  15.217  0.00  0.00    +0.000 A 
ATOM     24  C   UNL     1       5.352   3.545  14.253  0.00  0.00    +0.000 A 
ATOM     25  C   UNL     1       5.754   3.544  12.916  0.00  0.00    +0.000 A 
ATOM     26  C   UNL     1       6.853   4.293  12.527  0.00  0.00    +0.000 A 
ATOM     27  F   UNL     1       7.240   4.258  11.245  0.00  0.00    +0.000 F 
ATOM     28  C   UNL     1       7.542   5.066  13.460  0.00  0.00    +0.000 A 
ATOM     29 CL   UNL     1       8.908   5.996  12.985  0.00  0.00    +0.000 Cl
ATOM     30  C   UNL     1       7.135   5.071  14.805  0.00  0.00    +0.000 A 
ENDBRANCH  21  23
ENDBRANCH   1  20
TORSDOF 3
ENDMDL
MODEL 5
REMARK VINA RESULT:      -9.2      5.264      7.130
REMARK  Name = 
REMARK  3 active torsions:
REMARK  status: ('A' for Active; 'I' for Inactive)
REMARK    1  A    between atoms: C_2  and  C_12
REMARK    2  A    between atoms: N_3  and  C_4
REMARK    3  A    between atoms: C_15  and  C_16
REMARK                            x       y       z     vdW  Elec       q    Type
REMARK                         _______ _______ _______ _____ _____    ______ ____
ROOT
ATOM      1  C   UNL     1       7.886   6.797  17.724  0.00  0.00    +0.000 C 
ATOM      2  C   UNL     1       6.633   6.128  18.319  0.00  0.00    +0.000 C 
ATOM      3  C   UNL     1       6.028   5.521  17.112  0.00  0.00    +0.000 A 
ATOM      4  C   UNL     1       4.848   4.796  16.925  0.00  0.00    +0.000 A 
ATOM      5  C   UNL     1       4.637   4.330  15.612  0.00  0.00    +0.000 A 
ATOM      6  C   UNL     1       5.566   4.596  14.606  0.00  0.00    +0.000 A 
ATOM      7  N   UNL     1       6.692   5.311  14.790  0.00  0.00    +0.000 NA
ATOM      8  C   UNL     1       6.872   5.744  16.040  0.00  0.00    +0.000 A 
ATOM      9  O   UNL     1       7.988   6.505  16.324  0.00  0.00    +0.000 OA
ENDROOT
BRANCH   4  10
ATOM     10  C   UNL     1       3.838   4.528  17.982  0.00  0.00    +0.000 A 
ATOM     11  C   UNL     1       2.627   5.274  18.042  0.00  0.00    +0.000 A 
ATOM     12  C   UNL     1       1.687   5.100  19.070  0.00  0.00    +0.000 A 
ATOM     13  C   UNL     1       1.955   4.151  20.027  0.00  0.00    +0.000 A 
ATOM     14  C   UNL     1       3.105   3.406  19.986  0.00  0.00    +0.000 A 
ATOM     15  C   UNL     1       4.058   3.581  18.999  0.00  0.00    +0.000 A 
ATOM     16  O   UNL     1       3.189   2.523  21.018  0.00  0.00    +0.000 OA
ATOM     17  C   UNL     1       1.965   2.813  21.723  0.00  0.00    +0.000 C 
ATOM     18  O   UNL     1       1.173   3.844  21.095  0.00  0.00    +0.000 OA
ENDBRANCH   4  10
BRANCH   1  20
ATOM     19  O   UNL     1       6.955   9.012  17.600  0.00  0.00    +0.000 OA
ATOM     20  C   UNL     1       7.876   8.309  18.010  0.00  0.00    +0.000 C 
ATOM     21  N   UNL     1       8.943   8.755  18.779  0.00  0.00    +0.000 N 
ATOM     22  H   UNL     1       9.689   8.078  18.932  0.00  0.00    +0.000 HD
BRANCH  21  23
ATOM     23  C   UNL     1       9.178  10.094  19.176  0.00  0.00    +0.000 A 
ATOM     24  C   UNL     1       9.059  10.530  20.502  0.00  0.00    +0.000 A 
ATOM     25  C   UNL     1       9.225  11.877  20.835  0.00  0.00    +0.000 A 
ATOM     26  C   UNL     1       9.526  12.798  19.845  0.00  0.00    +0.000 A 
ATOM     27  F   UNL     1       9.656  14.088  20.179  0.00  0.00    +0.000 F 
ATOM     28  C   UNL     1       9.688  12.382  18.525  0.00  0.00    +0.000 A 
ATOM     29 CL   UNL     1      10.060  13.520  17.291  0.00  0.00    +0.000 Cl
ATOM     30  C   UNL     1       9.525  11.027  18.190  0.00  0.00    +0.000 A 
ENDBRANCH  21  23
ENDBRANCH   1  20
TORSDOF 3
ENDMDL
MODEL 6
REMARK VINA RESULT:      -9.2      5.423      7.229
REMARK  Name = 
REMARK  3 active torsions:
REMARK  status: ('A' for Active; 'I' for Inactive)
REMARK    1  A    between atoms: C_2  and  C_12
REMARK    2  A    between atoms: N_3  and  C_4
REMARK    3  A    between atoms: C_15  and  C_16
REMARK                            x       y       z     vdW  Elec       q    Type
REMARK                         _______ _______ _______ _____ _____    ______ ____
ROOT
ATOM      1  C   UNL     1       7.804   6.844  17.629  0.00  0.00    +0.000 C 
ATOM      2  C   UNL     1       6.568   6.153  18.235  0.00  0.00    +0.000 C 
ATOM      3  C   UNL     1       6.016   5.456  17.051  0.00  0.00    +0.000 A 
ATOM      4  C   UNL     1       4.873   4.671  16.880  0.00  0.00    +0.000 A 
ATOM      5  C   UNL     1       4.710   4.127  15.591  0.00  0.00    +0.000 A 
ATOM      6  C   UNL     1       5.649   4.382  14.589  0.00  0.00    +0.000 A 
ATOM      7  N   UNL     1       6.738   5.154  14.757  0.00  0.00    +0.000 NA
ATOM      8  C   UNL     1       6.872   5.660  15.985  0.00  0.00    +0.000 A 
ATOM      9  O   UNL     1       7.948   6.483  16.249  0.00  0.00    +0.000 OA
ENDROOT
BRANCH   4  10
ATOM     10  C   UNL     1       3.852   4.415  17.931  0.00  0.00    +0.000 A 
ATOM     11  C   UNL     1       2.619   5.125  17.941  0.00  0.00    +0.000 A 
ATOM     12  C   UNL     1       1.667   4.964  18.959  0.00  0.00    +0.000 A 
ATOM     13  C   UNL     1       1.946   4.062  19.958  0.00  0.00    +0.000 A 
ATOM     14  C   UNL     1       3.118   3.352  19.966  0.00  0.00    +0.000 A 
ATOM     15  C   UNL     1       4.082   3.516  18.989  0.00  0.00    +0.000 A 
ATOM     16  O   UNL     1       3.210   2.514  21.034  0.00  0.00    +0.000 OA
ATOM     17  C   UNL     1       1.965   2.794  21.707  0.00  0.00    +0.000 C 
ATOM     18  O   UNL     1       1.154   3.774  21.024  0.00  0.00    +0.000 OA
ENDBRANCH   4  10
BRANCH   1  20
ATOM     19  O   UNL     1       6.746   8.996  17.431  0.00  0.00    +0.000 OA
ATOM     20  C   UNL     1       7.722   8.367  17.834  0.00  0.00    +0.000 C 
ATOM     21  N   UNL     1       8.796   8.912  18.526  0.00  0.00    +0.000 N 
ATOM     22  H   UNL     1       9.584   8.285  18.680  0.00  0.00    +0.000 HD
BRANCH  21  23
ATOM     23  C   UNL     1       8.973  10.282  18.839  0.00  0.00    +0.000 A 
ATOM     24  C   UNL     1       9.060  11.284  17.863  0.00  0.00    +0.000 A 
ATOM     25  C   UNL     1       9.311  12.612  18.215  0.00  0.00    +0.000 A 
ATOM     26  C   UNL     1       9.464  12.953  19.550  0.00  0.00    +0.000 A 
ATOM     27  F   UNL     1       9.731  14.226  19.866  0.00  0.00    +0.000 F 
ATOM     28  C   UNL     1       9.343  11.981  20.541  0.00  0.00    +0.000 A 
ATOM     29 CL   UNL     1       9.534  12.396  22.199  0.00  0.00    +0.000 Cl
ATOM     30  C   UNL     1       9.086  10.646  20.188  0.00  0.00    +0.000 A 
ENDBRANCH  21  23
ENDBRANCH   1  20
TORSDOF 3
ENDMDL
MODEL 7
REMARK VINA RESULT:      -8.7      1.011      1.011
REMARK  Name = 
REMARK  3 active torsions:
REMARK  status: ('A' for Active; 'I' for Inactive)
REMARK    1  A    between atoms: C_2  and  C_12
REMARK    2  A    between atoms: N_3  and  C_4
REMARK    3  A    between atoms: C_15  and  C_16
REMARK                            x       y       z     vdW  Elec       q    Type
REMARK                         _______ _______ _______ _____ _____    ______ ____
ROOT
ATOM      1  C   UNL     1       5.390   4.545  18.382  0.00  0.00    +0.000 C 
ATOM      2  C   UNL     1       4.572   5.841  18.529  0.00  0.00    +0.000 C 
ATOM      3  C   UNL     1       3.463   5.387  19.398  0.00  0.00    +0.000 A 
ATOM      4  C   UNL     1       2.336   6.048  19.893  0.00  0.00    +0.000 A 
ATOM      5  C   UNL     1       1.522   5.279  20.749  0.00  0.00    +0.000 A 
ATOM      6  C   UNL     1       1.859   3.959  21.053  0.00  0.00    +0.000 A 
ATOM      7  N   UNL     1       2.937   3.324  20.558  0.00  0.00    +0.000 NA
ATOM      8  C   UNL     1       3.693   4.069  19.748  0.00  0.00    +0.000 A 
ATOM      9  O   UNL     1       4.811   3.499  19.173  0.00  0.00    +0.000 OA
ENDROOT
BRANCH   4  10
ATOM     10  C   UNL     1       1.952   7.444  19.556  0.00  0.00    +0.000 A 
ATOM     11  C   UNL     1       2.136   7.956  18.241  0.00  0.00    +0.000 A 
ATOM     12  C   UNL     1       1.857   9.290  17.907  0.00  0.00    +0.000 A 
ATOM     13  C   UNL     1       1.364  10.107  18.897  0.00  0.00    +0.000 A 
ATOM     14  C   UNL     1       1.161   9.637  20.169  0.00  0.00    +0.000 A 
ATOM     15  C   UNL     1       1.456   8.335  20.526  0.00  0.00    +0.000 A 
ATOM     16  O   UNL     1       0.671  10.594  21.003  0.00  0.00    +0.000 OA
ATOM     17  C   UNL     1       0.606  11.725  20.110  0.00  0.00    +0.000 C 
ATOM     18  O   UNL     1       1.041  11.420  18.768  0.00  0.00    +0.000 OA
ENDBRANCH   4  10
BRANCH   1  20
ATOM     19  O   UNL     1       4.811   3.272  16.424  0.00  0.00    +0.000 OA
ATOM     20  C   UNL     1       5.521   4.157  16.898  0.00  0.00    +0.000 C 
ATOM     21  N   UNL     1       6.447   4.909  16.188  0.00  0.00    +0.000 N 
ATOM     22  H   UNL     1       7.045   5.514  16.747  0.00  0.00    +0.000 HD
BRANCH  21  23
ATOM     23  C   UNL     1       6.767   4.752  14.817  0.00  0.00    +0.000 A 
ATOM     24  C   UNL     1       7.764   5.498  14.174  0.00  0.00    +0.000 A 
ATOM     25  C   UNL     1       7.994   5.363  12.803  0.00  0.00    +0.000 A 
ATOM     26  C   UNL     1       7.235   4.470  12.064  0.00  0.00    +0.000 A 
ATOM     27  F   UNL     1       7.451   4.374  10.745  0.00  0.00    +0.000 F 
ATOM     28  C   UNL     1       6.264   3.689  12.687  0.00  0.00    +0.000 A 
ATOM     29 CL   UNL     1       5.318   2.580  11.775  0.00  0.00    +0.000 Cl
ATOM     30  C   UNL     1       6.037   3.821  14.067  0.00  0.00    +0.000 A 
ENDBRANCH  21  23
ENDBRANCH   1  20
TORSDOF 3
ENDMDL
MODEL 8
REMARK VINA RESULT:      -8.6      1.181      1.633
REMARK  Name = 
REMARK  3 active torsions:
REMARK  status: ('A' for Active; 'I' for Inactive)
REMARK    1  A    between atoms: C_2  and  C_12
REMARK    2  A    between atoms: N_3  and  C_4
REMARK    3  A    between atoms: C_15  and  C_16
REMARK                            x       y       z     vdW  Elec       q    Type
REMARK                         _______ _______ _______ _____ _____    ______ ____
ROOT
ATOM      1  C   UNL     1       5.204   4.392  18.332  0.00  0.00    +0.000 C 
ATOM      2  C   UNL     1       4.400   5.633  18.762  0.00  0.00    +0.000 C 
ATOM      3  C   UNL     1       3.344   5.018  19.598  0.00  0.00    +0.000 A 
ATOM      4  C   UNL     1       2.250   5.568  20.271  0.00  0.00    +0.000 A 
ATOM      5  C   UNL     1       1.486   4.650  21.019  0.00  0.00    +0.000 A 
ATOM      6  C   UNL     1       1.836   3.299  21.054  0.00  0.00    +0.000 A 
ATOM      7  N   UNL     1       2.881   2.773  20.388  0.00  0.00    +0.000 NA
ATOM      8  C   UNL     1       3.590   3.660  19.685  0.00  0.00    +0.000 A 
ATOM      9  O   UNL     1       4.669   3.214  18.950  0.00  0.00    +0.000 OA
ENDROOT
BRANCH   4  10
ATOM     10  C   UNL     1       1.852   7.000  20.220  0.00  0.00    +0.000 A 
ATOM     11  C   UNL     1       1.184   7.612  21.318  0.00  0.00    +0.000 A 
ATOM     12  C   UNL     1       0.726   8.939  21.274  0.00  0.00    +0.000 A 
ATOM     13  C   UNL     1       0.967   9.660  20.129  0.00  0.00    +0.000 A 
ATOM     14  C   UNL     1       1.622   9.101  19.062  0.00  0.00    +0.000 A 
ATOM     15  C   UNL     1       2.055   7.789  19.073  0.00  0.00    +0.000 A 
ATOM     16  O   UNL     1       1.761   9.971  18.025  0.00  0.00    +0.000 OA
ATOM     17  C   UNL     1       1.101  11.138  18.559  0.00  0.00    +0.000 C 
ATOM     18  O   UNL     1       0.598  10.948  19.898  0.00  0.00    +0.000 OA
ENDBRANCH   4  10
BRANCH   1  20
ATOM     19  O   UNL     1       4.230   3.985  16.169  0.00  0.00    +0.000 OA
ATOM     20  C   UNL     1       5.244   4.283  16.797  0.00  0.00    +0.000 C 
ATOM     21  N   UNL     1       6.476   4.588  16.232  0.00  0.00    +0.000 N 
ATOM     22  H   UNL     1       7.248   4.690  16.888  0.00  0.00    +0.000 HD
BRANCH  21  23
ATOM     23  C   UNL     1       6.786   4.557  14.851  0.00  0.00    +0.000 A 
ATOM     24  C   UNL     1       7.717   5.419  14.256  0.00  0.00    +0.000 A 
ATOM     25  C   UNL     1       7.935   5.404  12.877  0.00  0.00    +0.000 A 
ATOM     26  C   UNL     1       7.231   4.515  12.079  0.00  0.00    +0.000 A 
ATOM     27  F   UNL     1       7.434   4.534  10.755  0.00  0.00    +0.000 F 
ATOM     28  C   UNL     1       6.328   3.622  12.651  0.00  0.00    +0.000 A 
ATOM     29 CL   UNL     1       5.451   2.518  11.668  0.00  0.00    +0.000 Cl
ATOM     30  C   UNL     1       6.113   3.633  14.040  0.00  0.00    +0.000 A 
ENDBRANCH  21  23
ENDBRANCH   1  20
TORSDOF 3
ENDMDL
MODEL 9
REMARK VINA RESULT:      -8.5      4.264      7.262
REMARK  Name = 
REMARK  3 active torsions:
REMARK  status: ('A' for Active; 'I' for Inactive)
REMARK    1  A    between atoms: C_2  and  C_12
REMARK    2  A    between atoms: N_3  and  C_4
REMARK    3  A    between atoms: C_15  and  C_16
REMARK                            x       y       z     vdW  Elec       q    Type
REMARK                         _______ _______ _______ _____ _____    ______ ____
ROOT
ATOM      1  C   UNL     1       1.293   9.292  18.228  0.00  0.00    +0.000 C 
ATOM      2  C   UNL     1       0.209   9.965  19.091  0.00  0.00    +0.000 C 
ATOM      3  C   UNL     1       0.739  11.343  19.201  0.00  0.00    +0.000 A 
ATOM      4  C   UNL     1       0.272  12.470  19.881  0.00  0.00    +0.000 A 
ATOM      5  C   UNL     1       1.039  13.638  19.698  0.00  0.00    +0.000 A 
ATOM      6  C   UNL     1       2.174  13.621  18.886  0.00  0.00    +0.000 A 
ATOM      7  N   UNL     1       2.628  12.527  18.248  0.00  0.00    +0.000 NA
ATOM      8  C   UNL     1       1.888  11.431  18.437  0.00  0.00    +0.000 A 
ATOM      9  O   UNL     1       2.285  10.252  17.840  0.00  0.00    +0.000 OA
ENDROOT
BRANCH   4  10
ATOM     10  C   UNL     1      -0.920  12.494  20.769  0.00  0.00    +0.000 A 
ATOM     11  C   UNL     1      -0.827  12.082  22.128  0.00  0.00    +0.000 A 
ATOM     12  C   UNL     1      -1.946  12.019  22.973  0.00  0.00    +0.000 A 
ATOM     13  C   UNL     1      -3.161  12.400  22.455  0.00  0.00    +0.000 A 
ATOM     14  C   UNL     1      -3.278  12.816  21.154  0.00  0.00    +0.000 A 
ATOM     15  C   UNL     1      -2.194  12.858  20.296  0.00  0.00    +0.000 A 
ATOM     16  O   UNL     1      -4.556  13.148  20.828  0.00  0.00    +0.000 OA
ATOM     17  C   UNL     1      -5.233  12.874  22.072  0.00  0.00    +0.000 C 
ATOM     18  O   UNL     1      -4.350  12.402  23.112  0.00  0.00    +0.000 OA
ENDBRANCH   4  10
BRANCH   1  20
ATOM     19  O   UNL     1       1.922   8.062  20.198  0.00  0.00    +0.000 OA
ATOM     20  C   UNL     1       1.899   8.087  18.970  0.00  0.00    +0.000 C 
ATOM     21  N   UNL     1       2.350   7.070  18.139  0.00  0.00    +0.000 N 
ATOM     22  H   UNL     1       2.381   7.293  17.146  0.00  0.00    +0.000 HD
BRANCH  21  23
ATOM     23  C   UNL     1       2.956   5.861  18.560  0.00  0.00    +0.000 A 
ATOM     24  C   UNL     1       4.334   5.732  18.778  0.00  0.00    +0.000 A 
ATOM     25  C   UNL     1       4.897   4.500  19.120  0.00  0.00    +0.000 A 
ATOM     26  C   UNL     1       4.083   3.387  19.260  0.00  0.00    +0.000 A 
ATOM     27  F   UNL     1       4.644   2.209  19.562  0.00  0.00    +0.000 F 
ATOM     28  C   UNL     1       2.705   3.499  19.086  0.00  0.00    +0.000 A 
ATOM     29 CL   UNL     1       1.690   2.122  19.256  0.00  0.00    +0.000 Cl
ATOM     30  C   UNL     1       2.138   4.739  18.747  0.00  0.00    +0.000 A 
ENDBRANCH  21  23
ENDBRANCH   1  20
TORSDOF 3
ENDMDL
