MODEL 1
REMARK VINA RESULT:      -8.0      0.000      0.000
REMARK  Name = 
REMARK  7 active torsions:
REMARK  status: ('A' for Active; 'I' for Inactive)
REMARK    1  A    between atoms: C_1  and  O_2
REMARK    2  A    between atoms: O_2  and  C_3
REMARK    3  A    between atoms: C_6  and  C_7
REMARK    4  A    between atoms: N_9  and  C_10
REMARK    5  A    between atoms: C_10  and  C_11
REMARK    6  A    between atoms: N_15  and  C_16
REMARK    7  A    between atoms: C_23  and  O_24
REMARK                            x       y       z     vdW  Elec       q    Type
REMARK                         _______ _______ _______ _____ _____    ______ ____
ROOT
ATOM      1  C   UNL     1       4.146   3.235  17.197  0.00  0.00    +0.000 C 
ATOM      2  O   UNL     1       2.968   3.344  16.867  0.00  0.00    +0.000 OA
ATOM      3  N   UNL     1       4.561   2.556  18.320  0.00  0.00    +0.000 N 
ATOM      4  H   UNL     1       5.523   2.679  18.626  0.00  0.00    +0.000 HD
ENDROOT
BRANCH   1   8
ATOM      5  C   UNL     1       7.212   5.003  14.727  0.00  0.00    +0.000 A 
ATOM      6  C   UNL     1       6.019   4.534  14.175  0.00  0.00    +0.000 A 
ATOM      7  C   UNL     1       5.030   3.968  14.991  0.00  0.00    +0.000 A 
ATOM      8  C   UNL     1       5.227   3.860  16.375  0.00  0.00    +0.000 A 
ATOM      9  C   UNL     1       6.430   4.335  16.909  0.00  0.00    +0.000 A 
ATOM     10  C   UNL     1       7.408   4.914  16.101  0.00  0.00    +0.000 A 
BRANCH   5  12
ATOM     11  C   UNL     1       7.800   5.340  12.452  0.00  0.00    +0.000 C 
ATOM     12  O   UNL     1       8.110   5.517  13.831  0.00  0.00    +0.000 OA
ENDBRANCH   5  12
BRANCH   9  13
ATOM     13  O   UNL     1       6.746   4.250  18.238  0.00  0.00    +0.000 OA
ATOM     14  H   UNL     1       7.685   4.509  18.310  0.00  0.00    +0.000 HD
ENDBRANCH   9  13
ENDBRANCH   1   8
BRANCH   3  15
ATOM     15  C   UNL     1       3.657   1.967  19.276  0.00  0.00    +0.000 C 
BRANCH  15  16
ATOM     16  C   UNL     1       3.353   2.896  20.462  0.00  0.00    +0.000 C 
ATOM     17  C   UNL     1       2.049   2.527  21.176  0.00  0.00    +0.000 C 
ATOM     18  C   UNL     1       0.835   3.240  20.601  0.00  0.00    +0.000 C 
ATOM     19  C   UNL     1       1.071   4.743  20.510  0.00  0.00    +0.000 C 
ATOM     20  N   UNL     1       2.214   5.085  19.642  0.00  0.00    +0.000 NA
ATOM     21  C   UNL     1       3.441   4.402  20.114  0.00  0.00    +0.000 C 
BRANCH  20  22
ATOM     22  C   UNL     1       2.409   6.579  19.592  0.00  0.00    +0.000 C 
ATOM     23  C   UNL     1       1.437   7.354  20.513  0.00  0.00    +0.000 C 
ATOM     24  C   UNL     1       1.563   8.865  20.337  0.00  0.00    +0.000 C 
ATOM     25  O   UNL     1       1.382   9.240  18.976  0.00  0.00    +0.000 OA
ATOM     26  C   UNL     1       2.375   8.662  18.139  0.00  0.00    +0.000 C 
ATOM     27  C   UNL     1       2.282   7.144  18.160  0.00  0.00    +0.000 C 
ENDBRANCH  20  22
ENDBRANCH  15  16
ENDBRANCH   3  15
TORSDOF 6
ENDMDL
MODEL 2
REMARK VINA RESULT:      -7.7      1.333      1.492
REMARK  Name = 
REMARK  7 active torsions:
REMARK  status: ('A' for Active; 'I' for Inactive)
REMARK    1  A    between atoms: C_1  and  O_2
REMARK    2  A    between atoms: O_2  and  C_3
REMARK    3  A    between atoms: C_6  and  C_7
REMARK    4  A    between atoms: N_9  and  C_10
REMARK    5  A    between atoms: C_10  and  C_11
REMARK    6  A    between atoms: N_15  and  C_16
REMARK    7  A    between atoms: C_23  and  O_24
REMARK                            x       y       z     vdW  Elec       q    Type
REMARK                         _______ _______ _______ _____ _____    ______ ____
ROOT
ATOM      1  C   UNL     1       5.407   3.989  18.569  0.00  0.00    +0.000 C 
ATOM      2  O   UNL     1       5.825   4.708  19.473  0.00  0.00    +0.000 OA
ATOM      3  N   UNL     1       4.505   2.968  18.766  0.00  0.00    +0.000 N 
ATOM      4  H   UNL     1       4.364   2.303  18.010  0.00  0.00    +0.000 HD
ENDROOT
BRANCH   1   8
ATOM      5  C   UNL     1       6.666   4.504  14.473  0.00  0.00    +0.000 A 
ATOM      6  C   UNL     1       5.360   4.125  14.787  0.00  0.00    +0.000 A 
ATOM      7  C   UNL     1       4.965   3.967  16.122  0.00  0.00    +0.000 A 
ATOM      8  C   UNL     1       5.877   4.185  17.164  0.00  0.00    +0.000 A 
ATOM      9  C   UNL     1       7.182   4.564  16.828  0.00  0.00    +0.000 A 
ATOM     10  C   UNL     1       7.572   4.737  15.502  0.00  0.00    +0.000 A 
BRANCH   5  12
ATOM     11  C   UNL     1       6.430   3.571  12.303  0.00  0.00    +0.000 C 
ATOM     12  O   UNL     1       6.941   4.607  13.136  0.00  0.00    +0.000 OA
ENDBRANCH   5  12
BRANCH   9  13
ATOM     13  O   UNL     1       8.165   4.769  17.758  0.00  0.00    +0.000 OA
ATOM     14  H   UNL     1       7.816   4.424  18.602  0.00  0.00    +0.000 HD
ENDBRANCH   9  13
ENDBRANCH   1   8
BRANCH   3  15
ATOM     15  C   UNL     1       4.012   2.576  20.062  0.00  0.00    +0.000 C 
BRANCH  15  16
ATOM     16  C   UNL     1       2.676   3.245  20.421  0.00  0.00    +0.000 C 
ATOM     17  C   UNL     1       1.521   2.757  19.541  0.00  0.00    +0.000 C 
ATOM     18  C   UNL     1       1.340   3.592  18.283  0.00  0.00    +0.000 C 
ATOM     19  C   UNL     1       1.261   5.077  18.615  0.00  0.00    +0.000 C 
ATOM     20  N   UNL     1       2.481   5.573  19.281  0.00  0.00    +0.000 NA
ATOM     21  C   UNL     1       2.754   4.789  20.507  0.00  0.00    +0.000 C 
BRANCH  20  22
ATOM     22  C   UNL     1       2.350   7.042  19.594  0.00  0.00    +0.000 C 
ATOM     23  C   UNL     1       1.340   7.338  20.729  0.00  0.00    +0.000 C 
ATOM     24  C   UNL     1       1.125   8.836  20.928  0.00  0.00    +0.000 C 
ATOM     25  O   UNL     1       0.723   9.462  19.715  0.00  0.00    +0.000 OA
ATOM     26  C   UNL     1       1.720   9.338  18.709  0.00  0.00    +0.000 C 
ATOM     27  C   UNL     1       1.953   7.877  18.356  0.00  0.00    +0.000 C 
ENDBRANCH  20  22
ENDBRANCH  15  16
ENDBRANCH   3  15
TORSDOF 6
ENDMDL
MODEL 3
REMARK VINA RESULT:      -7.6      2.686      3.290
REMARK  Name = 
REMARK  7 active torsions:
REMARK  status: ('A' for Active; 'I' for Inactive)
REMARK    1  A    between atoms: C_1  and  O_2
REMARK    2  A    between atoms: O_2  and  C_3
REMARK    3  A    between atoms: C_6  and  C_7
REMARK    4  A    between atoms: N_9  and  C_10
REMARK    5  A    between atoms: C_10  and  C_11
REMARK    6  A    between atoms: N_15  and  C_16
REMARK    7  A    between atoms: C_23  and  O_24
REMARK                            x       y       z     vdW  Elec       q    Type
REMARK                         _______ _______ _______ _____ _____    ______ ____
ROOT
ATOM      1  C   UNL     1       5.859   4.797  18.054  0.00  0.00    +0.000 C 
ATOM      2  O   UNL     1       5.489   4.343  16.973  0.00  0.00    +0.000 OA
ATOM      3  N   UNL     1       5.536   4.231  19.266  0.00  0.00    +0.000 N 
ATOM      4  H   UNL     1       5.712   4.771  20.109  0.00  0.00    +0.000 HD
ENDROOT
BRANCH   1   8
ATOM      5  C   UNL     1       8.235   8.399  18.121  0.00  0.00    +0.000 A 
ATOM      6  C   UNL     1       7.176   8.247  17.224  0.00  0.00    +0.000 A 
ATOM      7  C   UNL     1       6.410   7.073  17.218  0.00  0.00    +0.000 A 
ATOM      8  C   UNL     1       6.698   6.032  18.112  0.00  0.00    +0.000 A 
ATOM      9  C   UNL     1       7.764   6.204  19.002  0.00  0.00    +0.000 A 
ATOM     10  C   UNL     1       8.517   7.377  19.020  0.00  0.00    +0.000 A 
BRANCH   5  12
ATOM     11  C   UNL     1       9.197  10.258  19.240  0.00  0.00    +0.000 C 
ATOM     12  O   UNL     1       8.923   9.578  18.019  0.00  0.00    +0.000 OA
ENDBRANCH   5  12
BRANCH   9  13
ATOM     13  O   UNL     1       8.159   5.243  19.893  0.00  0.00    +0.000 OA
ATOM     14  H   UNL     1       9.112   5.100  19.733  0.00  0.00    +0.000 HD
ENDBRANCH   9  13
ENDBRANCH   1   8
BRANCH   3  15
ATOM     15  C   UNL     1       4.664   3.092  19.409  0.00  0.00    +0.000 C 
BRANCH  15  16
ATOM     16  C   UNL     1       3.209   3.486  19.706  0.00  0.00    +0.000 C 
ATOM     17  C   UNL     1       2.245   3.051  18.598  0.00  0.00    +0.000 C 
ATOM     18  C   UNL     1       2.070   4.106  17.516  0.00  0.00    +0.000 C 
ATOM     19  C   UNL     1       1.724   5.462  18.121  0.00  0.00    +0.000 C 
ATOM     20  N   UNL     1       2.774   5.959  19.032  0.00  0.00    +0.000 NA
ATOM     21  C   UNL     1       3.034   4.972  20.105  0.00  0.00    +0.000 C 
BRANCH  20  22
ATOM     22  C   UNL     1       2.381   7.296  19.608  0.00  0.00    +0.000 C 
ATOM     23  C   UNL     1       1.345   7.189  20.753  0.00  0.00    +0.000 C 
ATOM     24  C   UNL     1       0.864   8.560  21.219  0.00  0.00    +0.000 C 
ATOM     25  O   UNL     1       0.343   9.318  20.133  0.00  0.00    +0.000 OA
ATOM     26  C   UNL     1       1.337   9.565  19.147  0.00  0.00    +0.000 C 
ATOM     27  C   UNL     1       1.828   8.261  18.536  0.00  0.00    +0.000 C 
ENDBRANCH  20  22
ENDBRANCH  15  16
ENDBRANCH   3  15
TORSDOF 6
ENDMDL
MODEL 4
REMARK VINA RESULT:      -7.3      2.474      3.203
REMARK  Name = 
REMARK  7 active torsions:
REMARK  status: ('A' for Active; 'I' for Inactive)
REMARK    1  A    between atoms: C_1  and  O_2
REMARK    2  A    between atoms: O_2  and  C_3
REMARK    3  A    between atoms: C_6  and  C_7
REMARK    4  A    between atoms: N_9  and  C_10
REMARK    5  A    between atoms: C_10  and  C_11
REMARK    6  A    between atoms: N_15  and  C_16
REMARK    7  A    between atoms: C_23  and  O_24
REMARK                            x       y       z     vdW  Elec       q    Type
REMARK                         _______ _______ _______ _____ _____    ______ ____
ROOT
ATOM      1  C   UNL     1       5.901   4.301  18.161  0.00  0.00    +0.000 C 
ATOM      2  O   UNL     1       5.758   3.622  17.147  0.00  0.00    +0.000 OA
ATOM      3  N   UNL     1       5.491   3.897  19.411  0.00  0.00    +0.000 N 
ATOM      4  H   UNL     1       5.466   4.590  20.154  0.00  0.00    +0.000 HD
ENDROOT
BRANCH   1   8
ATOM      5  C   UNL     1       7.680   8.221  17.851  0.00  0.00    +0.000 A 
ATOM      6  C   UNL     1       6.567   7.868  17.085  0.00  0.00    +0.000 A 
ATOM      7  C   UNL     1       5.997   6.594  17.202  0.00  0.00    +0.000 A 
ATOM      8  C   UNL     1       6.539   5.651  18.086  0.00  0.00    +0.000 A 
ATOM      9  C   UNL     1       7.655   6.024  18.844  0.00  0.00    +0.000 A 
ATOM     10  C   UNL     1       8.213   7.296  18.742  0.00  0.00    +0.000 A 
BRANCH   5  12
ATOM     11  C   UNL     1       8.971  10.037  18.671  0.00  0.00    +0.000 C 
ATOM     12  O   UNL     1       8.161   9.485  17.638  0.00  0.00    +0.000 OA
ENDBRANCH   5  12
BRANCH   9  13
ATOM     13  O   UNL     1       8.288   5.176  19.712  0.00  0.00    +0.000 OA
ATOM     14  H   UNL     1       7.803   4.330  19.667  0.00  0.00    +0.000 HD
ENDBRANCH   9  13
ENDBRANCH   1   8
BRANCH   3  15
ATOM     15  C   UNL     1       4.779   2.669  19.659  0.00  0.00    +0.000 C 
BRANCH  15  16
ATOM     16  C   UNL     1       3.255   2.857  19.692  0.00  0.00    +0.000 C 
ATOM     17  C   UNL     1       2.544   2.094  18.570  0.00  0.00    +0.000 C 
ATOM     18  C   UNL     1       2.389   2.916  17.300  0.00  0.00    +0.000 C 
ATOM     19  C   UNL     1       1.766   4.274  17.596  0.00  0.00    +0.000 C 
ATOM     20  N   UNL     1       2.581   5.081  18.525  0.00  0.00    +0.000 NA
ATOM     21  C   UNL     1       2.811   4.338  19.785  0.00  0.00    +0.000 C 
BRANCH  20  22
ATOM     22  C   UNL     1       1.918   6.409  18.790  0.00  0.00    +0.000 C 
ATOM     23  C   UNL     1       2.492   7.562  17.932  0.00  0.00    +0.000 C 
ATOM     24  C   UNL     1       1.901   8.914  18.322  0.00  0.00    +0.000 C 
ATOM     25  O   UNL     1       2.084   9.174  19.709  0.00  0.00    +0.000 OA
ATOM     26  C   UNL     1       1.419   8.207  20.512  0.00  0.00    +0.000 C 
ATOM     27  C   UNL     1       1.996   6.820  20.278  0.00  0.00    +0.000 C 
ENDBRANCH  20  22
ENDBRANCH  15  16
ENDBRANCH   3  15
TORSDOF 6
ENDMDL
MODEL 5
REMARK VINA RESULT:      -7.3      2.583      3.261
REMARK  Name = 
REMARK  7 active torsions:
REMARK  status: ('A' for Active; 'I' for Inactive)
REMARK    1  A    between atoms: C_1  and  O_2
REMARK    2  A    between atoms: O_2  and  C_3
REMARK    3  A    between atoms: C_6  and  C_7
REMARK    4  A    between atoms: N_9  and  C_10
REMARK    5  A    between atoms: C_10  and  C_11
REMARK    6  A    between atoms: N_15  and  C_16
REMARK    7  A    between atoms: C_23  and  O_24
REMARK                            x       y       z     vdW  Elec       q    Type
REMARK                         _______ _______ _______ _____ _____    ______ ____
ROOT
ATOM      1  C   UNL     1       5.614   4.524  18.072  0.00  0.00    +0.000 C 
ATOM      2  O   UNL     1       5.212   3.970  17.051  0.00  0.00    +0.000 OA
ATOM      3  N   UNL     1       5.336   4.072  19.342  0.00  0.00    +0.000 N 
ATOM      4  H   UNL     1       5.536   4.690  20.124  0.00  0.00    +0.000 HD
ENDROOT
BRANCH   1   8
ATOM      5  C   UNL     1       8.062   8.076  17.925  0.00  0.00    +0.000 A 
ATOM      6  C   UNL     1       8.327   7.050  18.835  0.00  0.00    +0.000 A 
ATOM      7  C   UNL     1       7.526   5.901  18.866  0.00  0.00    +0.000 A 
ATOM      8  C   UNL     1       6.444   5.764  17.986  0.00  0.00    +0.000 A 
ATOM      9  C   UNL     1       6.194   6.803  17.082  0.00  0.00    +0.000 A 
ATOM     10  C   UNL     1       6.999   7.940  17.038  0.00  0.00    +0.000 A 
BRANCH   5  12
ATOM     11  C   UNL     1       8.932   9.845  19.247  0.00  0.00    +0.000 C 
ATOM     12  O   UNL     1       8.898   9.157  18.001  0.00  0.00    +0.000 OA
ENDBRANCH   5  12
BRANCH   9  13
ATOM     13  O   UNL     1       5.146   6.796  16.202  0.00  0.00    +0.000 OA
ATOM     14  H   UNL     1       4.582   6.042  16.460  0.00  0.00    +0.000 HD
ENDBRANCH   9  13
ENDBRANCH   1   8
BRANCH   3  15
ATOM     15  C   UNL     1       4.480   2.947  19.619  0.00  0.00    +0.000 C 
BRANCH  15  16
ATOM     16  C   UNL     1       3.021   3.355  19.879  0.00  0.00    +0.000 C 
ATOM     17  C   UNL     1       2.086   2.949  18.736  0.00  0.00    +0.000 C 
ATOM     18  C   UNL     1       1.956   4.022  17.666  0.00  0.00    +0.000 C 
ATOM     19  C   UNL     1       1.609   5.373  18.281  0.00  0.00    +0.000 C 
ATOM     20  N   UNL     1       2.637   5.843  19.230  0.00  0.00    +0.000 NA
ATOM     21  C   UNL     1       2.852   4.836  20.295  0.00  0.00    +0.000 C 
BRANCH  20  22
ATOM     22  C   UNL     1       2.243   7.176  19.815  0.00  0.00    +0.000 C 
ATOM     23  C   UNL     1       1.131   7.070  20.885  0.00  0.00    +0.000 C 
ATOM     24  C   UNL     1       0.657   8.443  21.356  0.00  0.00    +0.000 C 
ATOM     25  O   UNL     1       0.232   9.243  20.258  0.00  0.00    +0.000 OA
ATOM     26  C   UNL     1       1.296   9.485  19.347  0.00  0.00    +0.000 C 
ATOM     27  C   UNL     1       1.791   8.184  18.735  0.00  0.00    +0.000 C 
ENDBRANCH  20  22
ENDBRANCH  15  16
ENDBRANCH   3  15
TORSDOF 6
ENDMDL
MODEL 6
REMARK VINA RESULT:      -7.2      3.848      5.907
REMARK  Name = 
REMARK  7 active torsions:
REMARK  status: ('A' for Active; 'I' for Inactive)
REMARK    1  A    between atoms: C_1  and  O_2
REMARK    2  A    between atoms: O_2  and  C_3
REMARK    3  A    between atoms: C_6  and  C_7
REMARK    4  A    between atoms: N_9  and  C_10
REMARK    5  A    between atoms: C_10  and  C_11
REMARK    6  A    between atoms: N_15  and  C_16
REMARK    7  A    between atoms: C_23  and  O_24
REMARK                            x       y       z     vdW  Elec       q    Type
REMARK                         _______ _______ _______ _____ _____    ______ ____
ROOT
ATOM      1  C   UNL     1       2.408   6.559  19.435  0.00  0.00    +0.000 C 
ATOM      2  O   UNL     1       1.894   6.029  20.417  0.00  0.00    +0.000 OA
ATOM      3  N   UNL     1       2.263   7.893  19.129  0.00  0.00    +0.000 N 
ATOM      4  H   UNL     1       2.552   8.206  18.205  0.00  0.00    +0.000 HD
ENDROOT
BRANCH   1   8
ATOM      5  C   UNL     1       4.824   4.337  16.633  0.00  0.00    +0.000 A 
ATOM      6  C   UNL     1       4.827   5.734  16.644  0.00  0.00    +0.000 A 
ATOM      7  C   UNL     1       4.042   6.441  17.564  0.00  0.00    +0.000 A 
ATOM      8  C   UNL     1       3.237   5.756  18.486  0.00  0.00    +0.000 A 
ATOM      9  C   UNL     1       3.247   4.357  18.457  0.00  0.00    +0.000 A 
ATOM     10  C   UNL     1       4.040   3.652  17.554  0.00  0.00    +0.000 A 
BRANCH   5  12
ATOM     11  C   UNL     1       6.011   4.591  14.592  0.00  0.00    +0.000 C 
ATOM     12  O   UNL     1       5.614   3.758  15.677  0.00  0.00    +0.000 OA
ENDBRANCH   5  12
BRANCH   9  13
ATOM     13  O   UNL     1       2.476   3.585  19.284  0.00  0.00    +0.000 OA
ATOM     14  H   UNL     1       3.062   2.880  19.621  0.00  0.00    +0.000 HD
ENDBRANCH   9  13
ENDBRANCH   1   8
BRANCH   3  15
ATOM     15  C   UNL     1       1.430   8.799  19.878  0.00  0.00    +0.000 C 
BRANCH  15  16
ATOM     16  C   UNL     1       1.019  10.041  19.072  0.00  0.00    +0.000 C 
ATOM     17  C   UNL     1       0.964  11.307  19.931  0.00  0.00    +0.000 C 
ATOM     18  C   UNL     1      -0.403  11.542  20.556  0.00  0.00    +0.000 C 
ATOM     19  C   UNL     1      -1.505  11.475  19.506  0.00  0.00    +0.000 C 
ATOM     20  N   UNL     1      -1.567  10.164  18.833  0.00  0.00    +0.000 NA
ATOM     21  C   UNL     1      -0.258   9.838  18.220  0.00  0.00    +0.000 C 
BRANCH  20  22
ATOM     22  C   UNL     1      -2.667  10.153  17.801  0.00  0.00    +0.000 C 
ATOM     23  C   UNL     1      -2.150   9.942  16.358  0.00  0.00    +0.000 C 
ATOM     24  C   UNL     1      -3.266  10.075  15.325  0.00  0.00    +0.000 C 
ATOM     25  O   UNL     1      -3.933  11.327  15.448  0.00  0.00    +0.000 OA
ATOM     26  C   UNL     1      -4.555  11.462  16.719  0.00  0.00    +0.000 C 
ATOM     27  C   UNL     1      -3.519  11.441  17.833  0.00  0.00    +0.000 C 
ENDBRANCH  20  22
ENDBRANCH  15  16
ENDBRANCH   3  15
TORSDOF 6
ENDMDL
MODEL 7
REMARK VINA RESULT:      -7.2      1.155      1.367
REMARK  Name = 
REMARK  7 active torsions:
REMARK  status: ('A' for Active; 'I' for Inactive)
REMARK    1  A    between atoms: C_1  and  O_2
REMARK    2  A    between atoms: O_2  and  C_3
REMARK    3  A    between atoms: C_6  and  C_7
REMARK    4  A    between atoms: N_9  and  C_10
REMARK    5  A    between atoms: C_10  and  C_11
REMARK    6  A    between atoms: N_15  and  C_16
REMARK    7  A    between atoms: C_23  and  O_24
REMARK                            x       y       z     vdW  Elec       q    Type
REMARK                         _______ _______ _______ _____ _____    ______ ____
ROOT
ATOM      1  C   UNL     1       4.546   3.097  18.018  0.00  0.00    +0.000 C 
ATOM      2  O   UNL     1       3.928   2.098  17.660  0.00  0.00    +0.000 OA
ATOM      3  N   UNL     1       4.436   3.649  19.275  0.00  0.00    +0.000 N 
ATOM      4  H   UNL     1       4.824   4.577  19.425  0.00  0.00    +0.000 HD
ENDROOT
BRANCH   1   8
ATOM      5  C   UNL     1       7.174   5.057  15.211  0.00  0.00    +0.000 A 
ATOM      6  C   UNL     1       6.046   4.355  14.779  0.00  0.00    +0.000 A 
ATOM      7  C   UNL     1       5.199   3.729  15.704  0.00  0.00    +0.000 A 
ATOM      8  C   UNL     1       5.474   3.795  17.077  0.00  0.00    +0.000 A 
ATOM      9  C   UNL     1       6.610   4.502  17.489  0.00  0.00    +0.000 A 
ATOM     10  C   UNL     1       7.444   5.139  16.572  0.00  0.00    +0.000 A 
BRANCH   5  12
ATOM     11  C   UNL     1       7.714   5.114  12.900  0.00  0.00    +0.000 C 
ATOM     12  O   UNL     1       7.936   5.609  14.216  0.00  0.00    +0.000 OA
ENDBRANCH   5  12
BRANCH   9  13
ATOM     13  O   UNL     1       6.996   4.602  18.798  0.00  0.00    +0.000 OA
ATOM     14  H   UNL     1       7.970   4.665  18.788  0.00  0.00    +0.000 HD
ENDBRANCH   9  13
ENDBRANCH   1   8
BRANCH   3  15
ATOM     15  C   UNL     1       3.526   3.166  20.282  0.00  0.00    +0.000 C 
BRANCH  15  16
ATOM     16  C   UNL     1       2.190   3.925  20.295  0.00  0.00    +0.000 C 
ATOM     17  C   UNL     1       1.229   3.441  19.204  0.00  0.00    +0.000 C 
ATOM     18  C   UNL     1       1.387   4.199  17.895  0.00  0.00    +0.000 C 
ATOM     19  C   UNL     1       1.334   5.705  18.122  0.00  0.00    +0.000 C 
ATOM     20  N   UNL     1       2.406   6.180  19.018  0.00  0.00    +0.000 NA
ATOM     21  C   UNL     1       2.347   5.465  20.314  0.00  0.00    +0.000 C 
BRANCH  20  22
ATOM     22  C   UNL     1       2.305   7.672  19.216  0.00  0.00    +0.000 C 
ATOM     23  C   UNL     1       1.355   8.073  20.370  0.00  0.00    +0.000 C 
ATOM     24  C   UNL     1       1.165   9.585  20.455  0.00  0.00    +0.000 C 
ATOM     25  O   UNL     1       0.710  10.116  19.215  0.00  0.00    +0.000 OA
ATOM     26  C   UNL     1       1.655   9.896  18.176  0.00  0.00    +0.000 C 
ATOM     27  C   UNL     1       1.856   8.408  17.934  0.00  0.00    +0.000 C 
ENDBRANCH  20  22
ENDBRANCH  15  16
ENDBRANCH   3  15
TORSDOF 6
ENDMDL
MODEL 8
REMARK VINA RESULT:      -7.2      0.978      1.731
REMARK  Name = 
REMARK  7 active torsions:
REMARK  status: ('A' for Active; 'I' for Inactive)
REMARK    1  A    between atoms: C_1  and  O_2
REMARK    2  A    between atoms: O_2  and  C_3
REMARK    3  A    between atoms: C_6  and  C_7
REMARK    4  A    between atoms: N_9  and  C_10
REMARK    5  A    between atoms: C_10  and  C_11
REMARK    6  A    between atoms: N_15  and  C_16
REMARK    7  A    between atoms: C_23  and  O_24
REMARK                            x       y       z     vdW  Elec       q    Type
REMARK                         _______ _______ _______ _____ _____    ______ ____
ROOT
ATOM      1  C   UNL     1       5.567   3.944  18.805  0.00  0.00    +0.000 C 
ATOM      2  O   UNL     1       6.087   4.551  19.738  0.00  0.00    +0.000 OA
ATOM      3  N   UNL     1       4.644   2.936  18.975  0.00  0.00    +0.000 N 
ATOM      4  H   UNL     1       4.414   2.358  18.171  0.00  0.00    +0.000 HD
ENDROOT
BRANCH   1   8
ATOM      5  C   UNL     1       6.708   4.920  14.759  0.00  0.00    +0.000 A 
ATOM      6  C   UNL     1       7.658   4.827  15.777  0.00  0.00    +0.000 A 
ATOM      7  C   UNL     1       7.273   4.504  17.085  0.00  0.00    +0.000 A 
ATOM      8  C   UNL     1       5.925   4.271  17.391  0.00  0.00    +0.000 A 
ATOM      9  C   UNL     1       4.988   4.370  16.357  0.00  0.00    +0.000 A 
ATOM     10  C   UNL     1       5.371   4.675  15.052  0.00  0.00    +0.000 A 
BRANCH   5  12
ATOM     11  C   UNL     1       7.188   4.240  12.536  0.00  0.00    +0.000 C 
ATOM     12  O   UNL     1       7.199   5.261  13.528  0.00  0.00    +0.000 OA
ENDBRANCH   5  12
BRANCH   9  13
ATOM     13  O   UNL     1       3.642   4.199  16.546  0.00  0.00    +0.000 OA
ATOM     14  H   UNL     1       3.550   3.514  17.235  0.00  0.00    +0.000 HD
ENDBRANCH   9  13
ENDBRANCH   1   8
BRANCH   3  15
ATOM     15  C   UNL     1       4.247   2.427  20.263  0.00  0.00    +0.000 C 
BRANCH  15  16
ATOM     16  C   UNL     1       2.994   3.121  20.820  0.00  0.00    +0.000 C 
ATOM     17  C   UNL     1       1.697   2.525  20.265  0.00  0.00    +0.000 C 
ATOM     18  C   UNL     1       1.229   3.208  18.988  0.00  0.00    +0.000 C 
ATOM     19  C   UNL     1       1.174   4.721  19.163  0.00  0.00    +0.000 C 
ATOM     20  N   UNL     1       2.489   5.301  19.495  0.00  0.00    +0.000 NA
ATOM     21  C   UNL     1       3.038   4.665  20.715  0.00  0.00    +0.000 C 
BRANCH  20  22
ATOM     22  C   UNL     1       2.379   6.795  19.664  0.00  0.00    +0.000 C 
ATOM     23  C   UNL     1       1.331   7.216  20.722  0.00  0.00    +0.000 C 
ATOM     24  C   UNL     1       1.142   8.729  20.770  0.00  0.00    +0.000 C 
ATOM     25  O   UNL     1       0.805   9.246  19.487  0.00  0.00    +0.000 OA
ATOM     26  C   UNL     1       1.840   9.008  18.542  0.00  0.00    +0.000 C 
ATOM     27  C   UNL     1       2.053   7.516  18.337  0.00  0.00    +0.000 C 
ENDBRANCH  20  22
ENDBRANCH  15  16
ENDBRANCH   3  15
TORSDOF 6
ENDMDL
MODEL 9
REMARK VINA RESULT:      -7.1      1.060      2.049
REMARK  Name = 
REMARK  7 active torsions:
REMARK  status: ('A' for Active; 'I' for Inactive)
REMARK    1  A    between atoms: C_1  and  O_2
REMARK    2  A    between atoms: O_2  and  C_3
REMARK    3  A    between atoms: C_6  and  C_7
REMARK    4  A    between atoms: N_9  and  C_10
REMARK    5  A    between atoms: C_10  and  C_11
REMARK    6  A    between atoms: N_15  and  C_16
REMARK    7  A    between atoms: C_23  and  O_24
REMARK                            x       y       z     vdW  Elec       q    Type
REMARK                         _______ _______ _______ _____ _____    ______ ____
ROOT
ATOM      1  C   UNL     1       5.621   4.058  18.859  0.00  0.00    +0.000 C 
ATOM      2  O   UNL     1       6.072   4.819  19.712  0.00  0.00    +0.000 OA
ATOM      3  N   UNL     1       4.810   2.985  19.150  0.00  0.00    +0.000 N 
ATOM      4  H   UNL     1       4.643   2.299  18.418  0.00  0.00    +0.000 HD
ENDROOT
BRANCH   1   8
ATOM      5  C   UNL     1       6.667   4.683  14.718  0.00  0.00    +0.000 A 
ATOM      6  C   UNL     1       7.618   4.807  15.732  0.00  0.00    +0.000 A 
ATOM      7  C   UNL     1       7.265   4.596  17.072  0.00  0.00    +0.000 A 
ATOM      8  C   UNL     1       5.948   4.259  17.414  0.00  0.00    +0.000 A 
ATOM      9  C   UNL     1       5.009   4.140  16.383  0.00  0.00    +0.000 A 
ATOM     10  C   UNL     1       5.362   4.333  15.049  0.00  0.00    +0.000 A 
BRANCH   5  12
ATOM     11  C   UNL     1       6.782   3.974  12.455  0.00  0.00    +0.000 C 
ATOM     12  O   UNL     1       7.124   4.932  13.452  0.00  0.00    +0.000 OA
ENDBRANCH   5  12
BRANCH   9  13
ATOM     13  O   UNL     1       3.689   3.851  16.602  0.00  0.00    +0.000 OA
ATOM     14  H   UNL     1       3.428   4.359  17.393  0.00  0.00    +0.000 HD
ENDBRANCH   9  13
ENDBRANCH   1   8
BRANCH   3  15
ATOM     15  C   UNL     1       4.463   2.587  20.490  0.00  0.00    +0.000 C 
BRANCH  15  16
ATOM     16  C   UNL     1       3.059   3.050  20.909  0.00  0.00    +0.000 C 
ATOM     17  C   UNL     1       1.965   2.068  20.481  0.00  0.00    +0.000 C 
ATOM     18  C   UNL     1       1.404   2.369  19.099  0.00  0.00    +0.000 C 
ATOM     19  C   UNL     1       0.985   3.830  18.983  0.00  0.00    +0.000 C 
ATOM     20  N   UNL     1       2.111   4.760  19.195  0.00  0.00    +0.000 NA
ATOM     21  C   UNL     1       2.741   4.513  20.512  0.00  0.00    +0.000 C 
BRANCH  20  22
ATOM     22  C   UNL     1       1.644   6.189  19.076  0.00  0.00    +0.000 C 
ATOM     23  C   UNL     1       2.404   6.994  17.996  0.00  0.00    +0.000 C 
ATOM     24  C   UNL     1       2.007   8.468  17.996  0.00  0.00    +0.000 C 
ATOM     25  O   UNL     1       2.188   9.049  19.283  0.00  0.00    +0.000 OA
ATOM     26  C   UNL     1       1.366   8.420  20.258  0.00  0.00    +0.000 C 
ATOM     27  C   UNL     1       1.739   6.954  20.416  0.00  0.00    +0.000 C 
ENDBRANCH  20  22
ENDBRANCH  15  16
ENDBRANCH   3  15
TORSDOF 6
ENDMDL
