MODEL 1
REMARK VINA RESULT:      -6.9      0.000      0.000
REMARK  Name = 
REMARK  10 active torsions:
REMARK  status: ('A' for Active; 'I' for Inactive)
REMARK    1  A    between atoms: C_1  and  O_2
REMARK    2  A    between atoms: O_2  and  C_3
REMARK    3  A    between atoms: C_6  and  C_7
REMARK    4  A    between atoms: C_7  and  N_8
REMARK    5  A    between atoms: N_8  and  C_18
REMARK    6  A    between atoms: C_9  and  C_11
REMARK    7  A    between atoms: C_12  and  C_13
REMARK    8  A    between atoms: C_16  and  C_17
REMARK    9  A    between atoms: C_21  and  O_22
REMARK   10  A    between atoms: O_22  and  C_23
REMARK                            x       y       z     vdW  Elec       q    Type
REMARK                         _______ _______ _______ _____ _____    ______ ____
ROOT
ATOM      1  N   UNL     1       3.443   4.421  18.797  0.00  0.00    +0.000 N 
ATOM      2  C   UNL     1       4.432   4.045  17.872  0.00  0.00    +0.000 C 
ATOM      3  O   UNL     1       4.209   2.995  17.254  0.00  0.00    +0.000 OA
ENDROOT
BRANCH   2   4
ATOM      4  C   UNL     1       5.706   4.737  17.549  0.00  0.00    +0.000 A 
ATOM      5  C   UNL     1       6.096   4.946  16.152  0.00  0.00    +0.000 A 
ATOM      6  C   UNL     1       5.384   4.674  14.872  0.00  0.00    +0.000 C 
ATOM      7  N   UNL     1       7.301   5.502  16.041  0.00  0.00    +0.000 NA
ATOM      8  O   UNL     1       7.737   5.686  17.309  0.00  0.00    +0.000 OA
ATOM      9  C   UNL     1       6.808   5.275  18.223  0.00  0.00    +0.000 A 
ATOM     10  C   UNL     1       7.365   5.529  19.570  0.00  0.00    +0.000 C 
ENDBRANCH   2   4
BRANCH   1  11
ATOM     11  C   UNL     1       2.369   3.438  19.058  0.00  0.00    +0.000 C 
ATOM     12  C   UNL     1       2.353   2.491  20.236  0.00  0.00    +0.000 C 
ATOM     13  C   UNL     1       1.373   3.617  20.180  0.00  0.00    +0.000 C 
ENDBRANCH   1  11
BRANCH   1  14
ATOM     14  C   UNL     1       3.418   5.581  19.680  0.00  0.00    +0.000 C 
BRANCH  14  18
ATOM     15  C   UNL     1       2.118   9.347  18.024  0.00  0.00    +0.000 A 
ATOM     16  C   UNL     1       2.913   8.484  17.272  0.00  0.00    +0.000 A 
ATOM     17  C   UNL     1       3.260   7.220  17.761  0.00  0.00    +0.000 A 
ATOM     18  C   UNL     1       2.822   6.809  19.024  0.00  0.00    +0.000 A 
ATOM     19  C   UNL     1       1.913   7.629  19.723  0.00  0.00    +0.000 A 
ATOM     20  C   UNL     1       1.579   8.907  19.236  0.00  0.00    +0.000 A 
BRANCH  15  22
ATOM     21  C   UNL     1       2.021  11.723  18.322  0.00  0.00    +0.000 C 
ATOM     22  O   UNL     1       2.005  10.594  17.465  0.00  0.00    +0.000 OA
ENDBRANCH  15  22
BRANCH  19  23
ATOM     23  O   UNL     1       1.542   7.221  20.978  0.00  0.00    +0.000 OA
ATOM     24  C   UNL     1       0.912   8.211  21.787  0.00  0.00    +0.000 C 
ENDBRANCH  19  23
ENDBRANCH  14  18
ENDBRANCH   1  14
TORSDOF 6
ENDMDL
MODEL 2
REMARK VINA RESULT:      -6.8      1.377      1.743
REMARK  Name = 
REMARK  10 active torsions:
REMARK  status: ('A' for Active; 'I' for Inactive)
REMARK    1  A    between atoms: C_1  and  O_2
REMARK    2  A    between atoms: O_2  and  C_3
REMARK    3  A    between atoms: C_6  and  C_7
REMARK    4  A    between atoms: C_7  and  N_8
REMARK    5  A    between atoms: N_8  and  C_18
REMARK    6  A    between atoms: C_9  and  C_11
REMARK    7  A    between atoms: C_12  and  C_13
REMARK    8  A    between atoms: C_16  and  C_17
REMARK    9  A    between atoms: C_21  and  O_22
REMARK   10  A    between atoms: O_22  and  C_23
REMARK                            x       y       z     vdW  Elec       q    Type
REMARK                         _______ _______ _______ _____ _____    ______ ____
ROOT
ATOM      1  N   UNL     1       4.227   4.007  17.848  0.00  0.00    +0.000 N 
ATOM      2  C   UNL     1       4.973   3.923  16.661  0.00  0.00    +0.000 C 
ATOM      3  O   UNL     1       4.672   2.985  15.911  0.00  0.00    +0.000 OA
ENDROOT
BRANCH   2   4
ATOM      4  C   UNL     1       6.075   4.805  16.196  0.00  0.00    +0.000 A 
ATOM      5  C   UNL     1       6.562   4.709  14.818  0.00  0.00    +0.000 A 
ATOM      6  C   UNL     1       6.087   3.914  13.651  0.00  0.00    +0.000 C 
ATOM      7  N   UNL     1       7.605   5.506  14.593  0.00  0.00    +0.000 NA
ATOM      8  O   UNL     1       7.836   6.144  15.764  0.00  0.00    +0.000 OA
ATOM      9  C   UNL     1       6.932   5.778  16.722  0.00  0.00    +0.000 A 
ATOM     10  C   UNL     1       7.255   6.535  17.951  0.00  0.00    +0.000 C 
ENDBRANCH   2   4
BRANCH   1  11
ATOM     11  C   UNL     1       3.323   2.876  18.147  0.00  0.00    +0.000 C 
ATOM     12  C   UNL     1       3.787   1.457  18.383  0.00  0.00    +0.000 C 
ATOM     13  C   UNL     1       3.242   2.254  19.522  0.00  0.00    +0.000 C 
ENDBRANCH   1  11
BRANCH   1  14
ATOM     14  C   UNL     1       4.349   4.976  18.931  0.00  0.00    +0.000 C 
BRANCH  14  18
ATOM     15  C   UNL     1       1.943   8.556  18.836  0.00  0.00    +0.000 A 
ATOM     16  C   UNL     1       2.826   8.273  17.796  0.00  0.00    +0.000 A 
ATOM     17  C   UNL     1       3.539   7.070  17.768  0.00  0.00    +0.000 A 
ATOM     18  C   UNL     1       3.384   6.136  18.798  0.00  0.00    +0.000 A 
ATOM     19  C   UNL     1       2.396   6.367  19.775  0.00  0.00    +0.000 A 
ATOM     20  C   UNL     1       1.692   7.585  19.809  0.00  0.00    +0.000 A 
BRANCH  15  22
ATOM     21  C   UNL     1       0.652  10.293  19.864  0.00  0.00    +0.000 C 
ATOM     22  O   UNL     1       1.449   9.834  18.786  0.00  0.00    +0.000 OA
ENDBRANCH  15  22
BRANCH  19  23
ATOM     23  O   UNL     1       2.304   5.457  20.797  0.00  0.00    +0.000 OA
ATOM     24  C   UNL     1       1.198   4.560  20.726  0.00  0.00    +0.000 C 
ENDBRANCH  19  23
ENDBRANCH  14  18
ENDBRANCH   1  14
TORSDOF 6
ENDMDL
MODEL 3
REMARK VINA RESULT:      -6.7      2.283      5.511
REMARK  Name = 
REMARK  10 active torsions:
REMARK  status: ('A' for Active; 'I' for Inactive)
REMARK    1  A    between atoms: C_1  and  O_2
REMARK    2  A    between atoms: O_2  and  C_3
REMARK    3  A    between atoms: C_6  and  C_7
REMARK    4  A    between atoms: C_7  and  N_8
REMARK    5  A    between atoms: N_8  and  C_18
REMARK    6  A    between atoms: C_9  and  C_11
REMARK    7  A    between atoms: C_12  and  C_13
REMARK    8  A    between atoms: C_16  and  C_17
REMARK    9  A    between atoms: C_21  and  O_22
REMARK   10  A    between atoms: O_22  and  C_23
REMARK                            x       y       z     vdW  Elec       q    Type
REMARK                         _______ _______ _______ _____ _____    ______ ____
ROOT
ATOM      1  N   UNL     1       2.946   6.192  18.378  0.00  0.00    +0.000 N 
ATOM      2  C   UNL     1       2.274   4.972  18.564  0.00  0.00    +0.000 C 
ATOM      3  O   UNL     1       1.072   4.979  18.269  0.00  0.00    +0.000 OA
ENDROOT
BRANCH   2   4
ATOM      4  C   UNL     1       2.815   3.687  19.076  0.00  0.00    +0.000 A 
ATOM      5  C   UNL     1       3.495   2.761  18.167  0.00  0.00    +0.000 A 
ATOM      6  C   UNL     1       3.877   2.881  16.732  0.00  0.00    +0.000 C 
ATOM      7  N   UNL     1       3.841   1.624  18.769  0.00  0.00    +0.000 NA
ATOM      8  O   UNL     1       3.430   1.750  20.052  0.00  0.00    +0.000 OA
ATOM      9  C   UNL     1       2.849   2.967  20.276  0.00  0.00    +0.000 A 
ATOM     10  C   UNL     1       2.451   3.015  21.699  0.00  0.00    +0.000 C 
ENDBRANCH   2   4
BRANCH   1  11
ATOM     11  C   UNL     1       2.113   7.366  18.042  0.00  0.00    +0.000 C 
ATOM     12  C   UNL     1       1.757   8.462  19.020  0.00  0.00    +0.000 C 
ATOM     13  C   UNL     1       2.698   8.752  17.897  0.00  0.00    +0.000 C 
ENDBRANCH   1  11
BRANCH   1  14
ATOM     14  C   UNL     1       4.344   6.509  18.645  0.00  0.00    +0.000 C 
BRANCH  14  18
ATOM     15  C   UNL     1       6.686   4.887  15.405  0.00  0.00    +0.000 A 
ATOM     16  C   UNL     1       5.650   5.783  15.145  0.00  0.00    +0.000 A 
ATOM     17  C   UNL     1       4.948   6.389  16.192  0.00  0.00    +0.000 A 
ATOM     18  C   UNL     1       5.270   6.091  17.521  0.00  0.00    +0.000 A 
ATOM     19  C   UNL     1       6.399   5.290  17.778  0.00  0.00    +0.000 A 
ATOM     20  C   UNL     1       7.094   4.668  16.723  0.00  0.00    +0.000 A 
BRANCH  15  22
ATOM     21  C   UNL     1       6.223   3.758  13.342  0.00  0.00    +0.000 C 
ATOM     22  O   UNL     1       7.159   4.274  14.273  0.00  0.00    +0.000 OA
ENDBRANCH  15  22
BRANCH  19  23
ATOM     23  O   UNL     1       6.658   4.977  19.088  0.00  0.00    +0.000 OA
ATOM     24  C   UNL     1       7.803   5.607  19.658  0.00  0.00    +0.000 C 
ENDBRANCH  19  23
ENDBRANCH  14  18
ENDBRANCH   1  14
TORSDOF 6
ENDMDL
MODEL 4
REMARK VINA RESULT:      -6.7      1.117      1.179
REMARK  Name = 
REMARK  10 active torsions:
REMARK  status: ('A' for Active; 'I' for Inactive)
REMARK    1  A    between atoms: C_1  and  O_2
REMARK    2  A    between atoms: O_2  and  C_3
REMARK    3  A    between atoms: C_6  and  C_7
REMARK    4  A    between atoms: C_7  and  N_8
REMARK    5  A    between atoms: N_8  and  C_18
REMARK    6  A    between atoms: C_9  and  C_11
REMARK    7  A    between atoms: C_12  and  C_13
REMARK    8  A    between atoms: C_16  and  C_17
REMARK    9  A    between atoms: C_21  and  O_22
REMARK   10  A    between atoms: O_22  and  C_23
REMARK                            x       y       z     vdW  Elec       q    Type
REMARK                         _______ _______ _______ _____ _____    ______ ____
ROOT
ATOM      1  N   UNL     1       2.942   5.310  18.779  0.00  0.00    +0.000 N 
ATOM      2  C   UNL     1       3.988   5.026  17.884  0.00  0.00    +0.000 C 
ATOM      3  O   UNL     1       3.784   4.078  17.115  0.00  0.00    +0.000 OA
ENDROOT
BRANCH   2   4
ATOM      4  C   UNL     1       5.301   5.707  17.750  0.00  0.00    +0.000 A 
ATOM      5  C   UNL     1       5.600   6.500  16.555  0.00  0.00    +0.000 A 
ATOM      6  C   UNL     1       4.763   6.881  15.382  0.00  0.00    +0.000 C 
ATOM      7  N   UNL     1       6.846   6.969  16.557  0.00  0.00    +0.000 NA
ATOM      8  O   UNL     1       7.398   6.533  17.713  0.00  0.00    +0.000 OA
ATOM      9  C   UNL     1       6.505   5.812  18.455  0.00  0.00    +0.000 A 
ATOM     10  C   UNL     1       7.192   5.396  19.698  0.00  0.00    +0.000 C 
ENDBRANCH   2   4
BRANCH   1  11
ATOM     11  C   UNL     1       1.826   4.342  18.827  0.00  0.00    +0.000 C 
ATOM     12  C   UNL     1       1.858   3.048  19.608  0.00  0.00    +0.000 C 
ATOM     13  C   UNL     1       0.971   4.162  20.060  0.00  0.00    +0.000 C 
ENDBRANCH   1  11
BRANCH   1  14
ATOM     14  C   UNL     1       2.883   6.342  19.808  0.00  0.00    +0.000 C 
BRANCH  14  18
ATOM     15  C   UNL     1       1.365  10.204  18.627  0.00  0.00    +0.000 A 
ATOM     16  C   UNL     1       2.027   9.395  17.705  0.00  0.00    +0.000 A 
ATOM     17  C   UNL     1       2.438   8.103  18.049  0.00  0.00    +0.000 A 
ATOM     18  C   UNL     1       2.199   7.608  19.336  0.00  0.00    +0.000 A 
ATOM     19  C   UNL     1       1.416   8.376  20.220  0.00  0.00    +0.000 A 
ATOM     20  C   UNL     1       1.019   9.683  19.876  0.00  0.00    +0.000 A 
BRANCH  15  22
ATOM     21  C   UNL     1       2.270  12.382  18.205  0.00  0.00    +0.000 C 
ATOM     22  O   UNL     1       1.174  11.484  18.176  0.00  0.00    +0.000 OA
ENDBRANCH  15  22
BRANCH  19  23
ATOM     23  O   UNL     1       1.243   7.885  21.489  0.00  0.00    +0.000 OA
ATOM     24  C   UNL     1       0.956   8.856  22.492  0.00  0.00    +0.000 C 
ENDBRANCH  19  23
ENDBRANCH  14  18
ENDBRANCH   1  14
TORSDOF 6
ENDMDL
MODEL 5
REMARK VINA RESULT:      -6.7      2.251      5.708
REMARK  Name = 
REMARK  10 active torsions:
REMARK  status: ('A' for Active; 'I' for Inactive)
REMARK    1  A    between atoms: C_1  and  O_2
REMARK    2  A    between atoms: O_2  and  C_3
REMARK    3  A    between atoms: C_6  and  C_7
REMARK    4  A    between atoms: C_7  and  N_8
REMARK    5  A    between atoms: N_8  and  C_18
REMARK    6  A    between atoms: C_9  and  C_11
REMARK    7  A    between atoms: C_12  and  C_13
REMARK    8  A    between atoms: C_16  and  C_17
REMARK    9  A    between atoms: C_21  and  O_22
REMARK   10  A    between atoms: O_22  and  C_23
REMARK                            x       y       z     vdW  Elec       q    Type
REMARK                         _______ _______ _______ _____ _____    ______ ____
ROOT
ATOM      1  N   UNL     1       2.978   6.237  18.260  0.00  0.00    +0.000 N 
ATOM      2  C   UNL     1       2.367   4.989  18.471  0.00  0.00    +0.000 C 
ATOM      3  O   UNL     1       1.149   4.951  18.250  0.00  0.00    +0.000 OA
ENDROOT
BRANCH   2   4
ATOM      4  C   UNL     1       2.988   3.721  18.932  0.00  0.00    +0.000 A 
ATOM      5  C   UNL     1       2.930   3.345  20.347  0.00  0.00    +0.000 A 
ATOM      6  C   UNL     1       2.241   3.969  21.512  0.00  0.00    +0.000 C 
ATOM      7  N   UNL     1       3.606   2.227  20.601  0.00  0.00    +0.000 NA
ATOM      8  O   UNL     1       4.112   1.827  19.412  0.00  0.00    +0.000 OA
ATOM      9  C   UNL     1       3.740   2.668  18.401  0.00  0.00    +0.000 A 
ATOM     10  C   UNL     1       4.323   2.142  17.147  0.00  0.00    +0.000 C 
ENDBRANCH   2   4
BRANCH   1  11
ATOM     11  C   UNL     1       2.080   7.380  17.992  0.00  0.00    +0.000 C 
ATOM     12  C   UNL     1       1.781   8.477  18.988  0.00  0.00    +0.000 C 
ATOM     13  C   UNL     1       2.605   8.781  17.780  0.00  0.00    +0.000 C 
ENDBRANCH   1  11
BRANCH   1  14
ATOM     14  C   UNL     1       4.376   6.607  18.446  0.00  0.00    +0.000 C 
BRANCH  14  18
ATOM     15  C   UNL     1       6.619   4.721  15.279  0.00  0.00    +0.000 A 
ATOM     16  C   UNL     1       5.631   5.658  14.981  0.00  0.00    +0.000 A 
ATOM     17  C   UNL     1       4.965   6.346  16.000  0.00  0.00    +0.000 A 
ATOM     18  C   UNL     1       5.275   6.091  17.341  0.00  0.00    +0.000 A 
ATOM     19  C   UNL     1       6.361   5.243  17.633  0.00  0.00    +0.000 A 
ATOM     20  C   UNL     1       7.018   4.540  16.605  0.00  0.00    +0.000 A 
BRANCH  15  22
ATOM     21  C   UNL     1       6.108   3.675  13.184  0.00  0.00    +0.000 C 
ATOM     22  O   UNL     1       7.055   4.034  14.175  0.00  0.00    +0.000 OA
ENDBRANCH  15  22
BRANCH  19  23
ATOM     23  O   UNL     1       6.607   4.976  18.955  0.00  0.00    +0.000 OA
ATOM     24  C   UNL     1       7.705   5.678  19.532  0.00  0.00    +0.000 C 
ENDBRANCH  19  23
ENDBRANCH  14  18
ENDBRANCH   1  14
TORSDOF 6
ENDMDL
MODEL 6
REMARK VINA RESULT:      -6.7      1.576      2.233
REMARK  Name = 
REMARK  10 active torsions:
REMARK  status: ('A' for Active; 'I' for Inactive)
REMARK    1  A    between atoms: C_1  and  O_2
REMARK    2  A    between atoms: O_2  and  C_3
REMARK    3  A    between atoms: C_6  and  C_7
REMARK    4  A    between atoms: C_7  and  N_8
REMARK    5  A    between atoms: N_8  and  C_18
REMARK    6  A    between atoms: C_9  and  C_11
REMARK    7  A    between atoms: C_12  and  C_13
REMARK    8  A    between atoms: C_16  and  C_17
REMARK    9  A    between atoms: C_21  and  O_22
REMARK   10  A    between atoms: O_22  and  C_23
REMARK                            x       y       z     vdW  Elec       q    Type
REMARK                         _______ _______ _______ _____ _____    ______ ____
ROOT
ATOM      1  N   UNL     1       4.433   3.631  18.128  0.00  0.00    +0.000 N 
ATOM      2  C   UNL     1       5.366   4.208  17.250  0.00  0.00    +0.000 C 
ATOM      3  O   UNL     1       5.481   3.644  16.154  0.00  0.00    +0.000 OA
ENDROOT
BRANCH   2   4
ATOM      4  C   UNL     1       6.234   5.393  17.471  0.00  0.00    +0.000 A 
ATOM      5  C   UNL     1       6.144   6.548  16.574  0.00  0.00    +0.000 A 
ATOM      6  C   UNL     1       5.223   6.857  15.444  0.00  0.00    +0.000 C 
ATOM      7  N   UNL     1       7.047   7.484  16.862  0.00  0.00    +0.000 NA
ATOM      8  O   UNL     1       7.737   7.010  17.925  0.00  0.00    +0.000 OA
ATOM      9  C   UNL     1       7.264   5.794  18.330  0.00  0.00    +0.000 A 
ATOM     10  C   UNL     1       8.066   5.370  19.498  0.00  0.00    +0.000 C 
ENDBRANCH   2   4
BRANCH   1  11
ATOM     11  C   UNL     1       3.852   2.333  17.722  0.00  0.00    +0.000 C 
ATOM     12  C   UNL     1       3.729   1.135  18.636  0.00  0.00    +0.000 C 
ATOM     13  C   UNL     1       2.500   1.870  18.213  0.00  0.00    +0.000 C 
ENDBRANCH   1  11
BRANCH   1  14
ATOM     14  C   UNL     1       4.083   4.045  19.482  0.00  0.00    +0.000 C 
BRANCH  14  18
ATOM     15  C   UNL     1       1.722   7.640  19.822  0.00  0.00    +0.000 A 
ATOM     16  C   UNL     1       2.475   7.398  18.674  0.00  0.00    +0.000 A 
ATOM     17  C   UNL     1       3.167   6.193  18.512  0.00  0.00    +0.000 A 
ATOM     18  C   UNL     1       3.122   5.215  19.512  0.00  0.00    +0.000 A 
ATOM     19  C   UNL     1       2.256   5.409  20.606  0.00  0.00    +0.000 A 
ATOM     20  C   UNL     1       1.575   6.629  20.775  0.00  0.00    +0.000 A 
BRANCH  15  22
ATOM     21  C   UNL     1       1.307   9.728  18.721  0.00  0.00    +0.000 C 
ATOM     22  O   UNL     1       1.240   8.922  19.885  0.00  0.00    +0.000 OA
ENDBRANCH  15  22
BRANCH  19  23
ATOM     23  O   UNL     1       2.273   4.455  21.592  0.00  0.00    +0.000 OA
ATOM     24  C   UNL     1       1.420   3.333  21.378  0.00  0.00    +0.000 C 
ENDBRANCH  19  23
ENDBRANCH  14  18
ENDBRANCH   1  14
TORSDOF 6
ENDMDL
MODEL 7
REMARK VINA RESULT:      -6.5      1.271      2.013
REMARK  Name = 
REMARK  10 active torsions:
REMARK  status: ('A' for Active; 'I' for Inactive)
REMARK    1  A    between atoms: C_1  and  O_2
REMARK    2  A    between atoms: O_2  and  C_3
REMARK    3  A    between atoms: C_6  and  C_7
REMARK    4  A    between atoms: C_7  and  N_8
REMARK    5  A    between atoms: N_8  and  C_18
REMARK    6  A    between atoms: C_9  and  C_11
REMARK    7  A    between atoms: C_12  and  C_13
REMARK    8  A    between atoms: C_16  and  C_17
REMARK    9  A    between atoms: C_21  and  O_22
REMARK   10  A    between atoms: O_22  and  C_23
REMARK                            x       y       z     vdW  Elec       q    Type
REMARK                         _______ _______ _______ _____ _____    ______ ____
ROOT
ATOM      1  N   UNL     1       2.743   5.315  18.840  0.00  0.00    +0.000 N 
ATOM      2  C   UNL     1       3.600   4.989  17.775  0.00  0.00    +0.000 C 
ATOM      3  O   UNL     1       3.276   3.989  17.121  0.00  0.00    +0.000 OA
ENDROOT
BRANCH   2   4
ATOM      4  C   UNL     1       4.841   5.682  17.342  0.00  0.00    +0.000 A 
ATOM      5  C   UNL     1       6.012   5.711  18.222  0.00  0.00    +0.000 A 
ATOM      6  C   UNL     1       6.283   5.061  19.535  0.00  0.00    +0.000 C 
ATOM      7  N   UNL     1       7.005   6.442  17.718  0.00  0.00    +0.000 NA
ATOM      8  O   UNL     1       6.554   6.899  16.527  0.00  0.00    +0.000 OA
ATOM      9  C   UNL     1       5.294   6.444  16.260  0.00  0.00    +0.000 A 
ATOM     10  C   UNL     1       4.897   6.980  14.939  0.00  0.00    +0.000 C 
ENDBRANCH   2   4
BRANCH   1  11
ATOM     11  C   UNL     1       1.687   4.333  19.168  0.00  0.00    +0.000 C 
ATOM     12  C   UNL     1       1.856   3.200  20.153  0.00  0.00    +0.000 C 
ATOM     13  C   UNL     1       0.961   4.346  20.493  0.00  0.00    +0.000 C 
ENDBRANCH   1  11
BRANCH   1  14
ATOM     14  C   UNL     1       2.858   6.410  19.796  0.00  0.00    +0.000 C 
BRANCH  14  18
ATOM     15  C   UNL     1       1.268  10.248  18.631  0.00  0.00    +0.000 A 
ATOM     16  C   UNL     1       1.868   9.418  17.686  0.00  0.00    +0.000 A 
ATOM     17  C   UNL     1       2.299   8.133  18.031  0.00  0.00    +0.000 A 
ATOM     18  C   UNL     1       2.145   7.667  19.342  0.00  0.00    +0.000 A 
ATOM     19  C   UNL     1       1.422   8.456  20.258  0.00  0.00    +0.000 A 
ATOM     20  C   UNL     1       1.004   9.755  19.912  0.00  0.00    +0.000 A 
BRANCH  15  22
ATOM     21  C   UNL     1       1.932  12.550  18.571  0.00  0.00    +0.000 C 
ATOM     22  O   UNL     1       1.049  11.518  18.165  0.00  0.00    +0.000 OA
ENDBRANCH  15  22
BRANCH  19  23
ATOM     23  O   UNL     1       1.332   7.994  21.546  0.00  0.00    +0.000 OA
ATOM     24  C   UNL     1       0.966   8.963  22.524  0.00  0.00    +0.000 C 
ENDBRANCH  19  23
ENDBRANCH  14  18
ENDBRANCH   1  14
TORSDOF 6
ENDMDL
MODEL 8
REMARK VINA RESULT:      -6.3      1.845      4.490
REMARK  Name = 
REMARK  10 active torsions:
REMARK  status: ('A' for Active; 'I' for Inactive)
REMARK    1  A    between atoms: C_1  and  O_2
REMARK    2  A    between atoms: O_2  and  C_3
REMARK    3  A    between atoms: C_6  and  C_7
REMARK    4  A    between atoms: C_7  and  N_8
REMARK    5  A    between atoms: N_8  and  C_18
REMARK    6  A    between atoms: C_9  and  C_11
REMARK    7  A    between atoms: C_12  and  C_13
REMARK    8  A    between atoms: C_16  and  C_17
REMARK    9  A    between atoms: C_21  and  O_22
REMARK   10  A    between atoms: O_22  and  C_23
REMARK                            x       y       z     vdW  Elec       q    Type
REMARK                         _______ _______ _______ _____ _____    ______ ____
ROOT
ATOM      1  N   UNL     1       4.255   5.620  18.581  0.00  0.00    +0.000 N 
ATOM      2  C   UNL     1       4.238   4.330  19.138  0.00  0.00    +0.000 C 
ATOM      3  O   UNL     1       5.345   3.875  19.455  0.00  0.00    +0.000 OA
ENDROOT
BRANCH   2   4
ATOM      4  C   UNL     1       3.070   3.445  19.386  0.00  0.00    +0.000 A 
ATOM      5  C   UNL     1       2.374   2.815  18.262  0.00  0.00    +0.000 A 
ATOM      6  C   UNL     1       2.664   2.794  16.800  0.00  0.00    +0.000 C 
ATOM      7  N   UNL     1       1.304   2.125  18.652  0.00  0.00    +0.000 NA
ATOM      8  O   UNL     1       1.256   2.256  19.998  0.00  0.00    +0.000 OA
ATOM      9  C   UNL     1       2.301   3.002  20.467  0.00  0.00    +0.000 A 
ATOM     10  C   UNL     1       2.171   3.075  21.939  0.00  0.00    +0.000 C 
ENDBRANCH   2   4
BRANCH   1  11
ATOM     11  C   UNL     1       5.582   6.191  18.266  0.00  0.00    +0.000 C 
ATOM     12  C   UNL     1       6.422   5.781  17.078  0.00  0.00    +0.000 C 
ATOM     13  C   UNL     1       5.795   7.136  17.106  0.00  0.00    +0.000 C 
ENDBRANCH   1  11
BRANCH   1  14
ATOM     14  C   UNL     1       3.132   6.415  18.097  0.00  0.00    +0.000 C 
BRANCH  14  18
ATOM     15  C   UNL     1       0.645   8.362  21.037  0.00  0.00    +0.000 A 
ATOM     16  C   UNL     1       1.181   7.100  21.291  0.00  0.00    +0.000 A 
ATOM     17  C   UNL     1       2.066   6.502  20.388  0.00  0.00    +0.000 A 
ATOM     18  C   UNL     1       2.416   7.160  19.204  0.00  0.00    +0.000 A 
ATOM     19  C   UNL     1       1.977   8.485  19.014  0.00  0.00    +0.000 A 
ATOM     20  C   UNL     1       1.074   9.079  19.916  0.00  0.00    +0.000 A 
BRANCH  15  22
ATOM     21  C   UNL     1      -0.025   9.778  22.850  0.00  0.00    +0.000 C 
ATOM     22  O   UNL     1      -0.315   8.728  21.944  0.00  0.00    +0.000 OA
ENDBRANCH  15  22
BRANCH  19  23
ATOM     23  O   UNL     1       2.296   9.084  17.822  0.00  0.00    +0.000 OA
ATOM     24  C   UNL     1       2.226  10.507  17.809  0.00  0.00    +0.000 C 
ENDBRANCH  19  23
ENDBRANCH  14  18
ENDBRANCH   1  14
TORSDOF 6
ENDMDL
MODEL 9
REMARK VINA RESULT:      -6.2      2.077      5.707
REMARK  Name = 
REMARK  10 active torsions:
REMARK  status: ('A' for Active; 'I' for Inactive)
REMARK    1  A    between atoms: C_1  and  O_2
REMARK    2  A    between atoms: O_2  and  C_3
REMARK    3  A    between atoms: C_6  and  C_7
REMARK    4  A    between atoms: C_7  and  N_8
REMARK    5  A    between atoms: N_8  and  C_18
REMARK    6  A    between atoms: C_9  and  C_11
REMARK    7  A    between atoms: C_12  and  C_13
REMARK    8  A    between atoms: C_16  and  C_17
REMARK    9  A    between atoms: C_21  and  O_22
REMARK   10  A    between atoms: O_22  and  C_23
REMARK                            x       y       z     vdW  Elec       q    Type
REMARK                         _______ _______ _______ _____ _____    ______ ____
ROOT
ATOM      1  N   UNL     1       3.661   4.140  19.271  0.00  0.00    +0.000 N 
ATOM      2  C   UNL     1       2.600   5.052  19.142  0.00  0.00    +0.000 C 
ATOM      3  O   UNL     1       1.468   4.574  19.296  0.00  0.00    +0.000 OA
ENDROOT
BRANCH   2   4
ATOM      4  C   UNL     1       2.661   6.505  18.837  0.00  0.00    +0.000 A 
ATOM      5  C   UNL     1       1.984   7.468  19.709  0.00  0.00    +0.000 A 
ATOM      6  C   UNL     1       1.260   7.300  21.000  0.00  0.00    +0.000 C 
ATOM      7  N   UNL     1       2.066   8.714  19.246  0.00  0.00    +0.000 NA
ATOM      8  O   UNL     1       2.782   8.632  18.101  0.00  0.00    +0.000 OA
ATOM      9  C   UNL     1       3.175   7.348  17.846  0.00  0.00    +0.000 A 
ATOM     10  C   UNL     1       3.959   7.362  16.591  0.00  0.00    +0.000 C 
ENDBRANCH   2   4
BRANCH   1  11
ATOM     11  C   UNL     1       3.299   2.710  19.380  0.00  0.00    +0.000 C 
ATOM     12  C   UNL     1       3.398   1.720  18.242  0.00  0.00    +0.000 C 
ATOM     13  C   UNL     1       4.342   1.617  19.395  0.00  0.00    +0.000 C 
ENDBRANCH   1  11
BRANCH   1  14
ATOM     14  C   UNL     1       5.091   4.385  19.131  0.00  0.00    +0.000 C 
BRANCH  14  18
ATOM     15  C   UNL     1       6.490   4.434  15.050  0.00  0.00    +0.000 A 
ATOM     16  C   UNL     1       5.163   4.116  15.336  0.00  0.00    +0.000 A 
ATOM     17  C   UNL     1       4.675   4.191  16.645  0.00  0.00    +0.000 A 
ATOM     18  C   UNL     1       5.520   4.576  17.691  0.00  0.00    +0.000 A 
ATOM     19  C   UNL     1       6.820   5.021  17.379  0.00  0.00    +0.000 A 
ATOM     20  C   UNL     1       7.314   4.929  16.064  0.00  0.00    +0.000 A 
BRANCH  15  22
ATOM     21  C   UNL     1       5.892   3.510  12.921  0.00  0.00    +0.000 C 
ATOM     22  O   UNL     1       6.838   4.159  13.753  0.00  0.00    +0.000 OA
ENDBRANCH  15  22
BRANCH  19  23
ATOM     23  O   UNL     1       7.638   5.344  18.431  0.00  0.00    +0.000 OA
ATOM     24  C   UNL     1       7.971   6.724  18.553  0.00  0.00    +0.000 C 
ENDBRANCH  19  23
ENDBRANCH  14  18
ENDBRANCH   1  14
TORSDOF 6
ENDMDL
