MODEL 1
REMARK VINA RESULT:      -8.1      0.000      0.000
REMARK  Name = 
REMARK  9 active torsions:
REMARK  status: ('A' for Active; 'I' for Inactive)
REMARK    1  A    between atoms: C_1  and  O_2
REMARK    2  A    between atoms: O_2  and  C_3
REMARK    3  A    between atoms: C_4  and  C_5
REMARK    4  A    between atoms: C_11  and  C_12
REMARK    5  A    between atoms: C_14  and  S_15
REMARK    6  A    between atoms: S_15  and  N_18
REMARK    7  A    between atoms: N_18  and  C_19
REMARK    8  A    between atoms: C_24  and  C_25
REMARK    9  A    between atoms: C_25  and  O_27
REMARK                            x       y       z     vdW  Elec       q    Type
REMARK                         _______ _______ _______ _____ _____    ______ ____
ROOT
ATOM      1  C   UNL     1      -1.891  13.152  20.846  0.00  0.00    +0.000 A 
ATOM      2  C   UNL     1      -1.431  13.002  22.192  0.00  0.00    +0.000 A 
ATOM      3  C   UNL     1      -0.806  11.778  22.488  0.00  0.00    +0.000 A 
ATOM      4  C   UNL     1      -0.641  10.753  21.517  0.00  0.00    +0.000 A 
ATOM      5  C   UNL     1      -1.061  10.935  20.172  0.00  0.00    +0.000 A 
ATOM      6  C   UNL     1      -0.975   9.950  19.143  0.00  0.00    +0.000 A 
ATOM      7  C   UNL     1      -1.382  10.179  17.825  0.00  0.00    +0.000 A 
ATOM      8  C   UNL     1      -1.869  11.386  17.470  0.00  0.00    +0.000 A 
ATOM      9  C   UNL     1      -1.950  12.365  18.453  0.00  0.00    +0.000 A 
ATOM     10  C   UNL     1      -1.642  12.173  19.813  0.00  0.00    +0.000 A 
ENDROOT
BRANCH   2  11
ATOM     11  C   UNL     1      -1.667  14.029  23.292  0.00  0.00    +0.000 A 
ATOM     12  C   UNL     1      -0.754  15.121  23.413  0.00  0.00    +0.000 A 
ATOM     13  C   UNL     1      -0.816  16.056  24.454  0.00  0.00    +0.000 A 
ATOM     14  C   UNL     1      -1.790  15.924  25.420  0.00  0.00    +0.000 A 
ATOM     15  F   UNL     1      -1.831  16.774  26.453  0.00  0.00    +0.000 F 
ATOM     16  C   UNL     1      -2.735  14.917  25.325  0.00  0.00    +0.000 A 
ATOM     17  C   UNL     1      -2.720  13.989  24.260  0.00  0.00    +0.000 A 
ATOM     18  C   UNL     1      -3.884  13.026  24.260  0.00  0.00    +0.000 C 
ENDBRANCH   2  11
BRANCH   4  19
ATOM     19  S   UNL     1       0.208   9.260  22.052  0.00  0.00    +0.000 S 
ATOM     20  O   UNL     1       0.689   9.399  23.398  0.00  0.00    +0.000 OA
ATOM     21  O   UNL     1      -0.639   8.124  21.714  0.00  0.00    +0.000 OA
BRANCH  19  22
ATOM     22  N   UNL     1       1.575   9.177  21.034  0.00  0.00    +0.000 N 
ATOM     23  H   UNL     1       2.389   9.465  21.577  0.00  0.00    +0.000 HD
BRANCH  22  24
ATOM     24  C   UNL     1       1.747   7.990  20.256  0.00  0.00    +0.000 A 
ATOM     25  C   UNL     1       2.172   8.058  18.927  0.00  0.00    +0.000 A 
ATOM     26  C   UNL     1       2.398   6.881  18.208  0.00  0.00    +0.000 A 
ATOM     27  C   UNL     1       2.208   5.647  18.827  0.00  0.00    +0.000 A 
ATOM     28  F   UNL     1       2.445   4.533  18.117  0.00  0.00    +0.000 F 
ATOM     29  C   UNL     1       1.789   5.562  20.154  0.00  0.00    +0.000 A 
ATOM     30  C   UNL     1       1.552   6.749  20.865  0.00  0.00    +0.000 A 
BRANCH  29  31
ATOM     31  C   UNL     1       1.593   4.272  20.859  0.00  0.00    +0.000 C 
ATOM     32  O   UNL     1       2.334   3.918  21.763  0.00  0.00    +0.000 OA
BRANCH  31  33
ATOM     33  O   UNL     1       0.558   3.517  20.440  0.00  0.00    +0.000 OA
ATOM     34  H   UNL     1       0.246   3.677  19.526  0.00  0.00    +0.000 HD
ENDBRANCH  31  33
ENDBRANCH  29  31
ENDBRANCH  22  24
ENDBRANCH  19  22
ENDBRANCH   4  19
BRANCH   1  36
ATOM     35  C   UNL     1      -4.083  14.302  20.775  0.00  0.00    +0.000 C 
ATOM     36  O   UNL     1      -2.675  14.258  20.663  0.00  0.00    +0.000 OA
ENDBRANCH   1  36
TORSDOF 7
ENDMDL
MODEL 2
REMARK VINA RESULT:      -8.1      3.353      4.508
REMARK  Name = 
REMARK  9 active torsions:
REMARK  status: ('A' for Active; 'I' for Inactive)
REMARK    1  A    between atoms: C_1  and  O_2
REMARK    2  A    between atoms: O_2  and  C_3
REMARK    3  A    between atoms: C_4  and  C_5
REMARK    4  A    between atoms: C_11  and  C_12
REMARK    5  A    between atoms: C_14  and  S_15
REMARK    6  A    between atoms: S_15  and  N_18
REMARK    7  A    between atoms: N_18  and  C_19
REMARK    8  A    between atoms: C_24  and  C_25
REMARK    9  A    between atoms: C_25  and  O_27
REMARK                            x       y       z     vdW  Elec       q    Type
REMARK                         _______ _______ _______ _____ _____    ______ ____
ROOT
ATOM      1  C   UNL     1       0.107  12.924  21.101  0.00  0.00    +0.000 A 
ATOM      2  C   UNL     1       0.660  13.228  19.817  0.00  0.00    +0.000 A 
ATOM      3  C   UNL     1       1.067  12.120  19.053  0.00  0.00    +0.000 A 
ATOM      4  C   UNL     1       0.938  10.783  19.521  0.00  0.00    +0.000 A 
ATOM      5  C   UNL     1       0.342  10.495  20.778  0.00  0.00    +0.000 A 
ATOM      6  C   UNL     1       0.209   9.193  21.345  0.00  0.00    +0.000 A 
ATOM      7  C   UNL     1      -0.404   8.951  22.579  0.00  0.00    +0.000 A 
ATOM      8  C   UNL     1      -0.923   9.977  23.286  0.00  0.00    +0.000 A 
ATOM      9  C   UNL     1      -0.817  11.253  22.746  0.00  0.00    +0.000 A 
ATOM     10  C   UNL     1      -0.136  11.574  21.557  0.00  0.00    +0.000 A 
ENDROOT
BRANCH   2  11
ATOM     11  C   UNL     1       0.908  14.642  19.309  0.00  0.00    +0.000 A 
ATOM     12  C   UNL     1      -0.191  15.371  18.761  0.00  0.00    +0.000 A 
ATOM     13  C   UNL     1      -0.050  16.632  18.167  0.00  0.00    +0.000 A 
ATOM     14  C   UNL     1       1.201  17.205  18.093  0.00  0.00    +0.000 A 
ATOM     15  F   UNL     1       1.365  18.383  17.480  0.00  0.00    +0.000 F 
ATOM     16  C   UNL     1       2.294  16.569  18.655  0.00  0.00    +0.000 A 
ATOM     17  C   UNL     1       2.169  15.317  19.299  0.00  0.00    +0.000 A 
ATOM     18  C   UNL     1       3.442  14.822  19.945  0.00  0.00    +0.000 C 
ENDBRANCH   2  11
BRANCH   4  19
ATOM     19  S   UNL     1       1.477   9.479  18.405  0.00  0.00    +0.000 S 
ATOM     20  O   UNL     1       0.358   8.702  17.949  0.00  0.00    +0.000 OA
ATOM     21  O   UNL     1       2.373  10.078  17.425  0.00  0.00    +0.000 OA
BRANCH  19  22
ATOM     22  N   UNL     1       2.429   8.462  19.390  0.00  0.00    +0.000 N 
ATOM     23  H   UNL     1       2.212   8.675  20.363  0.00  0.00    +0.000 HD
BRANCH  22  24
ATOM     24  C   UNL     1       2.467   7.072  19.060  0.00  0.00    +0.000 A 
ATOM     25  C   UNL     1       3.068   6.631  17.878  0.00  0.00    +0.000 A 
ATOM     26  C   UNL     1       3.153   5.262  17.611  0.00  0.00    +0.000 A 
ATOM     27  C   UNL     1       2.647   4.345  18.531  0.00  0.00    +0.000 A 
ATOM     28  F   UNL     1       2.755   3.037  18.253  0.00  0.00    +0.000 F 
ATOM     29  C   UNL     1       2.050   4.769  19.716  0.00  0.00    +0.000 A 
ATOM     30  C   UNL     1       1.957   6.146  19.972  0.00  0.00    +0.000 A 
BRANCH  29  31
ATOM     31  C   UNL     1       1.518   3.830  20.734  0.00  0.00    +0.000 C 
ATOM     32  O   UNL     1       2.061   3.685  21.817  0.00  0.00    +0.000 OA
BRANCH  31  33
ATOM     33  O   UNL     1       0.407   3.149  20.388  0.00  0.00    +0.000 OA
ATOM     34  H   UNL     1      -0.430   3.654  20.385  0.00  0.00    +0.000 HD
ENDBRANCH  31  33
ENDBRANCH  29  31
ENDBRANCH  22  24
ENDBRANCH  19  22
ENDBRANCH   4  19
BRANCH   1  36
ATOM     35  C   UNL     1      -1.309  14.648  22.174  0.00  0.00    +0.000 C 
ATOM     36  O   UNL     1      -0.072  14.029  21.887  0.00  0.00    +0.000 OA
ENDBRANCH   1  36
TORSDOF 7
ENDMDL
MODEL 3
REMARK VINA RESULT:      -8.0      3.508      4.653
REMARK  Name = 
REMARK  9 active torsions:
REMARK  status: ('A' for Active; 'I' for Inactive)
REMARK    1  A    between atoms: C_1  and  O_2
REMARK    2  A    between atoms: O_2  and  C_3
REMARK    3  A    between atoms: C_4  and  C_5
REMARK    4  A    between atoms: C_11  and  C_12
REMARK    5  A    between atoms: C_14  and  S_15
REMARK    6  A    between atoms: S_15  and  N_18
REMARK    7  A    between atoms: N_18  and  C_19
REMARK    8  A    between atoms: C_24  and  C_25
REMARK    9  A    between atoms: C_25  and  O_27
REMARK                            x       y       z     vdW  Elec       q    Type
REMARK                         _______ _______ _______ _____ _____    ______ ____
ROOT
ATOM      1  C   UNL     1       0.198  12.794  21.104  0.00  0.00    +0.000 A 
ATOM      2  C   UNL     1       0.704  13.162  19.817  0.00  0.00    +0.000 A 
ATOM      3  C   UNL     1       1.069  12.093  18.980  0.00  0.00    +0.000 A 
ATOM      4  C   UNL     1       0.946  10.735  19.382  0.00  0.00    +0.000 A 
ATOM      5  C   UNL     1       0.398  10.385  20.645  0.00  0.00    +0.000 A 
ATOM      6  C   UNL     1       0.276   9.055  21.148  0.00  0.00    +0.000 A 
ATOM      7  C   UNL     1      -0.290   8.753  22.391  0.00  0.00    +0.000 A 
ATOM      8  C   UNL     1      -0.771   9.744  23.171  0.00  0.00    +0.000 A 
ATOM      9  C   UNL     1      -0.675  11.046  22.695  0.00  0.00    +0.000 A 
ATOM     10  C   UNL     1      -0.038  11.425  21.498  0.00  0.00    +0.000 A 
ENDROOT
BRANCH   2  11
ATOM     11  C   UNL     1       0.944  14.599  19.375  0.00  0.00    +0.000 A 
ATOM     12  C   UNL     1      -0.154  15.340  18.840  0.00  0.00    +0.000 A 
ATOM     13  C   UNL     1      -0.017  16.627  18.304  0.00  0.00    +0.000 A 
ATOM     14  C   UNL     1       1.229  17.215  18.275  0.00  0.00    +0.000 A 
ATOM     15  F   UNL     1       1.389  18.421  17.716  0.00  0.00    +0.000 F 
ATOM     16  C   UNL     1       2.319  16.567  18.828  0.00  0.00    +0.000 A 
ATOM     17  C   UNL     1       2.197  15.287  19.414  0.00  0.00    +0.000 A 
ATOM     18  C   UNL     1       3.465  14.778  20.059  0.00  0.00    +0.000 C 
ENDBRANCH   2  11
BRANCH   4  19
ATOM     19  S   UNL     1       1.429   9.488  18.179  0.00  0.00    +0.000 S 
ATOM     20  O   UNL     1       0.274   8.907  17.552  0.00  0.00    +0.000 OA
ATOM     21  O   UNL     1       2.477  10.060  17.345  0.00  0.00    +0.000 OA
BRANCH  19  22
ATOM     22  N   UNL     1       2.159   8.267  19.122  0.00  0.00    +0.000 N 
ATOM     23  H   UNL     1       1.517   8.028  19.877  0.00  0.00    +0.000 HD
BRANCH  22  24
ATOM     24  C   UNL     1       2.733   7.155  18.430  0.00  0.00    +0.000 A 
ATOM     25  C   UNL     1       3.823   7.328  17.573  0.00  0.00    +0.000 A 
ATOM     26  C   UNL     1       4.410   6.216  16.963  0.00  0.00    +0.000 A 
ATOM     27  C   UNL     1       3.910   4.942  17.221  0.00  0.00    +0.000 A 
ATOM     28  F   UNL     1       4.502   3.892  16.631  0.00  0.00    +0.000 F 
ATOM     29  C   UNL     1       2.827   4.752  18.077  0.00  0.00    +0.000 A 
ATOM     30  C   UNL     1       2.234   5.875  18.677  0.00  0.00    +0.000 A 
BRANCH  29  31
ATOM     31  C   UNL     1       2.274   3.413  18.398  0.00  0.00    +0.000 C 
ATOM     32  O   UNL     1       2.931   2.577  18.997  0.00  0.00    +0.000 OA
BRANCH  31  33
ATOM     33  O   UNL     1       1.013   3.178  17.985  0.00  0.00    +0.000 OA
ATOM     34  H   UNL     1       0.329   3.126  18.683  0.00  0.00    +0.000 HD
ENDBRANCH  31  33
ENDBRANCH  29  31
ENDBRANCH  22  24
ENDBRANCH  19  22
ENDBRANCH   4  19
BRANCH   1  36
ATOM     35  C   UNL     1      -1.157  14.479  22.311  0.00  0.00    +0.000 C 
ATOM     36  O   UNL     1       0.060  13.858  21.954  0.00  0.00    +0.000 OA
ENDBRANCH   1  36
TORSDOF 7
ENDMDL
MODEL 4
REMARK VINA RESULT:      -8.0      5.605      8.893
REMARK  Name = 
REMARK  9 active torsions:
REMARK  status: ('A' for Active; 'I' for Inactive)
REMARK    1  A    between atoms: C_1  and  O_2
REMARK    2  A    between atoms: O_2  and  C_3
REMARK    3  A    between atoms: C_4  and  C_5
REMARK    4  A    between atoms: C_11  and  C_12
REMARK    5  A    between atoms: C_14  and  S_15
REMARK    6  A    between atoms: S_15  and  N_18
REMARK    7  A    between atoms: N_18  and  C_19
REMARK    8  A    between atoms: C_24  and  C_25
REMARK    9  A    between atoms: C_25  and  O_27
REMARK                            x       y       z     vdW  Elec       q    Type
REMARK                         _______ _______ _______ _____ _____    ______ ____
ROOT
ATOM      1  C   UNL     1       2.131   5.360  19.294  0.00  0.00    +0.000 A 
ATOM      2  C   UNL     1       2.473   6.734  19.092  0.00  0.00    +0.000 A 
ATOM      3  C   UNL     1       3.524   6.972  18.188  0.00  0.00    +0.000 A 
ATOM      4  C   UNL     1       4.203   5.919  17.516  0.00  0.00    +0.000 A 
ATOM      5  C   UNL     1       3.820   4.563  17.691  0.00  0.00    +0.000 A 
ATOM      6  C   UNL     1       4.469   3.442  17.093  0.00  0.00    +0.000 A 
ATOM      7  C   UNL     1       4.045   2.121  17.276  0.00  0.00    +0.000 A 
ATOM      8  C   UNL     1       2.960   1.861  18.035  0.00  0.00    +0.000 A 
ATOM      9  C   UNL     1       2.304   2.939  18.617  0.00  0.00    +0.000 A 
ATOM     10  C   UNL     1       2.730   4.279  18.546  0.00  0.00    +0.000 A 
ENDROOT
BRANCH   2  11
ATOM     11  C   UNL     1       1.843   7.891  19.856  0.00  0.00    +0.000 A 
ATOM     12  C   UNL     1       1.813   7.829  21.283  0.00  0.00    +0.000 A 
ATOM     13  C   UNL     1       1.161   8.784  22.074  0.00  0.00    +0.000 A 
ATOM     14  C   UNL     1       0.505   9.831  21.463  0.00  0.00    +0.000 A 
ATOM     15  F   UNL     1      -0.170  10.721  22.200  0.00  0.00    +0.000 F 
ATOM     16  C   UNL     1       0.547   9.972  20.087  0.00  0.00    +0.000 A 
ATOM     17  C   UNL     1       1.235   9.047  19.271  0.00  0.00    +0.000 A 
ATOM     18  C   UNL     1       1.263   9.413  17.806  0.00  0.00    +0.000 C 
ENDBRANCH   2  11
BRANCH   4  19
ATOM     19  S   UNL     1       5.502   6.398  16.367  0.00  0.00    +0.000 S 
ATOM     20  O   UNL     1       4.945   6.981  15.179  0.00  0.00    +0.000 OA
ATOM     21  O   UNL     1       6.507   7.138  17.118  0.00  0.00    +0.000 OA
BRANCH  19  22
ATOM     22  N   UNL     1       6.217   4.916  15.914  0.00  0.00    +0.000 N 
ATOM     23  H   UNL     1       5.674   4.163  16.336  0.00  0.00    +0.000 HD
BRANCH  22  24
ATOM     24  C   UNL     1       6.545   4.737  14.534  0.00  0.00    +0.000 A 
ATOM     25  C   UNL     1       7.630   5.404  13.961  0.00  0.00    +0.000 A 
ATOM     26  C   UNL     1       7.971   5.159  12.628  0.00  0.00    +0.000 A 
ATOM     27  C   UNL     1       7.231   4.243  11.883  0.00  0.00    +0.000 A 
ATOM     28  F   UNL     1       7.590   4.019  10.609  0.00  0.00    +0.000 F 
ATOM     29  C   UNL     1       6.149   3.566  12.441  0.00  0.00    +0.000 A 
ATOM     30  C   UNL     1       5.805   3.826  13.777  0.00  0.00    +0.000 A 
BRANCH  29  31
ATOM     31  C   UNL     1       5.347   2.567  11.693  0.00  0.00    +0.000 C 
ATOM     32  O   UNL     1       5.778   1.451  11.451  0.00  0.00    +0.000 OA
BRANCH  31  33
ATOM     33  O   UNL     1       4.123   2.968  11.295  0.00  0.00    +0.000 OA
ATOM     34  H   UNL     1       3.732   3.721  11.782  0.00  0.00    +0.000 HD
ENDBRANCH  31  33
ENDBRANCH  29  31
ENDBRANCH  22  24
ENDBRANCH  19  22
ENDBRANCH   4  19
BRANCH   1  36
ATOM     35  C   UNL     1       1.210   4.031  21.168  0.00  0.00    +0.000 C 
ATOM     36  O   UNL     1       1.260   5.168  20.332  0.00  0.00    +0.000 OA
ENDBRANCH   1  36
TORSDOF 7
ENDMDL
MODEL 5
REMARK VINA RESULT:      -7.9      3.919      5.134
REMARK  Name = 
REMARK  9 active torsions:
REMARK  status: ('A' for Active; 'I' for Inactive)
REMARK    1  A    between atoms: C_1  and  O_2
REMARK    2  A    between atoms: O_2  and  C_3
REMARK    3  A    between atoms: C_4  and  C_5
REMARK    4  A    between atoms: C_11  and  C_12
REMARK    5  A    between atoms: C_14  and  S_15
REMARK    6  A    between atoms: S_15  and  N_18
REMARK    7  A    between atoms: N_18  and  C_19
REMARK    8  A    between atoms: C_24  and  C_25
REMARK    9  A    between atoms: C_25  and  O_27
REMARK                            x       y       z     vdW  Elec       q    Type
REMARK                         _______ _______ _______ _____ _____    ______ ____
ROOT
ATOM      1  C   UNL     1       0.194  12.811  21.086  0.00  0.00    +0.000 A 
ATOM      2  C   UNL     1       0.720  13.137  19.797  0.00  0.00    +0.000 A 
ATOM      3  C   UNL     1       1.085  12.042  18.995  0.00  0.00    +0.000 A 
ATOM      4  C   UNL     1       0.943  10.696  19.433  0.00  0.00    +0.000 A 
ATOM      5  C   UNL     1       0.374  10.388  20.697  0.00  0.00    +0.000 A 
ATOM      6  C   UNL     1       0.231   9.074  21.235  0.00  0.00    +0.000 A 
ATOM      7  C   UNL     1      -0.354   8.813  22.479  0.00  0.00    +0.000 A 
ATOM      8  C   UNL     1      -0.835   9.830  23.225  0.00  0.00    +0.000 A 
ATOM      9  C   UNL     1      -0.718  11.117  22.714  0.00  0.00    +0.000 A 
ATOM     10  C   UNL     1      -0.062  11.456  21.515  0.00  0.00    +0.000 A 
ENDROOT
BRANCH   2  11
ATOM     11  C   UNL     1       0.981  14.559  19.318  0.00  0.00    +0.000 A 
ATOM     12  C   UNL     1      -0.118  15.324  18.821  0.00  0.00    +0.000 A 
ATOM     13  C   UNL     1       0.031  16.597  18.256  0.00  0.00    +0.000 A 
ATOM     14  C   UNL     1       1.291  17.147  18.159  0.00  0.00    +0.000 A 
ATOM     15  F   UNL     1       1.460  18.337  17.571  0.00  0.00    +0.000 F 
ATOM     16  C   UNL     1       2.387  16.475  18.672  0.00  0.00    +0.000 A 
ATOM     17  C   UNL     1       2.255  15.210  19.286  0.00  0.00    +0.000 A 
ATOM     18  C   UNL     1       3.536  14.673  19.881  0.00  0.00    +0.000 C 
ENDBRANCH   2  11
BRANCH   4  19
ATOM     19  S   UNL     1       1.427   9.412  18.271  0.00  0.00    +0.000 S 
ATOM     20  O   UNL     1       0.273   8.799  17.675  0.00  0.00    +0.000 OA
ATOM     21  O   UNL     1       2.464   9.963  17.409  0.00  0.00    +0.000 OA
BRANCH  19  22
ATOM     22  N   UNL     1       2.175   8.231  19.251  0.00  0.00    +0.000 N 
ATOM     23  H   UNL     1       1.565   8.052  20.047  0.00  0.00    +0.000 HD
BRANCH  22  24
ATOM     24  C   UNL     1       2.695   7.068  18.602  0.00  0.00    +0.000 A 
ATOM     25  C   UNL     1       2.016   5.849  18.663  0.00  0.00    +0.000 A 
ATOM     26  C   UNL     1       2.509   4.744  17.963  0.00  0.00    +0.000 A 
ATOM     27  C   UNL     1       3.668   4.870  17.201  0.00  0.00    +0.000 A 
ATOM     28  F   UNL     1       4.110   3.795  16.529  0.00  0.00    +0.000 F 
ATOM     29  C   UNL     1       4.353   6.081  17.125  0.00  0.00    +0.000 A 
ATOM     30  C   UNL     1       3.860   7.183  17.841  0.00  0.00    +0.000 A 
BRANCH  29  31
ATOM     31  C   UNL     1       5.579   6.267  16.310  0.00  0.00    +0.000 C 
ATOM     32  O   UNL     1       5.527   6.404  15.098  0.00  0.00    +0.000 OA
BRANCH  31  33
ATOM     33  O   UNL     1       6.745   6.271  16.985  0.00  0.00    +0.000 OA
ATOM     34  H   UNL     1       6.714   5.952  17.909  0.00  0.00    +0.000 HD
ENDBRANCH  31  33
ENDBRANCH  29  31
ENDBRANCH  22  24
ENDBRANCH  19  22
ENDBRANCH   4  19
BRANCH   1  36
ATOM     35  C   UNL     1      -1.163  14.512  22.267  0.00  0.00    +0.000 C 
ATOM     36  O   UNL     1       0.057  13.900  21.905  0.00  0.00    +0.000 OA
ENDBRANCH   1  36
TORSDOF 7
ENDMDL
MODEL 6
REMARK VINA RESULT:      -7.9      2.780      4.084
REMARK  Name = 
REMARK  9 active torsions:
REMARK  status: ('A' for Active; 'I' for Inactive)
REMARK    1  A    between atoms: C_1  and  O_2
REMARK    2  A    between atoms: O_2  and  C_3
REMARK    3  A    between atoms: C_4  and  C_5
REMARK    4  A    between atoms: C_11  and  C_12
REMARK    5  A    between atoms: C_14  and  S_15
REMARK    6  A    between atoms: S_15  and  N_18
REMARK    7  A    between atoms: N_18  and  C_19
REMARK    8  A    between atoms: C_24  and  C_25
REMARK    9  A    between atoms: C_25  and  O_27
REMARK                            x       y       z     vdW  Elec       q    Type
REMARK                         _______ _______ _______ _____ _____    ______ ____
ROOT
ATOM      1  C   UNL     1      -4.370  13.448  20.730  0.00  0.00    +0.000 A 
ATOM      2  C   UNL     1      -2.962  13.607  20.533  0.00  0.00    +0.000 A 
ATOM      3  C   UNL     1      -2.392  12.794  19.538  0.00  0.00    +0.000 A 
ATOM      4  C   UNL     1      -3.161  11.873  18.775  0.00  0.00    +0.000 A 
ATOM      5  C   UNL     1      -4.566  11.760  18.949  0.00  0.00    +0.000 A 
ATOM      6  C   UNL     1      -5.409  10.838  18.261  0.00  0.00    +0.000 A 
ATOM      7  C   UNL     1      -6.793  10.775  18.448  0.00  0.00    +0.000 A 
ATOM      8  C   UNL     1      -7.397  11.628  19.303  0.00  0.00    +0.000 A 
ATOM      9  C   UNL     1      -6.597  12.544  19.974  0.00  0.00    +0.000 A 
ATOM     10  C   UNL     1      -5.193  12.600  19.899  0.00  0.00    +0.000 A 
ENDROOT
BRANCH   2  11
ATOM     11  C   UNL     1      -2.078  14.508  21.386  0.00  0.00    +0.000 A 
ATOM     12  C   UNL     1      -1.934  15.878  21.007  0.00  0.00    +0.000 A 
ATOM     13  C   UNL     1      -1.062  16.761  21.656  0.00  0.00    +0.000 A 
ATOM     14  C   UNL     1      -0.294  16.301  22.703  0.00  0.00    +0.000 A 
ATOM     15  F   UNL     1       0.586  17.115  23.299  0.00  0.00    +0.000 F 
ATOM     16  C   UNL     1      -0.431  14.998  23.149  0.00  0.00    +0.000 A 
ATOM     17  C   UNL     1      -1.336  14.101  22.540  0.00  0.00    +0.000 A 
ATOM     18  C   UNL     1      -1.430  12.756  23.221  0.00  0.00    +0.000 C 
ENDBRANCH   2  11
BRANCH   4  19
ATOM     19  S   UNL     1      -2.282  10.931  17.518  0.00  0.00    +0.000 S 
ATOM     20  O   UNL     1      -2.511   9.523  17.681  0.00  0.00    +0.000 OA
ATOM     21  O   UNL     1      -2.556  11.551  16.229  0.00  0.00    +0.000 OA
BRANCH  19  22
ATOM     22  N   UNL     1      -0.636  11.218  17.865  0.00  0.00    +0.000 N 
ATOM     23  H   UNL     1      -0.547  12.181  18.189  0.00  0.00    +0.000 HD
BRANCH  22  24
ATOM     24  C   UNL     1       0.052  10.241  18.649  0.00  0.00    +0.000 A 
ATOM     25  C   UNL     1       1.049   9.440  18.085  0.00  0.00    +0.000 A 
ATOM     26  C   UNL     1       1.754   8.540  18.889  0.00  0.00    +0.000 A 
ATOM     27  C   UNL     1       1.466   8.456  20.249  0.00  0.00    +0.000 A 
ATOM     28  F   UNL     1       2.169   7.592  20.998  0.00  0.00    +0.000 F 
ATOM     29  C   UNL     1       0.479   9.251  20.828  0.00  0.00    +0.000 A 
ATOM     30  C   UNL     1      -0.235  10.144  20.012  0.00  0.00    +0.000 A 
BRANCH  29  31
ATOM     31  C   UNL     1       0.152   9.211  22.274  0.00  0.00    +0.000 C 
ATOM     32  O   UNL     1       0.762   9.886  23.087  0.00  0.00    +0.000 OA
BRANCH  31  33
ATOM     33  O   UNL     1      -0.850   8.383  22.633  0.00  0.00    +0.000 OA
ATOM     34  H   UNL     1      -0.869   8.104  23.570  0.00  0.00    +0.000 HD
ENDBRANCH  31  33
ENDBRANCH  29  31
ENDBRANCH  22  24
ENDBRANCH  19  22
ENDBRANCH   4  19
BRANCH   1  36
ATOM     35  C   UNL     1      -5.507  15.337  21.856  0.00  0.00    +0.000 C 
ATOM     36  O   UNL     1      -4.836  14.095  21.843  0.00  0.00    +0.000 OA
ENDBRANCH   1  36
TORSDOF 7
ENDMDL
MODEL 7
REMARK VINA RESULT:      -7.7      3.988      7.213
REMARK  Name = 
REMARK  9 active torsions:
REMARK  status: ('A' for Active; 'I' for Inactive)
REMARK    1  A    between atoms: C_1  and  O_2
REMARK    2  A    between atoms: O_2  and  C_3
REMARK    3  A    between atoms: C_4  and  C_5
REMARK    4  A    between atoms: C_11  and  C_12
REMARK    5  A    between atoms: C_14  and  S_15
REMARK    6  A    between atoms: S_15  and  N_18
REMARK    7  A    between atoms: N_18  and  C_19
REMARK    8  A    between atoms: C_24  and  C_25
REMARK    9  A    between atoms: C_25  and  O_27
REMARK                            x       y       z     vdW  Elec       q    Type
REMARK                         _______ _______ _______ _____ _____    ______ ____
ROOT
ATOM      1  C   UNL     1      -5.942  11.742  20.238  0.00  0.00    +0.000 A 
ATOM      2  C   UNL     1      -4.716  12.060  19.574  0.00  0.00    +0.000 A 
ATOM      3  C   UNL     1      -3.933  13.055  20.186  0.00  0.00    +0.000 A 
ATOM      4  C   UNL     1      -4.331  13.705  21.387  0.00  0.00    +0.000 A 
ATOM      5  C   UNL     1      -5.529  13.345  22.060  0.00  0.00    +0.000 A 
ATOM      6  C   UNL     1      -6.027  13.969  23.242  0.00  0.00    +0.000 A 
ATOM      7  C   UNL     1      -7.202  13.568  23.886  0.00  0.00    +0.000 A 
ATOM      8  C   UNL     1      -7.916  12.530  23.400  0.00  0.00    +0.000 A 
ATOM      9  C   UNL     1      -7.442  11.899  22.257  0.00  0.00    +0.000 A 
ATOM     10  C   UNL     1      -6.319  12.308  21.513  0.00  0.00    +0.000 A 
ENDROOT
BRANCH   2  11
ATOM     11  C   UNL     1      -4.290  11.463  18.239  0.00  0.00    +0.000 A 
ATOM     12  C   UNL     1      -3.243  10.490  18.231  0.00  0.00    +0.000 A 
ATOM     13  C   UNL     1      -2.703   9.962  17.051  0.00  0.00    +0.000 A 
ATOM     14  C   UNL     1      -3.185  10.397  15.836  0.00  0.00    +0.000 A 
ATOM     15  F   UNL     1      -2.642   9.946  14.698  0.00  0.00    +0.000 F 
ATOM     16  C   UNL     1      -4.234  11.297  15.783  0.00  0.00    +0.000 A 
ATOM     17  C   UNL     1      -4.826  11.810  16.959  0.00  0.00    +0.000 A 
ATOM     18  C   UNL     1      -6.024  12.698  16.714  0.00  0.00    +0.000 C 
ENDBRANCH   2  11
BRANCH   4  19
ATOM     19  S   UNL     1      -3.199  14.933  22.056  0.00  0.00    +0.000 S 
ATOM     20  O   UNL     1      -2.461  15.575  21.004  0.00  0.00    +0.000 OA
ATOM     21  O   UNL     1      -3.943  15.751  23.004  0.00  0.00    +0.000 OA
BRANCH  19  22
ATOM     22  N   UNL     1      -2.085  14.013  22.964  0.00  0.00    +0.000 N 
ATOM     23  H   UNL     1      -2.558  13.691  23.808  0.00  0.00    +0.000 HD
BRANCH  22  24
ATOM     24  C   UNL     1      -1.327  13.020  22.268  0.00  0.00    +0.000 A 
ATOM     25  C   UNL     1      -0.578  13.351  21.137  0.00  0.00    +0.000 A 
ATOM     26  C   UNL     1       0.208  12.378  20.515  0.00  0.00    +0.000 A 
ATOM     27  C   UNL     1       0.248  11.086  21.035  0.00  0.00    +0.000 A 
ATOM     28  F   UNL     1       1.022  10.175  20.424  0.00  0.00    +0.000 F 
ATOM     29  C   UNL     1      -0.490  10.741  22.166  0.00  0.00    +0.000 A 
ATOM     30  C   UNL     1      -1.287  11.721  22.778  0.00  0.00    +0.000 A 
BRANCH  29  31
ATOM     31  C   UNL     1      -0.463   9.385  22.767  0.00  0.00    +0.000 C 
ATOM     32  O   UNL     1      -0.765   8.393  22.122  0.00  0.00    +0.000 OA
BRANCH  31  33
ATOM     33  O   UNL     1      -0.092   9.316  24.061  0.00  0.00    +0.000 OA
ATOM     34  H   UNL     1      -0.492   9.974  24.663  0.00  0.00    +0.000 HD
ENDBRANCH  31  33
ENDBRANCH  29  31
ENDBRANCH  22  24
ENDBRANCH  19  22
ENDBRANCH   4  19
BRANCH   1  36
ATOM     35  C   UNL     1      -7.131   9.610  19.827  0.00  0.00    +0.000 C 
ATOM     36  O   UNL     1      -6.762  10.933  19.500  0.00  0.00    +0.000 OA
ENDBRANCH   1  36
TORSDOF 7
ENDMDL
MODEL 8
REMARK VINA RESULT:      -7.7      4.110      5.973
REMARK  Name = 
REMARK  9 active torsions:
REMARK  status: ('A' for Active; 'I' for Inactive)
REMARK    1  A    between atoms: C_1  and  O_2
REMARK    2  A    between atoms: O_2  and  C_3
REMARK    3  A    between atoms: C_4  and  C_5
REMARK    4  A    between atoms: C_11  and  C_12
REMARK    5  A    between atoms: C_14  and  S_15
REMARK    6  A    between atoms: S_15  and  N_18
REMARK    7  A    between atoms: N_18  and  C_19
REMARK    8  A    between atoms: C_24  and  C_25
REMARK    9  A    between atoms: C_25  and  O_27
REMARK                            x       y       z     vdW  Elec       q    Type
REMARK                         _______ _______ _______ _____ _____    ______ ____
ROOT
ATOM      1  C   UNL     1      -3.625  12.692  20.080  0.00  0.00    +0.000 A 
ATOM      2  C   UNL     1      -2.725  13.149  21.093  0.00  0.00    +0.000 A 
ATOM      3  C   UNL     1      -1.417  12.638  21.019  0.00  0.00    +0.000 A 
ATOM      4  C   UNL     1      -1.012  11.727  20.005  0.00  0.00    +0.000 A 
ATOM      5  C   UNL     1      -1.905  11.320  18.978  0.00  0.00    +0.000 A 
ATOM      6  C   UNL     1      -1.600  10.381  17.948  0.00  0.00    +0.000 A 
ATOM      7  C   UNL     1      -2.504  10.023  16.943  0.00  0.00    +0.000 A 
ATOM      8  C   UNL     1      -3.729  10.589  16.905  0.00  0.00    +0.000 A 
ATOM      9  C   UNL     1      -4.043  11.517  17.890  0.00  0.00    +0.000 A 
ATOM     10  C   UNL     1      -3.215  11.853  18.978  0.00  0.00    +0.000 A 
ENDROOT
BRANCH   2  11
ATOM     11  C   UNL     1      -3.132  14.047  22.254  0.00  0.00    +0.000 A 
ATOM     12  C   UNL     1      -3.127  15.462  22.055  0.00  0.00    +0.000 A 
ATOM     13  C   UNL     1      -3.377  16.378  23.085  0.00  0.00    +0.000 A 
ATOM     14  C   UNL     1      -3.632  15.909  24.355  0.00  0.00    +0.000 A 
ATOM     15  F   UNL     1      -3.818  16.770  25.363  0.00  0.00    +0.000 F 
ATOM     16  C   UNL     1      -3.704  14.549  24.596  0.00  0.00    +0.000 A 
ATOM     17  C   UNL     1      -3.499  13.605  23.564  0.00  0.00    +0.000 A 
ATOM     18  C   UNL     1      -3.718  12.170  23.984  0.00  0.00    +0.000 C 
ENDBRANCH   2  11
BRANCH   4  19
ATOM     19  S   UNL     1       0.706  11.194  20.035  0.00  0.00    +0.000 S 
ATOM     20  O   UNL     1       1.408  11.791  21.137  0.00  0.00    +0.000 OA
ATOM     21  O   UNL     1       0.723   9.746  19.882  0.00  0.00    +0.000 OA
BRANCH  19  22
ATOM     22  N   UNL     1       1.365  11.850  18.603  0.00  0.00    +0.000 N 
ATOM     23  H   UNL     1       0.803  11.520  17.819  0.00  0.00    +0.000 HD
BRANCH  22  24
ATOM     24  C   UNL     1       1.666  13.248  18.596  0.00  0.00    +0.000 A 
ATOM     25  C   UNL     1       2.987  13.697  18.517  0.00  0.00    +0.000 A 
ATOM     26  C   UNL     1       3.251  15.067  18.443  0.00  0.00    +0.000 A 
ATOM     27  C   UNL     1       2.194  15.975  18.437  0.00  0.00    +0.000 A 
ATOM     28  F   UNL     1       2.478  17.284  18.351  0.00  0.00    +0.000 F 
ATOM     29  C   UNL     1       0.871  15.543  18.510  0.00  0.00    +0.000 A 
ATOM     30  C   UNL     1       0.614  14.165  18.597  0.00  0.00    +0.000 A 
BRANCH  29  31
ATOM     31  C   UNL     1      -0.286  16.471  18.486  0.00  0.00    +0.000 C 
ATOM     32  O   UNL     1      -0.253  17.518  17.858  0.00  0.00    +0.000 OA
BRANCH  31  33
ATOM     33  O   UNL     1      -1.365  16.093  19.199  0.00  0.00    +0.000 OA
ATOM     34  H   UNL     1      -1.462  15.134  19.364  0.00  0.00    +0.000 HD
ENDBRANCH  31  33
ENDBRANCH  29  31
ENDBRANCH  22  24
ENDBRANCH  19  22
ENDBRANCH   4  19
BRANCH   1  36
ATOM     35  C   UNL     1      -5.909  12.221  20.913  0.00  0.00    +0.000 C 
ATOM     36  O   UNL     1      -4.927  13.042  20.317  0.00  0.00    +0.000 OA
ENDBRANCH   1  36
TORSDOF 7
ENDMDL
MODEL 9
REMARK VINA RESULT:      -7.6      4.158      6.112
REMARK  Name = 
REMARK  9 active torsions:
REMARK  status: ('A' for Active; 'I' for Inactive)
REMARK    1  A    between atoms: C_1  and  O_2
REMARK    2  A    between atoms: O_2  and  C_3
REMARK    3  A    between atoms: C_4  and  C_5
REMARK    4  A    between atoms: C_11  and  C_12
REMARK    5  A    between atoms: C_14  and  S_15
REMARK    6  A    between atoms: S_15  and  N_18
REMARK    7  A    between atoms: N_18  and  C_19
REMARK    8  A    between atoms: C_24  and  C_25
REMARK    9  A    between atoms: C_25  and  O_27
REMARK                            x       y       z     vdW  Elec       q    Type
REMARK                         _______ _______ _______ _____ _____    ______ ____
ROOT
ATOM      1  C   UNL     1      -3.642  12.596  19.792  0.00  0.00    +0.000 A 
ATOM      2  C   UNL     1      -2.780  13.098  20.817  0.00  0.00    +0.000 A 
ATOM      3  C   UNL     1      -1.462  12.609  20.795  0.00  0.00    +0.000 A 
ATOM      4  C   UNL     1      -1.012  11.677  19.819  0.00  0.00    +0.000 A 
ATOM      5  C   UNL     1      -1.867  11.224  18.780  0.00  0.00    +0.000 A 
ATOM      6  C   UNL     1      -1.516  10.262  17.787  0.00  0.00    +0.000 A 
ATOM      7  C   UNL     1      -2.384   9.860  16.766  0.00  0.00    +0.000 A 
ATOM      8  C   UNL     1      -3.617  10.403  16.677  0.00  0.00    +0.000 A 
ATOM      9  C   UNL     1      -3.975  11.352  17.626  0.00  0.00    +0.000 A 
ATOM     10  C   UNL     1      -3.185  11.734  18.727  0.00  0.00    +0.000 A 
ENDROOT
BRANCH   2  11
ATOM     11  C   UNL     1      -3.236  14.021  21.939  0.00  0.00    +0.000 A 
ATOM     12  C   UNL     1      -3.556  13.446  23.207  0.00  0.00    +0.000 A 
ATOM     13  C   UNL     1      -4.088  14.189  24.269  0.00  0.00    +0.000 A 
ATOM     14  C   UNL     1      -4.329  15.534  24.095  0.00  0.00    +0.000 A 
ATOM     15  F   UNL     1      -4.890  16.248  25.078  0.00  0.00    +0.000 F 
ATOM     16  C   UNL     1      -3.989  16.156  22.907  0.00  0.00    +0.000 A 
ATOM     17  C   UNL     1      -3.410  15.437  21.837  0.00  0.00    +0.000 A 
ATOM     18  C   UNL     1      -3.008  16.294  20.659  0.00  0.00    +0.000 C 
ENDBRANCH   2  11
BRANCH   4  19
ATOM     19  S   UNL     1       0.714  11.177  19.914  0.00  0.00    +0.000 S 
ATOM     20  O   UNL     1       1.371  11.813  21.021  0.00  0.00    +0.000 OA
ATOM     21  O   UNL     1       0.761   9.725  19.798  0.00  0.00    +0.000 OA
BRANCH  19  22
ATOM     22  N   UNL     1       1.404  11.809  18.486  0.00  0.00    +0.000 N 
ATOM     23  H   UNL     1       0.788  11.572  17.709  0.00  0.00    +0.000 HD
BRANCH  22  24
ATOM     24  C   UNL     1       1.858  13.164  18.518  0.00  0.00    +0.000 A 
ATOM     25  C   UNL     1       3.200  13.477  18.288  0.00  0.00    +0.000 A 
ATOM     26  C   UNL     1       3.606  14.813  18.256  0.00  0.00    +0.000 A 
ATOM     27  C   UNL     1       2.667  15.826  18.444  0.00  0.00    +0.000 A 
ATOM     28  F   UNL     1       3.084  17.100  18.395  0.00  0.00    +0.000 F 
ATOM     29  C   UNL     1       1.324  15.530  18.669  0.00  0.00    +0.000 A 
ATOM     30  C   UNL     1       0.926  14.184  18.712  0.00  0.00    +0.000 A 
BRANCH  29  31
ATOM     31  C   UNL     1       0.286  16.574  18.854  0.00  0.00    +0.000 C 
ATOM     32  O   UNL     1      -0.573  16.778  18.011  0.00  0.00    +0.000 OA
BRANCH  31  33
ATOM     33  O   UNL     1       0.353  17.281  19.999  0.00  0.00    +0.000 OA
ATOM     34  H   UNL     1      -0.089  18.153  19.998  0.00  0.00    +0.000 HD
ENDBRANCH  31  33
ENDBRANCH  29  31
ENDBRANCH  22  24
ENDBRANCH  19  22
ENDBRANCH   4  19
BRANCH   1  36
ATOM     35  C   UNL     1      -5.941  12.105  20.569  0.00  0.00    +0.000 C 
ATOM     36  O   UNL     1      -4.956  12.930  19.981  0.00  0.00    +0.000 OA
ENDBRANCH   1  36
TORSDOF 7
ENDMDL
