MODEL 1
REMARK VINA RESULT:      -6.7      0.000      0.000
REMARK  Name = 
REMARK  4 active torsions:
REMARK  status: ('A' for Active; 'I' for Inactive)
REMARK    1  A    between atoms: C_2  and  O_3
REMARK    2  A    between atoms: C_2  and  C_4
REMARK    3  A    between atoms: C_7  and  S_8
REMARK    4  A    between atoms: S_8  and  C_9
REMARK                            x       y       z     vdW  Elec       q    Type
REMARK                         _______ _______ _______ _____ _____    ______ ____
ROOT
ATOM      1  C   UNL     1       7.148   4.895  14.216  0.00  0.00    +0.000 A 
ATOM      2  C   UNL     1       6.106   4.004  14.380  0.00  0.00    +0.000 A 
ATOM      3  C   UNL     1       5.749   4.051  15.749  0.00  0.00    +0.000 A 
ATOM      4  C   UNL     1       6.581   4.975  16.351  0.00  0.00    +0.000 A 
ATOM      5  O   UNL     1       7.440   5.488  15.417  0.00  0.00    +0.000 OA
ENDROOT
BRANCH   1   7
ATOM      6  O   UNL     1       8.867   6.025  13.027  0.00  0.00    +0.000 OA
ATOM      7  C   UNL     1       7.918   5.256  13.050  0.00  0.00    +0.000 C 
BRANCH   7   8
ATOM      8  O   UNL     1       7.452   4.630  11.939  0.00  0.00    +0.000 OA
ATOM      9  H   UNL     1       6.473   4.597  11.956  0.00  0.00    +0.000 HD
ENDBRANCH   7   8
ENDBRANCH   1   7
BRANCH   4  10
ATOM     10  S   UNL     1       6.663   5.422  18.033  0.00  0.00    +0.000 S 
BRANCH  10  11
ATOM     11  C   UNL     1       5.045   4.888  18.565  0.00  0.00    +0.000 A 
ATOM     12  C   UNL     1       4.909   3.656  19.216  0.00  0.00    +0.000 A 
ATOM     13  C   UNL     1       3.670   3.250  19.723  0.00  0.00    +0.000 A 
ATOM     14  C   UNL     1       2.562   4.083  19.582  0.00  0.00    +0.000 A 
ATOM     15 BR   UNL     1       0.893   3.553  20.293  0.00  0.00    +0.000 Br
ATOM     16  C   UNL     1       2.681   5.311  18.935  0.00  0.00    +0.000 A 
ATOM     17  C   UNL     1       3.922   5.714  18.432  0.00  0.00    +0.000 A 
ENDBRANCH  10  11
ENDBRANCH   4  10
TORSDOF 4
ENDMDL
MODEL 2
REMARK VINA RESULT:      -6.6      0.231      1.466
REMARK  Name = 
REMARK  4 active torsions:
REMARK  status: ('A' for Active; 'I' for Inactive)
REMARK    1  A    between atoms: C_2  and  O_3
REMARK    2  A    between atoms: C_2  and  C_4
REMARK    3  A    between atoms: C_7  and  S_8
REMARK    4  A    between atoms: S_8  and  C_9
REMARK                            x       y       z     vdW  Elec       q    Type
REMARK                         _______ _______ _______ _____ _____    ______ ____
ROOT
ATOM      1  C   UNL     1       6.985   4.851  14.139  0.00  0.00    +0.000 A 
ATOM      2  C   UNL     1       5.883   4.065  14.410  0.00  0.00    +0.000 A 
ATOM      3  C   UNL     1       5.616   4.210  15.792  0.00  0.00    +0.000 A 
ATOM      4  C   UNL     1       6.558   5.087  16.295  0.00  0.00    +0.000 A 
ATOM      5  O   UNL     1       7.399   5.474  15.287  0.00  0.00    +0.000 OA
ENDROOT
BRANCH   1   7
ATOM      6  O   UNL     1       7.461   4.591  11.824  0.00  0.00    +0.000 OA
ATOM      7  C   UNL     1       7.711   5.085  12.913  0.00  0.00    +0.000 C 
BRANCH   7   8
ATOM      8  O   UNL     1       8.745   5.942  13.111  0.00  0.00    +0.000 OA
ATOM      9  H   UNL     1       8.406   6.833  13.342  0.00  0.00    +0.000 HD
ENDBRANCH   7   8
ENDBRANCH   1   7
BRANCH   4  10
ATOM     10  S   UNL     1       6.779   5.607  17.942  0.00  0.00    +0.000 S 
BRANCH  10  11
ATOM     11  C   UNL     1       5.212   5.103  18.630  0.00  0.00    +0.000 A 
ATOM     12  C   UNL     1       4.107   5.957  18.516  0.00  0.00    +0.000 A 
ATOM     13  C   UNL     1       2.845   5.553  18.967  0.00  0.00    +0.000 A 
ATOM     14  C   UNL     1       2.687   4.289  19.530  0.00  0.00    +0.000 A 
ATOM     15 BR   UNL     1       0.978   3.728  20.111  0.00  0.00    +0.000 Br
ATOM     16  C   UNL     1       3.776   3.430  19.653  0.00  0.00    +0.000 A 
ATOM     17  C   UNL     1       5.036   3.836  19.199  0.00  0.00    +0.000 A 
ENDBRANCH  10  11
ENDBRANCH   4  10
TORSDOF 4
ENDMDL
MODEL 3
REMARK VINA RESULT:      -6.4      2.895      3.495
REMARK  Name = 
REMARK  4 active torsions:
REMARK  status: ('A' for Active; 'I' for Inactive)
REMARK    1  A    between atoms: C_2  and  O_3
REMARK    2  A    between atoms: C_2  and  C_4
REMARK    3  A    between atoms: C_7  and  S_8
REMARK    4  A    between atoms: S_8  and  C_9
REMARK                            x       y       z     vdW  Elec       q    Type
REMARK                         _______ _______ _______ _____ _____    ______ ____
ROOT
ATOM      1  C   UNL     1       6.635   5.652  17.475  0.00  0.00    +0.000 A 
ATOM      2  C   UNL     1       6.515   5.839  16.113  0.00  0.00    +0.000 A 
ATOM      3  C   UNL     1       5.270   6.479  15.904  0.00  0.00    +0.000 A 
ATOM      4  C   UNL     1       4.698   6.663  17.147  0.00  0.00    +0.000 A 
ATOM      5  O   UNL     1       5.527   6.152  18.108  0.00  0.00    +0.000 OA
ENDROOT
BRANCH   1   7
ATOM      6  O   UNL     1       8.017   5.379  19.390  0.00  0.00    +0.000 OA
ATOM      7  C   UNL     1       7.679   5.043  18.265  0.00  0.00    +0.000 C 
BRANCH   7   8
ATOM      8  O   UNL     1       8.271   4.022  17.595  0.00  0.00    +0.000 OA
ATOM      9  H   UNL     1       8.434   3.269  18.201  0.00  0.00    +0.000 HD
ENDBRANCH   7   8
ENDBRANCH   1   7
BRANCH   4  10
ATOM     10  S   UNL     1       3.139   7.341  17.530  0.00  0.00    +0.000 S 
BRANCH  10  11
ATOM     11  C   UNL     1       2.527   6.083  18.638  0.00  0.00    +0.000 A 
ATOM     12  C   UNL     1       2.253   4.803  18.137  0.00  0.00    +0.000 A 
ATOM     13  C   UNL     1       1.856   3.773  18.996  0.00  0.00    +0.000 A 
ATOM     14  C   UNL     1       1.738   4.020  20.362  0.00  0.00    +0.000 A 
ATOM     15 BR   UNL     1       1.234   2.622  21.529  0.00  0.00    +0.000 Br
ATOM     16  C   UNL     1       2.006   5.288  20.874  0.00  0.00    +0.000 A 
ATOM     17  C   UNL     1       2.404   6.316  20.013  0.00  0.00    +0.000 A 
ENDBRANCH  10  11
ENDBRANCH   4  10
TORSDOF 4
ENDMDL
MODEL 4
REMARK VINA RESULT:      -6.3      3.244      3.984
REMARK  Name = 
REMARK  4 active torsions:
REMARK  status: ('A' for Active; 'I' for Inactive)
REMARK    1  A    between atoms: C_2  and  O_3
REMARK    2  A    between atoms: C_2  and  C_4
REMARK    3  A    between atoms: C_7  and  S_8
REMARK    4  A    between atoms: S_8  and  C_9
REMARK                            x       y       z     vdW  Elec       q    Type
REMARK                         _______ _______ _______ _____ _____    ______ ____
ROOT
ATOM      1  C   UNL     1       7.011   5.321  18.022  0.00  0.00    +0.000 A 
ATOM      2  C   UNL     1       7.301   4.680  16.835  0.00  0.00    +0.000 A 
ATOM      3  C   UNL     1       6.104   4.056  16.412  0.00  0.00    +0.000 A 
ATOM      4  C   UNL     1       5.138   4.357  17.353  0.00  0.00    +0.000 A 
ATOM      5  O   UNL     1       5.692   5.124  18.341  0.00  0.00    +0.000 OA
ENDROOT
BRANCH   1   7
ATOM      6  O   UNL     1       8.267   7.225  18.692  0.00  0.00    +0.000 OA
ATOM      7  C   UNL     1       7.837   6.103  18.911  0.00  0.00    +0.000 C 
BRANCH   7   8
ATOM      8  O   UNL     1       8.100   5.427  20.059  0.00  0.00    +0.000 OA
ATOM      9  H   UNL     1       8.640   4.631  19.866  0.00  0.00    +0.000 HD
ENDBRANCH   7   8
ENDBRANCH   1   7
BRANCH   4  10
ATOM     10  S   UNL     1       3.482   3.820  17.412  0.00  0.00    +0.000 S 
BRANCH  10  11
ATOM     11  C   UNL     1       2.782   5.114  18.423  0.00  0.00    +0.000 A 
ATOM     12  C   UNL     1       2.278   4.796  19.690  0.00  0.00    +0.000 A 
ATOM     13  C   UNL     1       1.804   5.800  20.541  0.00  0.00    +0.000 A 
ATOM     14  C   UNL     1       1.838   7.129  20.125  0.00  0.00    +0.000 A 
ATOM     15 BR   UNL     1       1.229   8.492  21.283  0.00  0.00    +0.000 Br
ATOM     16  C   UNL     1       2.335   7.460  18.866  0.00  0.00    +0.000 A 
ATOM     17  C   UNL     1       2.810   6.454  18.019  0.00  0.00    +0.000 A 
ENDBRANCH  10  11
ENDBRANCH   4  10
TORSDOF 4
ENDMDL
MODEL 5
REMARK VINA RESULT:      -6.3      0.701      1.063
REMARK  Name = 
REMARK  4 active torsions:
REMARK  status: ('A' for Active; 'I' for Inactive)
REMARK    1  A    between atoms: C_2  and  O_3
REMARK    2  A    between atoms: C_2  and  C_4
REMARK    3  A    between atoms: C_7  and  S_8
REMARK    4  A    between atoms: S_8  and  C_9
REMARK                            x       y       z     vdW  Elec       q    Type
REMARK                         _______ _______ _______ _____ _____    ______ ____
ROOT
ATOM      1  C   UNL     1       6.811   4.903  14.318  0.00  0.00    +0.000 A 
ATOM      2  C   UNL     1       5.447   4.762  14.476  0.00  0.00    +0.000 A 
ATOM      3  C   UNL     1       5.204   4.741  15.870  0.00  0.00    +0.000 A 
ATOM      4  C   UNL     1       6.428   4.882  16.494  0.00  0.00    +0.000 A 
ATOM      5  O   UNL     1       7.412   4.974  15.548  0.00  0.00    +0.000 OA
ENDROOT
BRANCH   1   7
ATOM      6  O   UNL     1       7.426   4.382  12.081  0.00  0.00    +0.000 OA
ATOM      7  C   UNL     1       7.631   4.971  13.132  0.00  0.00    +0.000 C 
BRANCH   7   8
ATOM      8  O   UNL     1       8.701   5.787  13.321  0.00  0.00    +0.000 OA
ATOM      9  H   UNL     1       8.418   6.725  13.294  0.00  0.00    +0.000 HD
ENDBRANCH   7   8
ENDBRANCH   1   7
BRANCH   4  10
ATOM     10  S   UNL     1       6.778   4.866  18.201  0.00  0.00    +0.000 S 
BRANCH  10  11
ATOM     11  C   UNL     1       5.172   4.414  18.834  0.00  0.00    +0.000 A 
ATOM     12  C   UNL     1       4.790   3.066  18.835  0.00  0.00    +0.000 A 
ATOM     13  C   UNL     1       3.575   2.671  19.404  0.00  0.00    +0.000 A 
ATOM     14  C   UNL     1       2.740   3.626  19.980  0.00  0.00    +0.000 A 
ATOM     15 BR   UNL     1       1.113   3.091  20.779  0.00  0.00    +0.000 Br
ATOM     16  C   UNL     1       3.106   4.970  19.985  0.00  0.00    +0.000 A 
ATOM     17  C   UNL     1       4.322   5.361  19.416  0.00  0.00    +0.000 A 
ENDBRANCH  10  11
ENDBRANCH   4  10
TORSDOF 4
ENDMDL
MODEL 6
REMARK VINA RESULT:      -6.2      1.791      2.394
REMARK  Name = 
REMARK  4 active torsions:
REMARK  status: ('A' for Active; 'I' for Inactive)
REMARK    1  A    between atoms: C_2  and  O_3
REMARK    2  A    between atoms: C_2  and  C_4
REMARK    3  A    between atoms: C_7  and  S_8
REMARK    4  A    between atoms: S_8  and  C_9
REMARK                            x       y       z     vdW  Elec       q    Type
REMARK                         _______ _______ _______ _____ _____    ______ ____
ROOT
ATOM      1  C   UNL     1       6.432   5.414  15.584  0.00  0.00    +0.000 A 
ATOM      2  C   UNL     1       7.009   5.476  16.836  0.00  0.00    +0.000 A 
ATOM      3  C   UNL     1       6.064   6.104  17.683  0.00  0.00    +0.000 A 
ATOM      4  C   UNL     1       4.954   6.384  16.910  0.00  0.00    +0.000 A 
ATOM      5  O   UNL     1       5.179   5.968  15.626  0.00  0.00    +0.000 OA
ENDROOT
BRANCH   1   7
ATOM      6  O   UNL     1       6.468   3.945  13.715  0.00  0.00    +0.000 OA
ATOM      7  C   UNL     1       6.927   4.895  14.331  0.00  0.00    +0.000 C 
BRANCH   7   8
ATOM      8  O   UNL     1       8.004   5.600  13.898  0.00  0.00    +0.000 OA
ATOM      9  H   UNL     1       7.946   5.744  12.931  0.00  0.00    +0.000 HD
ENDBRANCH   7   8
ENDBRANCH   1   7
BRANCH   4  10
ATOM     10  S   UNL     1       3.492   7.209  17.377  0.00  0.00    +0.000 S 
BRANCH  10  11
ATOM     11  C   UNL     1       2.813   6.003  18.503  0.00  0.00    +0.000 A 
ATOM     12  C   UNL     1       2.382   4.767  18.006  0.00  0.00    +0.000 A 
ATOM     13  C   UNL     1       1.927   3.769  18.875  0.00  0.00    +0.000 A 
ATOM     14  C   UNL     1       1.908   4.006  20.247  0.00  0.00    +0.000 A 
ATOM     15 BR   UNL     1       1.325   2.649  21.426  0.00  0.00    +0.000 Br
ATOM     16  C   UNL     1       2.332   5.231  20.756  0.00  0.00    +0.000 A 
ATOM     17  C   UNL     1       2.788   6.225  19.885  0.00  0.00    +0.000 A 
ENDBRANCH  10  11
ENDBRANCH   4  10
TORSDOF 4
ENDMDL
MODEL 7
REMARK VINA RESULT:      -6.2      1.761      2.583
REMARK  Name = 
REMARK  4 active torsions:
REMARK  status: ('A' for Active; 'I' for Inactive)
REMARK    1  A    between atoms: C_2  and  O_3
REMARK    2  A    between atoms: C_2  and  C_4
REMARK    3  A    between atoms: C_7  and  S_8
REMARK    4  A    between atoms: S_8  and  C_9
REMARK                            x       y       z     vdW  Elec       q    Type
REMARK                         _______ _______ _______ _____ _____    ______ ____
ROOT
ATOM      1  C   UNL     1       6.494   5.574  15.701  0.00  0.00    +0.000 A 
ATOM      2  C   UNL     1       7.236   6.065  16.756  0.00  0.00    +0.000 A 
ATOM      3  C   UNL     1       6.324   6.725  17.615  0.00  0.00    +0.000 A 
ATOM      4  C   UNL     1       5.071   6.593  17.050  0.00  0.00    +0.000 A 
ATOM      5  O   UNL     1       5.173   5.896  15.877  0.00  0.00    +0.000 OA
ENDROOT
BRANCH   1   7
ATOM      6  O   UNL     1       6.384   3.789  14.135  0.00  0.00    +0.000 OA
ATOM      7  C   UNL     1       6.884   4.833  14.525  0.00  0.00    +0.000 C 
BRANCH   7   8
ATOM      8  O   UNL     1       7.911   5.443  13.879  0.00  0.00    +0.000 OA
ATOM      9  H   UNL     1       7.582   6.218  13.379  0.00  0.00    +0.000 HD
ENDBRANCH   7   8
ENDBRANCH   1   7
BRANCH   4  10
ATOM     10  S   UNL     1       3.557   7.248  17.612  0.00  0.00    +0.000 S 
BRANCH  10  11
ATOM     11  C   UNL     1       3.092   5.976  18.774  0.00  0.00    +0.000 A 
ATOM     12  C   UNL     1       2.252   6.301  19.847  0.00  0.00    +0.000 A 
ATOM     13  C   UNL     1       1.799   5.309  20.723  0.00  0.00    +0.000 A 
ATOM     14  C   UNL     1       2.183   3.985  20.524  0.00  0.00    +0.000 A 
ATOM     15 BR   UNL     1       1.548   2.638  21.686  0.00  0.00    +0.000 Br
ATOM     16  C   UNL     1       3.020   3.647  19.462  0.00  0.00    +0.000 A 
ATOM     17  C   UNL     1       3.469   4.641  18.587  0.00  0.00    +0.000 A 
ENDBRANCH  10  11
ENDBRANCH   4  10
TORSDOF 4
ENDMDL
MODEL 8
REMARK VINA RESULT:      -6.2      4.340      5.611
REMARK  Name = 
REMARK  4 active torsions:
REMARK  status: ('A' for Active; 'I' for Inactive)
REMARK    1  A    between atoms: C_2  and  O_3
REMARK    2  A    between atoms: C_2  and  C_4
REMARK    3  A    between atoms: C_7  and  S_8
REMARK    4  A    between atoms: S_8  and  C_9
REMARK                            x       y       z     vdW  Elec       q    Type
REMARK                         _______ _______ _______ _____ _____    ______ ____
ROOT
ATOM      1  C   UNL     1       3.646   2.979  18.667  0.00  0.00    +0.000 A 
ATOM      2  C   UNL     1       2.370   3.104  18.156  0.00  0.00    +0.000 A 
ATOM      3  C   UNL     1       2.283   4.406  17.607  0.00  0.00    +0.000 A 
ATOM      4  C   UNL     1       3.512   5.007  17.797  0.00  0.00    +0.000 A 
ATOM      5  O   UNL     1       4.344   4.139  18.451  0.00  0.00    +0.000 OA
ENDROOT
BRANCH   1   7
ATOM      6  O   UNL     1       4.855   1.950  20.436  0.00  0.00    +0.000 OA
ATOM      7  C   UNL     1       4.297   1.887  19.352  0.00  0.00    +0.000 C 
BRANCH   7   8
ATOM      8  O   UNL     1       4.224   0.741  18.628  0.00  0.00    +0.000 OA
ATOM      9  H   UNL     1       5.056   0.231  18.718  0.00  0.00    +0.000 HD
ENDBRANCH   7   8
ENDBRANCH   1   7
BRANCH   4  10
ATOM     10  S   UNL     1       3.996   6.630  17.390  0.00  0.00    +0.000 S 
BRANCH  10  11
ATOM     11  C   UNL     1       2.779   7.548  18.318  0.00  0.00    +0.000 A 
ATOM     12  C   UNL     1       2.473   7.152  19.626  0.00  0.00    +0.000 A 
ATOM     13  C   UNL     1       1.589   7.903  20.410  0.00  0.00    +0.000 A 
ATOM     14  C   UNL     1       1.014   9.057  19.885  0.00  0.00    +0.000 A 
ATOM     15 BR   UNL     1      -0.155  10.092  20.950  0.00  0.00    +0.000 Br
ATOM     16  C   UNL     1       1.308   9.463  18.585  0.00  0.00    +0.000 A 
ATOM     17  C   UNL     1       2.193   8.711  17.805  0.00  0.00    +0.000 A 
ENDBRANCH  10  11
ENDBRANCH   4  10
TORSDOF 4
ENDMDL
MODEL 9
REMARK VINA RESULT:      -6.2      2.073      2.857
REMARK  Name = 
REMARK  4 active torsions:
REMARK  status: ('A' for Active; 'I' for Inactive)
REMARK    1  A    between atoms: C_2  and  O_3
REMARK    2  A    between atoms: C_2  and  C_4
REMARK    3  A    between atoms: C_7  and  S_8
REMARK    4  A    between atoms: S_8  and  C_9
REMARK                            x       y       z     vdW  Elec       q    Type
REMARK                         _______ _______ _______ _____ _____    ______ ____
ROOT
ATOM      1  C   UNL     1       6.466   4.557  15.470  0.00  0.00    +0.000 A 
ATOM      2  C   UNL     1       6.956   4.908  16.712  0.00  0.00    +0.000 A 
ATOM      3  C   UNL     1       5.973   4.524  17.655  0.00  0.00    +0.000 A 
ATOM      4  C   UNL     1       4.937   3.948  16.946  0.00  0.00    +0.000 A 
ATOM      5  O   UNL     1       5.234   3.973  15.610  0.00  0.00    +0.000 OA
ENDROOT
BRANCH   1   7
ATOM      6  O   UNL     1       6.650   4.132  13.139  0.00  0.00    +0.000 OA
ATOM      7  C   UNL     1       7.021   4.714  14.147  0.00  0.00    +0.000 C 
BRANCH   7   8
ATOM      8  O   UNL     1       8.043   5.609  14.146  0.00  0.00    +0.000 OA
ATOM      9  H   UNL     1       8.863   5.183  13.819  0.00  0.00    +0.000 HD
ENDBRANCH   7   8
ENDBRANCH   1   7
BRANCH   4  10
ATOM     10  S   UNL     1       3.420   3.340  17.549  0.00  0.00    +0.000 S 
BRANCH  10  11
ATOM     11  C   UNL     1       2.920   4.726  18.556  0.00  0.00    +0.000 A 
ATOM     12  C   UNL     1       3.006   6.022  18.031  0.00  0.00    +0.000 A 
ATOM     13  C   UNL     1       2.540   7.120  18.762  0.00  0.00    +0.000 A 
ATOM     14  C   UNL     1       1.981   6.921  20.022  0.00  0.00    +0.000 A 
ATOM     15 BR   UNL     1       1.321   8.398  21.000  0.00  0.00    +0.000 Br
ATOM     16  C   UNL     1       1.890   5.639  20.559  0.00  0.00    +0.000 A 
ATOM     17  C   UNL     1       2.356   4.543  19.824  0.00  0.00    +0.000 A 
ENDBRANCH  10  11
ENDBRANCH   4  10
TORSDOF 4
ENDMDL
