MODEL 1
REMARK VINA RESULT:      -9.7      0.000      0.000
REMARK  Name = 
REMARK  3 active torsions:
REMARK  status: ('A' for Active; 'I' for Inactive)
REMARK    1  A    between atoms: N_3  and  C_4
REMARK    2  A    between atoms: N_10  and  C_11
REMARK    3  A    between atoms: C_13  and  C_14
REMARK                            x       y       z     vdW  Elec       q    Type
REMARK                         _______ _______ _______ _____ _____    ______ ____
ROOT
ATOM      1  C   UNL     1       4.132   3.828  18.276  0.00  0.00    +0.000 A 
ATOM      2  N   UNL     1       3.537   4.543  17.310  0.00  0.00    +0.000 NA
ATOM      3  C   UNL     1       2.409   5.109  17.696  0.00  0.00    +0.000 A 
ATOM      4  N   UNL     1       1.501   4.352  18.302  0.00  0.00    +0.000 NA
ATOM      5  C   UNL     1       1.998   3.641  19.305  0.00  0.00    +0.000 A 
ATOM      6  C   UNL     1       1.110   3.458  20.357  0.00  0.00    +0.000 A 
ATOM      7  C   UNL     1       1.485   2.832  21.531  0.00  0.00    +0.000 A 
ATOM      8  C   UNL     1       2.751   2.303  21.612  0.00  0.00    +0.000 A 
ATOM      9  C   UNL     1       3.701   2.523  20.577  0.00  0.00    +0.000 A 
ATOM     10  C   UNL     1       3.364   3.286  19.396  0.00  0.00    +0.000 A 
ENDROOT
BRANCH   1  14
ATOM     11  O   UNL     1       7.043   5.517  17.289  0.00  0.00    +0.000 OA
ATOM     12  C   UNL     1       6.211   4.630  17.129  0.00  0.00    +0.000 C 
ATOM     13  N   UNL     1       5.898   4.016  15.921  0.00  0.00    +0.000 N 
ATOM     14  N   UNL     1       5.553   4.034  18.251  0.00  0.00    +0.000 N 
ATOM     15  H   UNL     1       5.150   3.348  16.016  0.00  0.00    +0.000 HD
ATOM     16  H   UNL     1       5.884   4.447  19.116  0.00  0.00    +0.000 HD
BRANCH  13  17
ATOM     17  C   UNL     1       6.384   4.214  14.598  0.00  0.00    +0.000 A 
ATOM     18  C   UNL     1       7.413   5.066  14.207  0.00  0.00    +0.000 A 
ATOM     19  C   UNL     1       7.821   5.148  12.856  0.00  0.00    +0.000 A 
ATOM     20  C   UNL     1       7.202   4.347  11.882  0.00  0.00    +0.000 A 
ATOM     21  C   UNL     1       6.173   3.497  12.255  0.00  0.00    +0.000 A 
ATOM     22  C   UNL     1       5.763   3.444  13.595  0.00  0.00    +0.000 A 
ENDBRANCH  13  17
ENDBRANCH   1  14
BRANCH   3  23
ATOM     23  C   UNL     1       2.579   6.378  18.516  0.00  0.00    +0.000 A 
ATOM     24  C   UNL     1       2.611   7.594  17.854  0.00  0.00    +0.000 A 
ATOM     25  C   UNL     1       2.129   8.723  18.513  0.00  0.00    +0.000 A 
ATOM     26  C   UNL     1       1.621   8.605  19.806  0.00  0.00    +0.000 A 
ATOM     27  C   UNL     1       1.687   7.380  20.434  0.00  0.00    +0.000 A 
ATOM     28  N   UNL     1       2.188   6.285  19.835  0.00  0.00    +0.000 NA
ENDBRANCH   3  23
TORSDOF 3
ENDMDL
MODEL 2
REMARK VINA RESULT:      -9.5      2.376      7.222
REMARK  Name = 
REMARK  3 active torsions:
REMARK  status: ('A' for Active; 'I' for Inactive)
REMARK    1  A    between atoms: N_3  and  C_4
REMARK    2  A    between atoms: N_10  and  C_11
REMARK    3  A    between atoms: C_13  and  C_14
REMARK                            x       y       z     vdW  Elec       q    Type
REMARK                         _______ _______ _______ _____ _____    ______ ____
ROOT
ATOM      1  C   UNL     1       3.192   6.100  18.608  0.00  0.00    +0.000 A 
ATOM      2  N   UNL     1       4.364   6.566  19.065  0.00  0.00    +0.000 NA
ATOM      3  C   UNL     1       5.357   5.708  18.929  0.00  0.00    +0.000 A 
ATOM      4  N   UNL     1       5.179   4.465  19.365  0.00  0.00    +0.000 NA
ATOM      5  C   UNL     1       4.059   3.911  18.922  0.00  0.00    +0.000 A 
ATOM      6  C   UNL     1       4.160   2.544  18.698  0.00  0.00    +0.000 A 
ATOM      7  C   UNL     1       3.128   1.814  18.139  0.00  0.00    +0.000 A 
ATOM      8  C   UNL     1       1.940   2.458  17.882  0.00  0.00    +0.000 A 
ATOM      9  C   UNL     1       1.823   3.866  18.045  0.00  0.00    +0.000 A 
ATOM     10  C   UNL     1       2.936   4.665  18.509  0.00  0.00    +0.000 A 
ENDROOT
BRANCH   1  14
ATOM     11  O   UNL     1       2.304   9.436  17.986  0.00  0.00    +0.000 OA
ATOM     12  C   UNL     1       2.109   8.360  18.540  0.00  0.00    +0.000 C 
ATOM     13  N   UNL     1       1.419   8.173  19.733  0.00  0.00    +0.000 N 
ATOM     14  N   UNL     1       2.481   7.133  17.906  0.00  0.00    +0.000 N 
ATOM     15  H   UNL     1       1.422   7.209  20.027  0.00  0.00    +0.000 HD
ATOM     16  H   UNL     1       2.891   7.314  16.996  0.00  0.00    +0.000 HD
BRANCH  13  17
ATOM     17  C   UNL     1       0.792   9.087  20.626  0.00  0.00    +0.000 A 
ATOM     18  C   UNL     1       0.125  10.261  20.282  0.00  0.00    +0.000 A 
ATOM     19  C   UNL     1      -0.484  11.070  21.268  0.00  0.00    +0.000 A 
ATOM     20  C   UNL     1      -0.444  10.688  22.619  0.00  0.00    +0.000 A 
ATOM     21  C   UNL     1       0.220   9.524  22.977  0.00  0.00    +0.000 A 
ATOM     22  C   UNL     1       0.841   8.743  21.991  0.00  0.00    +0.000 A 
ENDBRANCH  13  17
ENDBRANCH   1  14
BRANCH   3  23
ATOM     23  C   UNL     1       5.945   5.629  17.529  0.00  0.00    +0.000 A 
ATOM     24  C   UNL     1       6.650   4.492  17.171  0.00  0.00    +0.000 A 
ATOM     25  C   UNL     1       6.635   4.093  15.835  0.00  0.00    +0.000 A 
ATOM     26  C   UNL     1       5.911   4.833  14.901  0.00  0.00    +0.000 A 
ATOM     27  C   UNL     1       5.293   5.994  15.310  0.00  0.00    +0.000 A 
ATOM     28  N   UNL     1       5.329   6.424  16.584  0.00  0.00    +0.000 NA
ENDBRANCH   3  23
TORSDOF 3
ENDMDL
MODEL 3
REMARK VINA RESULT:      -9.4      2.335      7.249
REMARK  Name = 
REMARK  3 active torsions:
REMARK  status: ('A' for Active; 'I' for Inactive)
REMARK    1  A    between atoms: N_3  and  C_4
REMARK    2  A    between atoms: N_10  and  C_11
REMARK    3  A    between atoms: C_13  and  C_14
REMARK                            x       y       z     vdW  Elec       q    Type
REMARK                         _______ _______ _______ _____ _____    ______ ____
ROOT
ATOM      1  C   UNL     1       3.026   6.083  18.837  0.00  0.00    +0.000 A 
ATOM      2  N   UNL     1       4.329   6.378  18.957  0.00  0.00    +0.000 NA
ATOM      3  C   UNL     1       5.119   5.336  18.785  0.00  0.00    +0.000 A 
ATOM      4  N   UNL     1       4.857   4.227  19.469  0.00  0.00    +0.000 NA
ATOM      5  C   UNL     1       3.593   3.838  19.369  0.00  0.00    +0.000 A 
ATOM      6  C   UNL     1       3.428   2.460  19.386  0.00  0.00    +0.000 A 
ATOM      7  C   UNL     1       2.195   1.867  19.189  0.00  0.00    +0.000 A 
ATOM      8  C   UNL     1       1.094   2.681  19.061  0.00  0.00    +0.000 A 
ATOM      9  C   UNL     1       1.236   4.094  18.982  0.00  0.00    +0.000 A 
ATOM     10  C   UNL     1       2.535   4.724  19.058  0.00  0.00    +0.000 A 
ENDROOT
BRANCH   1  14
ATOM     11  O   UNL     1       2.191   9.424  18.172  0.00  0.00    +0.000 OA
ATOM     12  C   UNL     1       1.972   8.355  18.731  0.00  0.00    +0.000 C 
ATOM     13  N   UNL     1       1.258   8.187  19.913  0.00  0.00    +0.000 N 
ATOM     14  N   UNL     1       2.341   7.119  18.114  0.00  0.00    +0.000 N 
ATOM     15  H   UNL     1       1.244   7.225  20.215  0.00  0.00    +0.000 HD
ATOM     16  H   UNL     1       2.771   7.288  17.211  0.00  0.00    +0.000 HD
BRANCH  13  17
ATOM     17  C   UNL     1       0.626   9.116  20.786  0.00  0.00    +0.000 A 
ATOM     18  C   UNL     1      -0.033  10.286  20.419  0.00  0.00    +0.000 A 
ATOM     19  C   UNL     1      -0.649  11.112  21.387  0.00  0.00    +0.000 A 
ATOM     20  C   UNL     1      -0.623  10.749  22.744  0.00  0.00    +0.000 A 
ATOM     21  C   UNL     1       0.033   9.589  23.125  0.00  0.00    +0.000 A 
ATOM     22  C   UNL     1       0.660   8.792  22.156  0.00  0.00    +0.000 A 
ENDBRANCH  13  17
ENDBRANCH   1  14
BRANCH   3  23
ATOM     23  C   UNL     1       5.351   4.943  17.334  0.00  0.00    +0.000 A 
ATOM     24  C   UNL     1       4.867   5.775  16.338  0.00  0.00    +0.000 A 
ATOM     25  C   UNL     1       5.557   5.834  15.128  0.00  0.00    +0.000 A 
ATOM     26  C   UNL     1       6.710   5.071  14.951  0.00  0.00    +0.000 A 
ATOM     27  C   UNL     1       7.095   4.209  15.955  0.00  0.00    +0.000 A 
ATOM     28  N   UNL     1       6.422   4.101  17.115  0.00  0.00    +0.000 NA
ENDBRANCH   3  23
TORSDOF 3
ENDMDL
MODEL 4
REMARK VINA RESULT:      -8.9      4.439      7.131
REMARK  Name = 
REMARK  3 active torsions:
REMARK  status: ('A' for Active; 'I' for Inactive)
REMARK    1  A    between atoms: N_3  and  C_4
REMARK    2  A    between atoms: N_10  and  C_11
REMARK    3  A    between atoms: C_13  and  C_14
REMARK                            x       y       z     vdW  Elec       q    Type
REMARK                         _______ _______ _______ _____ _____    ______ ____
ROOT
ATOM      1  C   UNL     1       1.046   9.270  19.367  0.00  0.00    +0.000 A 
ATOM      2  N   UNL     1       0.615   9.979  18.312  0.00  0.00    +0.000 NA
ATOM      3  C   UNL     1       0.054  11.125  18.646  0.00  0.00    +0.000 A 
ATOM      4  N   UNL     1      -0.889  11.116  19.582  0.00  0.00    +0.000 NA
ATOM      5  C   UNL     1      -0.528  10.470  20.682  0.00  0.00    +0.000 A 
ATOM      6  C   UNL     1      -1.055  11.010  21.848  0.00  0.00    +0.000 A 
ATOM      7  C   UNL     1      -0.707  10.535  23.098  0.00  0.00    +0.000 A 
ATOM      8  C   UNL     1       0.120   9.438  23.171  0.00  0.00    +0.000 A 
ATOM      9  C   UNL     1       0.721   8.899  22.001  0.00  0.00    +0.000 A 
ATOM     10  C   UNL     1       0.468   9.465  20.695  0.00  0.00    +0.000 A 
ENDROOT
BRANCH   1  14
ATOM     11  O   UNL     1       3.123   6.850  17.908  0.00  0.00    +0.000 OA
ATOM     12  C   UNL     1       2.462   7.267  18.853  0.00  0.00    +0.000 C 
ATOM     13  N   UNL     1       1.896   6.488  19.856  0.00  0.00    +0.000 N 
ATOM     14  N   UNL     1       2.321   8.671  19.083  0.00  0.00    +0.000 N 
ATOM     15  H   UNL     1       1.354   7.037  20.504  0.00  0.00    +0.000 HD
ATOM     16  H   UNL     1       2.831   9.199  18.382  0.00  0.00    +0.000 HD
BRANCH  13  17
ATOM     17  C   UNL     1       1.885   5.082  20.080  0.00  0.00    +0.000 A 
ATOM     18  C   UNL     1       2.246   4.423  21.252  0.00  0.00    +0.000 A 
ATOM     19  C   UNL     1       2.162   3.016  21.355  0.00  0.00    +0.000 A 
ATOM     20  C   UNL     1       1.685   2.256  20.273  0.00  0.00    +0.000 A 
ATOM     21  C   UNL     1       1.326   2.898  19.098  0.00  0.00    +0.000 A 
ATOM     22  C   UNL     1       1.438   4.293  19.002  0.00  0.00    +0.000 A 
ENDBRANCH  13  17
ENDBRANCH   1  14
BRANCH   3  23
ATOM     23  C   UNL     1       1.032  12.240  18.983  0.00  0.00    +0.000 A 
ATOM     24  C   UNL     1       2.257  12.262  18.338  0.00  0.00    +0.000 A 
ATOM     25  C   UNL     1       2.865  13.495  18.109  0.00  0.00    +0.000 A 
ATOM     26  C   UNL     1       2.231  14.667  18.519  0.00  0.00    +0.000 A 
ATOM     27  C   UNL     1       1.049  14.569  19.221  0.00  0.00    +0.000 A 
ATOM     28  N   UNL     1       0.464  13.389  19.493  0.00  0.00    +0.000 NA
ENDBRANCH   3  23
TORSDOF 3
ENDMDL
MODEL 5
REMARK VINA RESULT:      -8.8      2.307      7.077
REMARK  Name = 
REMARK  3 active torsions:
REMARK  status: ('A' for Active; 'I' for Inactive)
REMARK    1  A    between atoms: N_3  and  C_4
REMARK    2  A    between atoms: N_10  and  C_11
REMARK    3  A    between atoms: C_13  and  C_14
REMARK                            x       y       z     vdW  Elec       q    Type
REMARK                         _______ _______ _______ _____ _____    ______ ____
ROOT
ATOM      1  C   UNL     1       2.837   6.111  18.638  0.00  0.00    +0.000 A 
ATOM      2  N   UNL     1       4.107   6.496  18.832  0.00  0.00    +0.000 NA
ATOM      3  C   UNL     1       4.967   5.496  18.798  0.00  0.00    +0.000 A 
ATOM      4  N   UNL     1       4.717   4.425  19.543  0.00  0.00    +0.000 NA
ATOM      5  C   UNL     1       3.489   3.950  19.380  0.00  0.00    +0.000 A 
ATOM      6  C   UNL     1       3.404   2.568  19.488  0.00  0.00    +0.000 A 
ATOM      7  C   UNL     1       2.226   1.886  19.245  0.00  0.00    +0.000 A 
ATOM      8  C   UNL     1       1.094   2.617  18.975  0.00  0.00    +0.000 A 
ATOM      9  C   UNL     1       1.160   4.027  18.800  0.00  0.00    +0.000 A 
ATOM     10  C   UNL     1       2.410   4.742  18.924  0.00  0.00    +0.000 A 
ENDROOT
BRANCH   1  14
ATOM     11  O   UNL     1       2.155   9.328  17.419  0.00  0.00    +0.000 OA
ATOM     12  C   UNL     1       1.923   8.401  18.188  0.00  0.00    +0.000 C 
ATOM     13  N   UNL     1       1.317   8.511  19.435  0.00  0.00    +0.000 N 
ATOM     14  N   UNL     1       2.152   7.047  17.790  0.00  0.00    +0.000 N 
ATOM     15  H   UNL     1       1.271   7.626  19.915  0.00  0.00    +0.000 HD
ATOM     16  H   UNL     1       2.503   7.011  16.838  0.00  0.00    +0.000 HD
BRANCH  13  17
ATOM     17  C   UNL     1       0.831   9.633  20.163  0.00  0.00    +0.000 A 
ATOM     18  C   UNL     1       0.195   9.609  21.402  0.00  0.00    +0.000 A 
ATOM     19  C   UNL     1      -0.215  10.804  22.036  0.00  0.00    +0.000 A 
ATOM     20  C   UNL     1       0.037  12.047  21.430  0.00  0.00    +0.000 A 
ATOM     21  C   UNL     1       0.666  12.086  20.195  0.00  0.00    +0.000 A 
ATOM     22  C   UNL     1       1.045  10.891  19.567  0.00  0.00    +0.000 A 
ENDBRANCH  13  17
ENDBRANCH   1  14
BRANCH   3  23
ATOM     23  C   UNL     1       5.336   5.016  17.403  0.00  0.00    +0.000 A 
ATOM     24  C   UNL     1       4.871   5.734  16.314  0.00  0.00    +0.000 A 
ATOM     25  C   UNL     1       5.644   5.756  15.154  0.00  0.00    +0.000 A 
ATOM     26  C   UNL     1       6.858   5.072  15.118  0.00  0.00    +0.000 A 
ATOM     27  C   UNL     1       7.226   4.319  16.212  0.00  0.00    +0.000 A 
ATOM     28  N   UNL     1       6.476   4.245  17.326  0.00  0.00    +0.000 NA
ENDBRANCH   3  23
TORSDOF 3
ENDMDL
MODEL 6
REMARK VINA RESULT:      -8.7      2.705      7.047
REMARK  Name = 
REMARK  3 active torsions:
REMARK  status: ('A' for Active; 'I' for Inactive)
REMARK    1  A    between atoms: N_3  and  C_4
REMARK    2  A    between atoms: N_10  and  C_11
REMARK    3  A    between atoms: C_13  and  C_14
REMARK                            x       y       z     vdW  Elec       q    Type
REMARK                         _______ _______ _______ _____ _____    ______ ____
ROOT
ATOM      1  C   UNL     1       3.054   6.654  18.193  0.00  0.00    +0.000 A 
ATOM      2  N   UNL     1       1.898   5.977  18.137  0.00  0.00    +0.000 NA
ATOM      3  C   UNL     1       2.060   4.679  17.965  0.00  0.00    +0.000 A 
ATOM      4  N   UNL     1       2.856   4.268  16.984  0.00  0.00    +0.000 NA
ATOM      5  C   UNL     1       4.044   4.859  16.992  0.00  0.00    +0.000 A 
ATOM      6  C   UNL     1       5.080   4.040  16.563  0.00  0.00    +0.000 A 
ATOM      7  C   UNL     1       6.400   4.448  16.602  0.00  0.00    +0.000 A 
ATOM      8  C   UNL     1       6.672   5.737  16.997  0.00  0.00    +0.000 A 
ATOM      9  C   UNL     1       5.641   6.580  17.497  0.00  0.00    +0.000 A 
ATOM     10  C   UNL     1       4.272   6.123  17.583  0.00  0.00    +0.000 A 
ENDROOT
BRANCH   1  14
ATOM     11  O   UNL     1       1.399   8.588  20.606  0.00  0.00    +0.000 OA
ATOM     12  C   UNL     1       1.806   8.419  19.462  0.00  0.00    +0.000 C 
ATOM     13  N   UNL     1       1.281   9.009  18.316  0.00  0.00    +0.000 N 
ATOM     14  N   UNL     1       2.995   7.665  19.213  0.00  0.00    +0.000 N 
ATOM     15  H   UNL     1       1.742   8.690  17.479  0.00  0.00    +0.000 HD
ATOM     16  H   UNL     1       3.396   7.337  20.085  0.00  0.00    +0.000 HD
BRANCH  13  17
ATOM     17  C   UNL     1       0.191   9.902  18.118  0.00  0.00    +0.000 A 
ATOM     18  C   UNL     1      -1.022   9.609  17.499  0.00  0.00    +0.000 A 
ATOM     19  C   UNL     1      -2.041  10.583  17.391  0.00  0.00    +0.000 A 
ATOM     20  C   UNL     1      -1.851  11.866  17.931  0.00  0.00    +0.000 A 
ATOM     21  C   UNL     1      -0.647  12.174  18.546  0.00  0.00    +0.000 A 
ATOM     22  C   UNL     1       0.364  11.205  18.624  0.00  0.00    +0.000 A 
ENDBRANCH  13  17
ENDBRANCH   1  14
BRANCH   3  23
ATOM     23  C   UNL     1       2.437   3.911  19.222  0.00  0.00    +0.000 A 
ATOM     24  C   UNL     1       2.401   4.574  20.438  0.00  0.00    +0.000 A 
ATOM     25  C   UNL     1       2.101   3.842  21.586  0.00  0.00    +0.000 A 
ATOM     26  C   UNL     1       1.837   2.476  21.486  0.00  0.00    +0.000 A 
ATOM     27  C   UNL     1       1.962   1.866  20.258  0.00  0.00    +0.000 A 
ATOM     28  N   UNL     1       2.293   2.542  19.143  0.00  0.00    +0.000 NA
ENDBRANCH   3  23
TORSDOF 3
ENDMDL
MODEL 7
REMARK VINA RESULT:      -8.7      2.532      6.968
REMARK  Name = 
REMARK  3 active torsions:
REMARK  status: ('A' for Active; 'I' for Inactive)
REMARK    1  A    between atoms: N_3  and  C_4
REMARK    2  A    between atoms: N_10  and  C_11
REMARK    3  A    between atoms: C_13  and  C_14
REMARK                            x       y       z     vdW  Elec       q    Type
REMARK                         _______ _______ _______ _____ _____    ______ ____
ROOT
ATOM      1  C   UNL     1       3.279   5.989  18.416  0.00  0.00    +0.000 A 
ATOM      2  N   UNL     1       2.156   5.337  18.083  0.00  0.00    +0.000 NA
ATOM      3  C   UNL     1       2.378   4.156  17.539  0.00  0.00    +0.000 A 
ATOM      4  N   UNL     1       3.244   4.079  16.534  0.00  0.00    +0.000 NA
ATOM      5  C   UNL     1       4.404   4.664  16.797  0.00  0.00    +0.000 A 
ATOM      6  C   UNL     1       5.495   4.036  16.209  0.00  0.00    +0.000 A 
ATOM      7  C   UNL     1       6.793   4.441  16.455  0.00  0.00    +0.000 A 
ATOM      8  C   UNL     1       6.991   5.554  17.237  0.00  0.00    +0.000 A 
ATOM      9  C   UNL     1       5.902   6.184  17.899  0.00  0.00    +0.000 A 
ATOM     10  C   UNL     1       4.549   5.694  17.755  0.00  0.00    +0.000 A 
ENDROOT
BRANCH   1  14
ATOM     11  O   UNL     1       1.386   7.372  21.024  0.00  0.00    +0.000 OA
ATOM     12  C   UNL     1       2.003   7.485  19.971  0.00  0.00    +0.000 C 
ATOM     13  N   UNL     1       1.805   8.474  19.014  0.00  0.00    +0.000 N 
ATOM     14  N   UNL     1       3.123   6.642  19.686  0.00  0.00    +0.000 N 
ATOM     15  H   UNL     1       2.392   8.344  18.205  0.00  0.00    +0.000 HD
ATOM     16  H   UNL     1       3.289   6.002  20.456  0.00  0.00    +0.000 HD
BRANCH  13  17
ATOM     17  C   UNL     1       0.892   9.564  18.943  0.00  0.00    +0.000 A 
ATOM     18  C   UNL     1       0.912  10.718  19.723  0.00  0.00    +0.000 A 
ATOM     19  C   UNL     1      -0.041  11.745  19.531  0.00  0.00    +0.000 A 
ATOM     20  C   UNL     1      -1.018  11.624  18.528  0.00  0.00    +0.000 A 
ATOM     21  C   UNL     1      -1.053  10.479  17.748  0.00  0.00    +0.000 A 
ATOM     22  C   UNL     1      -0.116   9.458  17.965  0.00  0.00    +0.000 A 
ENDBRANCH  13  17
ENDBRANCH   1  14
BRANCH   3  23
ATOM     23  C   UNL     1       2.715   3.051  18.528  0.00  0.00    +0.000 A 
ATOM     24  C   UNL     1       3.307   1.894  18.050  0.00  0.00    +0.000 A 
ATOM     25  C   UNL     1       4.176   1.196  18.888  0.00  0.00    +0.000 A 
ATOM     26  C   UNL     1       4.434   1.677  20.171  0.00  0.00    +0.000 A 
ATOM     27  C   UNL     1       3.756   2.793  20.609  0.00  0.00    +0.000 A 
ATOM     28  N   UNL     1       2.880   3.459  19.835  0.00  0.00    +0.000 NA
ENDBRANCH   3  23
TORSDOF 3
ENDMDL
MODEL 8
REMARK VINA RESULT:      -8.5      2.263      3.183
REMARK  Name = 
REMARK  3 active torsions:
REMARK  status: ('A' for Active; 'I' for Inactive)
REMARK    1  A    between atoms: N_3  and  C_4
REMARK    2  A    between atoms: N_10  and  C_11
REMARK    3  A    between atoms: C_13  and  C_14
REMARK                            x       y       z     vdW  Elec       q    Type
REMARK                         _______ _______ _______ _____ _____    ______ ____
ROOT
ATOM      1  C   UNL     1       2.712   3.184  17.564  0.00  0.00    +0.000 A 
ATOM      2  N   UNL     1       1.547   3.847  17.531  0.00  0.00    +0.000 NA
ATOM      3  C   UNL     1       1.182   4.323  18.706  0.00  0.00    +0.000 A 
ATOM      4  N   UNL     1       1.187   3.499  19.749  0.00  0.00    +0.000 NA
ATOM      5  C   UNL     1       2.326   2.832  19.882  0.00  0.00    +0.000 A 
ATOM      6  C   UNL     1       2.678   2.583  21.202  0.00  0.00    +0.000 A 
ATOM      7  C   UNL     1       3.881   1.992  21.540  0.00  0.00    +0.000 A 
ATOM      8  C   UNL     1       4.705   1.565  20.525  0.00  0.00    +0.000 A 
ATOM      9  C   UNL     1       4.400   1.856  19.167  0.00  0.00    +0.000 A 
ATOM     10  C   UNL     1       3.207   2.587  18.803  0.00  0.00    +0.000 A 
ENDROOT
BRANCH   1  14
ATOM     11  O   UNL     1       5.738   3.497  15.819  0.00  0.00    +0.000 OA
ATOM     12  C   UNL     1       4.850   3.972  16.518  0.00  0.00    +0.000 C 
ATOM     13  N   UNL     1       4.982   5.060  17.374  0.00  0.00    +0.000 N 
ATOM     14  N   UNL     1       3.504   3.502  16.408  0.00  0.00    +0.000 N 
ATOM     15  H   UNL     1       4.135   5.246  17.886  0.00  0.00    +0.000 HD
ATOM     16  H   UNL     1       3.438   2.775  15.702  0.00  0.00    +0.000 HD
BRANCH  13  17
ATOM     17  C   UNL     1       6.094   5.887  17.700  0.00  0.00    +0.000 A 
ATOM     18  C   UNL     1       6.438   7.094  17.097  0.00  0.00    +0.000 A 
ATOM     19  C   UNL     1       7.557   7.837  17.538  0.00  0.00    +0.000 A 
ATOM     20  C   UNL     1       8.332   7.375  18.615  0.00  0.00    +0.000 A 
ATOM     21  C   UNL     1       8.004   6.172  19.222  0.00  0.00    +0.000 A 
ATOM     22  C   UNL     1       6.905   5.434  18.759  0.00  0.00    +0.000 A 
ENDBRANCH  13  17
ENDBRANCH   1  14
BRANCH   3  23
ATOM     23  C   UNL     1       1.887   5.604  19.123  0.00  0.00    +0.000 A 
ATOM     24  C   UNL     1       2.263   6.502  18.138  0.00  0.00    +0.000 A 
ATOM     25  C   UNL     1       2.294   7.860  18.453  0.00  0.00    +0.000 A 
ATOM     26  C   UNL     1       1.940   8.281  19.735  0.00  0.00    +0.000 A 
ATOM     27  C   UNL     1       1.648   7.330  20.687  0.00  0.00    +0.000 A 
ATOM     28  N   UNL     1       1.654   6.011  20.420  0.00  0.00    +0.000 NA
ENDBRANCH   3  23
TORSDOF 3
ENDMDL
MODEL 9
REMARK VINA RESULT:      -8.5      4.490      8.254
REMARK  Name = 
REMARK  3 active torsions:
REMARK  status: ('A' for Active; 'I' for Inactive)
REMARK    1  A    between atoms: N_3  and  C_4
REMARK    2  A    between atoms: N_10  and  C_11
REMARK    3  A    between atoms: C_13  and  C_14
REMARK                            x       y       z     vdW  Elec       q    Type
REMARK                         _______ _______ _______ _____ _____    ______ ____
ROOT
ATOM      1  C   UNL     1       1.025  10.808  19.156  0.00  0.00    +0.000 A 
ATOM      2  N   UNL     1      -0.006  10.011  19.474  0.00  0.00    +0.000 NA
ATOM      3  C   UNL     1      -1.162  10.644  19.520  0.00  0.00    +0.000 A 
ATOM      4  N   UNL     1      -1.240  11.762  20.232  0.00  0.00    +0.000 NA
ATOM      5  C   UNL     1      -0.278  12.630  19.949  0.00  0.00    +0.000 A 
ATOM      6  C   UNL     1      -0.675  13.958  20.043  0.00  0.00    +0.000 A 
ATOM      7  C   UNL     1       0.159  14.999  19.685  0.00  0.00    +0.000 A 
ATOM      8  C   UNL     1       1.448  14.701  19.309  0.00  0.00    +0.000 A 
ATOM      9  C   UNL     1       1.867  13.352  19.147  0.00  0.00    +0.000 A 
ATOM     10  C   UNL     1       0.966  12.249  19.394  0.00  0.00    +0.000 A 
ENDROOT
BRANCH   1  14
ATOM     11  O   UNL     1       1.968   8.159  17.060  0.00  0.00    +0.000 OA
ATOM     12  C   UNL     1       1.969   8.714  18.154  0.00  0.00    +0.000 C 
ATOM     13  N   UNL     1       2.145   8.088  19.383  0.00  0.00    +0.000 N 
ATOM     14  N   UNL     1       1.917  10.140  18.250  0.00  0.00    +0.000 N 
ATOM     15  H   UNL     1       2.061   8.732  20.153  0.00  0.00    +0.000 HD
ATOM     16  H   UNL     1       1.887  10.557  17.325  0.00  0.00    +0.000 HD
BRANCH  13  17
ATOM     17  C   UNL     1       2.342   6.724  19.739  0.00  0.00    +0.000 A 
ATOM     18  C   UNL     1       1.537   5.959  20.580  0.00  0.00    +0.000 A 
ATOM     19  C   UNL     1       1.829   4.598  20.830  0.00  0.00    +0.000 A 
ATOM     20  C   UNL     1       2.932   3.987  20.211  0.00  0.00    +0.000 A 
ATOM     21  C   UNL     1       3.745   4.738  19.375  0.00  0.00    +0.000 A 
ATOM     22  C   UNL     1       3.457   6.093  19.155  0.00  0.00    +0.000 A 
ENDBRANCH  13  17
ENDBRANCH   1  14
BRANCH   3  23
ATOM     23  C   UNL     1      -1.799  10.911  18.165  0.00  0.00    +0.000 A 
ATOM     24  C   UNL     1      -1.578  10.005  17.141  0.00  0.00    +0.000 A 
ATOM     25  C   UNL     1      -2.571   9.835  16.177  0.00  0.00    +0.000 A 
ATOM     26  C   UNL     1      -3.756  10.565  16.269  0.00  0.00    +0.000 A 
ATOM     27  C   UNL     1      -3.880  11.502  17.271  0.00  0.00    +0.000 A 
ATOM     28  N   UNL     1      -2.918  11.716  18.187  0.00  0.00    +0.000 NA
ENDBRANCH   3  23
TORSDOF 3
ENDMDL
