MODEL 1
REMARK VINA RESULT:      -8.7      0.000      0.000
REMARK  Name = 
REMARK  10 active torsions:
REMARK  status: ('A' for Active; 'I' for Inactive)
REMARK    1  A    between atoms: C_1  and  O_2
REMARK    2  A    between atoms: O_2  and  C_3
REMARK    3  A    between atoms: C_6  and  O_7
REMARK    4  A    between atoms: O_7  and  C_8
REMARK    5  A    between atoms: C_9  and  N_10
REMARK    6  A    between atoms: C_11  and  C_13
REMARK    7  A    between atoms: C_13  and  N_14
REMARK    8  A    between atoms: N_14  and  C_15
REMARK    9  A    between atoms: N_14  and  S_16
REMARK   10  A    between atoms: S_16  and  C_19
REMARK                            x       y       z     vdW  Elec       q    Type
REMARK                         _______ _______ _______ _____ _____    ______ ____
ROOT
ATOM      1  N   UNL     1       3.689   3.058  20.175  0.00  0.00    +0.000 NA
ATOM      2  C   UNL     1       4.615   2.065  20.778  0.00  0.00    +0.000 C 
ENDROOT
BRANCH   1   3
ATOM      3  S   UNL     1       3.372   2.768  18.512  0.00  0.00    +0.000 S 
ATOM      4  O   UNL     1       3.574   1.360  18.247  0.00  0.00    +0.000 OA
ATOM      5  O   UNL     1       2.143   3.448  18.161  0.00  0.00    +0.000 OA
BRANCH   3   6
ATOM      6  C   UNL     1       4.721   3.631  17.766  0.00  0.00    +0.000 A 
ATOM      7  C   UNL     1       5.600   4.470  18.455  0.00  0.00    +0.000 A 
ATOM      8  C   UNL     1       6.642   5.128  17.762  0.00  0.00    +0.000 A 
ATOM      9  C   UNL     1       6.739   4.915  16.374  0.00  0.00    +0.000 A 
ATOM     10  N   UNL     1       7.597   5.413  15.402  0.00  0.00    +0.000 N 
ATOM     11  C   UNL     1       7.235   4.917  14.164  0.00  0.00    +0.000 A 
ATOM     12  C   UNL     1       6.162   4.094  14.339  0.00  0.00    +0.000 A 
ATOM     13  C   UNL     1       5.853   4.077  15.708  0.00  0.00    +0.000 A 
ATOM     14  C   UNL     1       4.846   3.417  16.402  0.00  0.00    +0.000 A 
ATOM     15  C   UNL     1       5.433   3.370  13.280  0.00  0.00    +0.000 C 
ATOM     16  C   UNL     1       5.825   3.818  11.880  0.00  0.00    +0.000 C 
ATOM     17  C   UNL     1       7.229   4.428  11.699  0.00  0.00    +0.000 C 
ATOM     18  C   UNL     1       7.856   5.244  12.857  0.00  0.00    +0.000 C 
ATOM     19  H   UNL     1       8.351   6.063  15.582  0.00  0.00    +0.000 HD
ENDBRANCH   3   6
ENDBRANCH   1   3
BRANCH   1  20
ATOM     20  C   UNL     1       2.438   3.242  20.978  0.00  0.00    +0.000 C 
BRANCH  20  22
ATOM     21  N   UNL     1       2.479   5.577  20.357  0.00  0.00    +0.000 N 
ATOM     22  C   UNL     1       1.657   4.471  20.516  0.00  0.00    +0.000 C 
ATOM     23  O   UNL     1       0.433   4.426  20.433  0.00  0.00    +0.000 OA
ATOM     24  H   UNL     1       3.391   5.481  20.795  0.00  0.00    +0.000 HD
BRANCH  21  29
ATOM     25  C   UNL     1       1.065   8.968  20.735  0.00  0.00    +0.000 A 
ATOM     26  C   UNL     1       1.215   9.504  19.462  0.00  0.00    +0.000 A 
ATOM     27  C   UNL     1       1.826   8.762  18.453  0.00  0.00    +0.000 A 
ATOM     28  C   UNL     1       2.269   7.453  18.690  0.00  0.00    +0.000 A 
ATOM     29  C   UNL     1       2.104   6.889  19.971  0.00  0.00    +0.000 A 
ATOM     30  C   UNL     1       1.526   7.674  20.989  0.00  0.00    +0.000 A 
BRANCH  25  32
ATOM     31  C   UNL     1       0.281  11.157  21.236  0.00  0.00    +0.000 C 
ATOM     32  O   UNL     1       0.454   9.803  21.628  0.00  0.00    +0.000 OA
ENDBRANCH  25  32
BRANCH  28  33
ATOM     33  O   UNL     1       2.980   6.776  17.736  0.00  0.00    +0.000 OA
ATOM     34  C   UNL     1       4.093   7.483  17.191  0.00  0.00    +0.000 C 
ENDBRANCH  28  33
ENDBRANCH  21  29
ENDBRANCH  20  22
ENDBRANCH   1  20
TORSDOF 7
ENDMDL
MODEL 2
REMARK VINA RESULT:      -8.7      2.153      7.958
REMARK  Name = 
REMARK  10 active torsions:
REMARK  status: ('A' for Active; 'I' for Inactive)
REMARK    1  A    between atoms: C_1  and  O_2
REMARK    2  A    between atoms: O_2  and  C_3
REMARK    3  A    between atoms: C_6  and  O_7
REMARK    4  A    between atoms: O_7  and  C_8
REMARK    5  A    between atoms: C_9  and  N_10
REMARK    6  A    between atoms: C_11  and  C_13
REMARK    7  A    between atoms: C_13  and  N_14
REMARK    8  A    between atoms: N_14  and  C_15
REMARK    9  A    between atoms: N_14  and  S_16
REMARK   10  A    between atoms: S_16  and  C_19
REMARK                            x       y       z     vdW  Elec       q    Type
REMARK                         _______ _______ _______ _____ _____    ______ ____
ROOT
ATOM      1  N   UNL     1       1.780   3.393  19.433  0.00  0.00    +0.000 NA
ATOM      2  C   UNL     1       0.678   2.733  20.178  0.00  0.00    +0.000 C 
ENDROOT
BRANCH   1   3
ATOM      3  S   UNL     1       2.787   4.365  20.430  0.00  0.00    +0.000 S 
ATOM      4  O   UNL     1       2.291   4.294  21.787  0.00  0.00    +0.000 OA
ATOM      5  O   UNL     1       4.166   4.074  20.099  0.00  0.00    +0.000 OA
BRANCH   3   6
ATOM      6  C   UNL     1       2.394   5.976  19.821  0.00  0.00    +0.000 A 
ATOM      7  C   UNL     1       2.821   6.482  18.592  0.00  0.00    +0.000 A 
ATOM      8  C   UNL     1       2.462   7.792  18.201  0.00  0.00    +0.000 A 
ATOM      9  C   UNL     1       1.686   8.552  19.097  0.00  0.00    +0.000 A 
ATOM     10  N   UNL     1       1.195   9.850  19.052  0.00  0.00    +0.000 N 
ATOM     11  C   UNL     1       0.518  10.131  20.223  0.00  0.00    +0.000 A 
ATOM     12  C   UNL     1       0.559   9.019  21.010  0.00  0.00    +0.000 A 
ATOM     13  C   UNL     1       1.272   8.029  20.317  0.00  0.00    +0.000 A 
ATOM     14  C   UNL     1       1.611   6.731  20.681  0.00  0.00    +0.000 A 
ATOM     15  C   UNL     1      -0.015   8.882  22.362  0.00  0.00    +0.000 C 
ATOM     16  C   UNL     1      -0.467  10.210  22.950  0.00  0.00    +0.000 C 
ATOM     17  C   UNL     1      -0.847  11.329  21.961  0.00  0.00    +0.000 C 
ATOM     18  C   UNL     1      -0.109  11.421  20.601  0.00  0.00    +0.000 C 
ATOM     19  H   UNL     1       1.342  10.492  18.284  0.00  0.00    +0.000 HD
ENDBRANCH   3   6
ENDBRANCH   1   3
BRANCH   1  20
ATOM     20  C   UNL     1       2.560   2.435  18.584  0.00  0.00    +0.000 C 
BRANCH  20  22
ATOM     21  N   UNL     1       4.509   3.263  17.422  0.00  0.00    +0.000 N 
ATOM     22  C   UNL     1       3.131   3.126  17.348  0.00  0.00    +0.000 C 
ATOM     23  O   UNL     1       2.376   3.578  16.493  0.00  0.00    +0.000 OA
ATOM     24  H   UNL     1       4.890   3.122  18.354  0.00  0.00    +0.000 HD
BRANCH  21  29
ATOM     25  C   UNL     1       5.972   3.989  14.109  0.00  0.00    +0.000 A 
ATOM     26  C   UNL     1       6.983   4.893  14.415  0.00  0.00    +0.000 A 
ATOM     27  C   UNL     1       7.178   5.313  15.729  0.00  0.00    +0.000 A 
ATOM     28  C   UNL     1       6.386   4.810  16.770  0.00  0.00    +0.000 A 
ATOM     29  C   UNL     1       5.372   3.876  16.479  0.00  0.00    +0.000 A 
ATOM     30  C   UNL     1       5.162   3.500  15.137  0.00  0.00    +0.000 A 
BRANCH  25  32
ATOM     31  C   UNL     1       7.082   3.757  12.018  0.00  0.00    +0.000 C 
ATOM     32  O   UNL     1       5.890   3.665  12.784  0.00  0.00    +0.000 OA
ENDBRANCH  25  32
BRANCH  28  33
ATOM     33  O   UNL     1       6.497   5.319  18.037  0.00  0.00    +0.000 OA
ATOM     34  C   UNL     1       7.558   6.255  18.225  0.00  0.00    +0.000 C 
ENDBRANCH  28  33
ENDBRANCH  21  29
ENDBRANCH  20  22
ENDBRANCH   1  20
TORSDOF 7
ENDMDL
MODEL 3
REMARK VINA RESULT:      -8.3      1.288      1.756
REMARK  Name = 
REMARK  10 active torsions:
REMARK  status: ('A' for Active; 'I' for Inactive)
REMARK    1  A    between atoms: C_1  and  O_2
REMARK    2  A    between atoms: O_2  and  C_3
REMARK    3  A    between atoms: C_6  and  O_7
REMARK    4  A    between atoms: O_7  and  C_8
REMARK    5  A    between atoms: C_9  and  N_10
REMARK    6  A    between atoms: C_11  and  C_13
REMARK    7  A    between atoms: C_13  and  N_14
REMARK    8  A    between atoms: N_14  and  C_15
REMARK    9  A    between atoms: N_14  and  S_16
REMARK   10  A    between atoms: S_16  and  C_19
REMARK                            x       y       z     vdW  Elec       q    Type
REMARK                         _______ _______ _______ _____ _____    ______ ____
ROOT
ATOM      1  N   UNL     1       2.704   3.814  20.160  0.00  0.00    +0.000 NA
ATOM      2  C   UNL     1       3.016   2.740  21.138  0.00  0.00    +0.000 C 
ENDROOT
BRANCH   1   3
ATOM      3  S   UNL     1       2.638   3.255  18.536  0.00  0.00    +0.000 S 
ATOM      4  O   UNL     1       2.846   1.823  18.537  0.00  0.00    +0.000 OA
ATOM      5  O   UNL     1       1.493   3.866  17.894  0.00  0.00    +0.000 OA
BRANCH   3   6
ATOM      6  C   UNL     1       4.105   3.988  17.879  0.00  0.00    +0.000 A 
ATOM      7  C   UNL     1       4.970   4.813  18.602  0.00  0.00    +0.000 A 
ATOM      8  C   UNL     1       6.113   5.362  17.979  0.00  0.00    +0.000 A 
ATOM      9  C   UNL     1       6.325   5.059  16.620  0.00  0.00    +0.000 A 
ATOM     10  N   UNL     1       7.301   5.444  15.710  0.00  0.00    +0.000 N 
ATOM     11  C   UNL     1       7.024   4.895  14.473  0.00  0.00    +0.000 A 
ATOM     12  C   UNL     1       5.888   4.151  14.587  0.00  0.00    +0.000 A 
ATOM     13  C   UNL     1       5.451   4.237  15.918  0.00  0.00    +0.000 A 
ATOM     14  C   UNL     1       4.343   3.683  16.547  0.00  0.00    +0.000 A 
ATOM     15  C   UNL     1       5.215   3.410  13.504  0.00  0.00    +0.000 C 
ATOM     16  C   UNL     1       5.765   3.746  12.126  0.00  0.00    +0.000 C 
ATOM     17  C   UNL     1       7.217   4.257  12.049  0.00  0.00    +0.000 C 
ATOM     18  C   UNL     1       7.785   5.103  13.216  0.00  0.00    +0.000 C 
ATOM     19  H   UNL     1       8.076   6.057  15.926  0.00  0.00    +0.000 HD
ENDBRANCH   3   6
ENDBRANCH   1   3
BRANCH   1  20
ATOM     20  C   UNL     1       1.496   4.613  20.544  0.00  0.00    +0.000 C 
BRANCH  20  22
ATOM     21  N   UNL     1       0.685   6.863  20.885  0.00  0.00    +0.000 N 
ATOM     22  C   UNL     1       1.806   6.108  20.576  0.00  0.00    +0.000 C 
ATOM     23  O   UNL     1       2.916   6.513  20.242  0.00  0.00    +0.000 OA
ATOM     24  H   UNL     1      -0.192   6.356  20.797  0.00  0.00    +0.000 HD
BRANCH  21  29
ATOM     25  C   UNL     1      -0.241  10.128  22.341  0.00  0.00    +0.000 A 
ATOM     26  C   UNL     1       0.207  11.028  21.381  0.00  0.00    +0.000 A 
ATOM     27  C   UNL     1       0.863  10.571  20.240  0.00  0.00    +0.000 A 
ATOM     28  C   UNL     1       1.055   9.199  20.021  0.00  0.00    +0.000 A 
ATOM     29  C   UNL     1       0.586   8.274  20.975  0.00  0.00    +0.000 A 
ATOM     30  C   UNL     1      -0.033   8.761  22.144  0.00  0.00    +0.000 A 
BRANCH  25  32
ATOM     31  C   UNL     1      -1.575  11.916  23.167  0.00  0.00    +0.000 C 
ATOM     32  O   UNL     1      -0.864  10.710  23.409  0.00  0.00    +0.000 OA
ENDBRANCH  25  32
BRANCH  28  33
ATOM     33  O   UNL     1       1.809   8.762  18.965  0.00  0.00    +0.000 OA
ATOM     34  C   UNL     1       1.687   9.534  17.771  0.00  0.00    +0.000 C 
ENDBRANCH  28  33
ENDBRANCH  21  29
ENDBRANCH  20  22
ENDBRANCH   1  20
TORSDOF 7
ENDMDL
MODEL 4
REMARK VINA RESULT:      -8.2      2.191      3.124
REMARK  Name = 
REMARK  10 active torsions:
REMARK  status: ('A' for Active; 'I' for Inactive)
REMARK    1  A    between atoms: C_1  and  O_2
REMARK    2  A    between atoms: O_2  and  C_3
REMARK    3  A    between atoms: C_6  and  O_7
REMARK    4  A    between atoms: O_7  and  C_8
REMARK    5  A    between atoms: C_9  and  N_10
REMARK    6  A    between atoms: C_11  and  C_13
REMARK    7  A    between atoms: C_13  and  N_14
REMARK    8  A    between atoms: N_14  and  C_15
REMARK    9  A    between atoms: N_14  and  S_16
REMARK   10  A    between atoms: S_16  and  C_19
REMARK                            x       y       z     vdW  Elec       q    Type
REMARK                         _______ _______ _______ _____ _____    ______ ____
ROOT
ATOM      1  N   UNL     1       2.519   5.309  19.470  0.00  0.00    +0.000 NA
ATOM      2  C   UNL     1       1.324   5.055  20.315  0.00  0.00    +0.000 C 
ENDROOT
BRANCH   1   3
ATOM      3  S   UNL     1       3.224   3.873  18.843  0.00  0.00    +0.000 S 
ATOM      4  O   UNL     1       3.753   3.103  19.947  0.00  0.00    +0.000 OA
ATOM      5  O   UNL     1       2.306   3.303  17.878  0.00  0.00    +0.000 OA
BRANCH   3   6
ATOM      6  C   UNL     1       4.607   4.542  17.970  0.00  0.00    +0.000 A 
ATOM      7  C   UNL     1       5.504   5.469  18.503  0.00  0.00    +0.000 A 
ATOM      8  C   UNL     1       6.574   5.955  17.717  0.00  0.00    +0.000 A 
ATOM      9  C   UNL     1       6.679   5.482  16.395  0.00  0.00    +0.000 A 
ATOM     10  N   UNL     1       7.563   5.764  15.361  0.00  0.00    +0.000 N 
ATOM     11  C   UNL     1       7.198   5.054  14.233  0.00  0.00    +0.000 A 
ATOM     12  C   UNL     1       6.098   4.310  14.541  0.00  0.00    +0.000 A 
ATOM     13  C   UNL     1       5.774   4.559  15.883  0.00  0.00    +0.000 A 
ATOM     14  C   UNL     1       4.740   4.071  16.673  0.00  0.00    +0.000 A 
ATOM     15  C   UNL     1       5.359   3.421  13.625  0.00  0.00    +0.000 C 
ATOM     16  C   UNL     1       5.779   3.586  12.172  0.00  0.00    +0.000 C 
ATOM     17  C   UNL     1       7.203   4.110  11.903  0.00  0.00    +0.000 C 
ATOM     18  C   UNL     1       7.843   5.111  12.898  0.00  0.00    +0.000 C 
ATOM     19  H   UNL     1       8.335   6.414  15.428  0.00  0.00    +0.000 HD
ENDBRANCH   3   6
ENDBRANCH   1   3
BRANCH   1  20
ATOM     20  C   UNL     1       2.269   6.339  18.411  0.00  0.00    +0.000 C 
BRANCH  20  22
ATOM     21  N   UNL     1       1.593   8.633  18.068  0.00  0.00    +0.000 N 
ATOM     22  C   UNL     1       1.981   7.708  19.025  0.00  0.00    +0.000 C 
ATOM     23  O   UNL     1       2.205   7.907  20.215  0.00  0.00    +0.000 OA
ATOM     24  H   UNL     1       1.794   8.349  17.112  0.00  0.00    +0.000 HD
BRANCH  21  29
ATOM     25  C   UNL     1       2.197  12.267  18.332  0.00  0.00    +0.000 A 
ATOM     26  C   UNL     1       0.938  12.762  18.652  0.00  0.00    +0.000 A 
ATOM     27  C   UNL     1      -0.153  11.901  18.750  0.00  0.00    +0.000 A 
ATOM     28  C   UNL     1       0.001  10.520  18.564  0.00  0.00    +0.000 A 
ATOM     29  C   UNL     1       1.276  10.001  18.261  0.00  0.00    +0.000 A 
ATOM     30  C   UNL     1       2.356  10.896  18.120  0.00  0.00    +0.000 A 
BRANCH  25  32
ATOM     31  C   UNL     1       3.095  14.297  19.187  0.00  0.00    +0.000 C 
ATOM     32  O   UNL     1       3.175  13.219  18.265  0.00  0.00    +0.000 OA
ENDBRANCH  25  32
BRANCH  28  33
ATOM     33  O   UNL     1      -1.092   9.696  18.536  0.00  0.00    +0.000 OA
ATOM     34  C   UNL     1      -2.112  10.070  17.611  0.00  0.00    +0.000 C 
ENDBRANCH  28  33
ENDBRANCH  21  29
ENDBRANCH  20  22
ENDBRANCH   1  20
TORSDOF 7
ENDMDL
MODEL 5
REMARK VINA RESULT:      -8.1      4.698     10.269
REMARK  Name = 
REMARK  10 active torsions:
REMARK  status: ('A' for Active; 'I' for Inactive)
REMARK    1  A    between atoms: C_1  and  O_2
REMARK    2  A    between atoms: O_2  and  C_3
REMARK    3  A    between atoms: C_6  and  O_7
REMARK    4  A    between atoms: O_7  and  C_8
REMARK    5  A    between atoms: C_9  and  N_10
REMARK    6  A    between atoms: C_11  and  C_13
REMARK    7  A    between atoms: C_13  and  N_14
REMARK    8  A    between atoms: N_14  and  C_15
REMARK    9  A    between atoms: N_14  and  S_16
REMARK   10  A    between atoms: S_16  and  C_19
REMARK                            x       y       z     vdW  Elec       q    Type
REMARK                         _______ _______ _______ _____ _____    ______ ____
ROOT
ATOM      1  N   UNL     1       0.485   9.497  19.957  0.00  0.00    +0.000 NA
ATOM      2  C   UNL     1       0.384   8.631  21.160  0.00  0.00    +0.000 C 
ENDROOT
BRANCH   1   3
ATOM      3  S   UNL     1      -0.214  11.051  20.180  0.00  0.00    +0.000 S 
ATOM      4  O   UNL     1      -0.828  11.093  21.489  0.00  0.00    +0.000 OA
ATOM      5  O   UNL     1       0.748  12.045  19.749  0.00  0.00    +0.000 OA
BRANCH   3   6
ATOM      6  C   UNL     1      -1.525  10.992  18.997  0.00  0.00    +0.000 A 
ATOM      7  C   UNL     1      -1.448  10.343  17.763  0.00  0.00    +0.000 A 
ATOM      8  C   UNL     1      -2.551  10.366  16.880  0.00  0.00    +0.000 A 
ATOM      9  C   UNL     1      -3.699  11.072  17.287  0.00  0.00    +0.000 A 
ATOM     10  N   UNL     1      -4.919  11.321  16.672  0.00  0.00    +0.000 N 
ATOM     11  C   UNL     1      -5.698  12.116  17.491  0.00  0.00    +0.000 A 
ATOM     12  C   UNL     1      -4.992  12.364  18.631  0.00  0.00    +0.000 A 
ATOM     13  C   UNL     1      -3.754  11.712  18.519  0.00  0.00    +0.000 A 
ATOM     14  C   UNL     1      -2.672  11.664  19.390  0.00  0.00    +0.000 A 
ATOM     15  C   UNL     1      -5.432  13.193  19.769  0.00  0.00    +0.000 C 
ATOM     16  C   UNL     1      -6.690  13.993  19.467  0.00  0.00    +0.000 C 
ATOM     17  C   UNL     1      -7.638  13.440  18.386  0.00  0.00    +0.000 C 
ATOM     18  C   UNL     1      -7.046  12.656  17.188  0.00  0.00    +0.000 C 
ATOM     19  H   UNL     1      -5.175  10.990  15.751  0.00  0.00    +0.000 HD
ENDBRANCH   3   6
ENDBRANCH   1   3
BRANCH   1  20
ATOM     20  C   UNL     1       1.878   9.564  19.409  0.00  0.00    +0.000 C 
BRANCH  20  22
ATOM     21  N   UNL     1       2.672   7.342  18.890  0.00  0.00    +0.000 N 
ATOM     22  C   UNL     1       2.110   8.489  18.349  0.00  0.00    +0.000 C 
ATOM     23  O   UNL     1       1.904   8.738  17.165  0.00  0.00    +0.000 OA
ATOM     24  H   UNL     1       3.064   7.471  19.819  0.00  0.00    +0.000 HD
BRANCH  21  29
ATOM     25  C   UNL     1       2.407   3.846  17.730  0.00  0.00    +0.000 A 
ATOM     26  C   UNL     1       3.583   3.675  17.007  0.00  0.00    +0.000 A 
ATOM     27  C   UNL     1       4.476   4.733  16.857  0.00  0.00    +0.000 A 
ATOM     28  C   UNL     1       4.227   5.976  17.456  0.00  0.00    +0.000 A 
ATOM     29  C   UNL     1       3.050   6.157  18.209  0.00  0.00    +0.000 A 
ATOM     30  C   UNL     1       2.138   5.087  18.310  0.00  0.00    +0.000 A 
BRANCH  25  32
ATOM     31  C   UNL     1       0.791   2.588  18.940  0.00  0.00    +0.000 C 
ATOM     32  O   UNL     1       1.621   2.730  17.796  0.00  0.00    +0.000 OA
ENDBRANCH  25  32
BRANCH  28  33
ATOM     33  O   UNL     1       5.042   7.047  17.201  0.00  0.00    +0.000 OA
ATOM     34  C   UNL     1       6.431   6.824  17.442  0.00  0.00    +0.000 C 
ENDBRANCH  28  33
ENDBRANCH  21  29
ENDBRANCH  20  22
ENDBRANCH   1  20
TORSDOF 7
ENDMDL
MODEL 6
REMARK VINA RESULT:      -8.0      2.559      4.058
REMARK  Name = 
REMARK  10 active torsions:
REMARK  status: ('A' for Active; 'I' for Inactive)
REMARK    1  A    between atoms: C_1  and  O_2
REMARK    2  A    between atoms: O_2  and  C_3
REMARK    3  A    between atoms: C_6  and  O_7
REMARK    4  A    between atoms: O_7  and  C_8
REMARK    5  A    between atoms: C_9  and  N_10
REMARK    6  A    between atoms: C_11  and  C_13
REMARK    7  A    between atoms: C_13  and  N_14
REMARK    8  A    between atoms: N_14  and  C_15
REMARK    9  A    between atoms: N_14  and  S_16
REMARK   10  A    between atoms: S_16  and  C_19
REMARK                            x       y       z     vdW  Elec       q    Type
REMARK                         _______ _______ _______ _____ _____    ______ ____
ROOT
ATOM      1  N   UNL     1       2.794   7.198  18.980  0.00  0.00    +0.000 NA
ATOM      2  C   UNL     1       1.982   7.423  20.204  0.00  0.00    +0.000 C 
ENDROOT
BRANCH   1   3
ATOM      3  S   UNL     1       3.115   5.538  18.674  0.00  0.00    +0.000 S 
ATOM      4  O   UNL     1       3.472   4.903  19.923  0.00  0.00    +0.000 OA
ATOM      5  O   UNL     1       2.061   5.024  17.824  0.00  0.00    +0.000 OA
BRANCH   3   6
ATOM      6  C   UNL     1       4.594   5.662  17.716  0.00  0.00    +0.000 A 
ATOM      7  C   UNL     1       5.722   6.392  18.095  0.00  0.00    +0.000 A 
ATOM      8  C   UNL     1       6.854   6.439  17.249  0.00  0.00    +0.000 A 
ATOM      9  C   UNL     1       6.785   5.744  16.027  0.00  0.00    +0.000 A 
ATOM     10  N   UNL     1       7.675   5.607  14.970  0.00  0.00    +0.000 N 
ATOM     11  C   UNL     1       7.097   4.843  13.973  0.00  0.00    +0.000 A 
ATOM     12  C   UNL     1       5.851   4.480  14.390  0.00  0.00    +0.000 A 
ATOM     13  C   UNL     1       5.651   5.024  15.668  0.00  0.00    +0.000 A 
ATOM     14  C   UNL     1       4.553   4.966  16.518  0.00  0.00    +0.000 A 
ATOM     15  C   UNL     1       4.872   3.682  13.629  0.00  0.00    +0.000 C 
ATOM     16  C   UNL     1       5.271   3.487  12.174  0.00  0.00    +0.000 C 
ATOM     17  C   UNL     1       6.772   3.562  11.835  0.00  0.00    +0.000 C 
ATOM     18  C   UNL     1       7.688   4.506  12.654  0.00  0.00    +0.000 C 
ATOM     19  H   UNL     1       8.593   6.030  14.934  0.00  0.00    +0.000 HD
ENDBRANCH   3   6
ENDBRANCH   1   3
BRANCH   1  20
ATOM     20  C   UNL     1       2.245   7.911  17.783  0.00  0.00    +0.000 C 
BRANCH  20  22
ATOM     21  N   UNL     1       0.280   9.151  18.445  0.00  0.00    +0.000 N 
ATOM     22  C   UNL     1       1.634   9.257  18.168  0.00  0.00    +0.000 C 
ATOM     23  O   UNL     1       2.310  10.280  18.101  0.00  0.00    +0.000 OA
ATOM     24  H   UNL     1      -0.143   8.286  18.119  0.00  0.00    +0.000 HD
BRANCH  21  29
ATOM     25  C   UNL     1      -2.587  11.453  18.096  0.00  0.00    +0.000 A 
ATOM     26  C   UNL     1      -2.497  12.228  19.246  0.00  0.00    +0.000 A 
ATOM     27  C   UNL     1      -1.500  11.979  20.187  0.00  0.00    +0.000 A 
ATOM     28  C   UNL     1      -0.551  10.968  19.978  0.00  0.00    +0.000 A 
ATOM     29  C   UNL     1      -0.616  10.189  18.806  0.00  0.00    +0.000 A 
ATOM     30  C   UNL     1      -1.661  10.427  17.890  0.00  0.00    +0.000 A 
BRANCH  25  32
ATOM     31  C   UNL     1      -4.054  10.824  16.332  0.00  0.00    +0.000 C 
ATOM     32  O   UNL     1      -3.611  11.803  17.261  0.00  0.00    +0.000 OA
ENDBRANCH  25  32
BRANCH  28  33
ATOM     33  O   UNL     1       0.347  10.644  20.960  0.00  0.00    +0.000 OA
ATOM     34  C   UNL     1      -0.185   9.879  22.041  0.00  0.00    +0.000 C 
ENDBRANCH  28  33
ENDBRANCH  21  29
ENDBRANCH  20  22
ENDBRANCH   1  20
TORSDOF 7
ENDMDL
MODEL 7
REMARK VINA RESULT:      -8.0      2.518      3.792
REMARK  Name = 
REMARK  10 active torsions:
REMARK  status: ('A' for Active; 'I' for Inactive)
REMARK    1  A    between atoms: C_1  and  O_2
REMARK    2  A    between atoms: O_2  and  C_3
REMARK    3  A    between atoms: C_6  and  O_7
REMARK    4  A    between atoms: O_7  and  C_8
REMARK    5  A    between atoms: C_9  and  N_10
REMARK    6  A    between atoms: C_11  and  C_13
REMARK    7  A    between atoms: C_13  and  N_14
REMARK    8  A    between atoms: N_14  and  C_15
REMARK    9  A    between atoms: N_14  and  S_16
REMARK   10  A    between atoms: S_16  and  C_19
REMARK                            x       y       z     vdW  Elec       q    Type
REMARK                         _______ _______ _______ _____ _____    ______ ____
ROOT
ATOM      1  N   UNL     1       2.835   7.211  18.891  0.00  0.00    +0.000 NA
ATOM      2  C   UNL     1       1.990   7.466  20.086  0.00  0.00    +0.000 C 
ENDROOT
BRANCH   1   3
ATOM      3  S   UNL     1       3.153   5.543  18.628  0.00  0.00    +0.000 S 
ATOM      4  O   UNL     1       3.515   4.941  19.893  0.00  0.00    +0.000 OA
ATOM      5  O   UNL     1       2.096   5.007  17.796  0.00  0.00    +0.000 OA
BRANCH   3   6
ATOM      6  C   UNL     1       4.629   5.640  17.662  0.00  0.00    +0.000 A 
ATOM      7  C   UNL     1       5.774   6.348  18.035  0.00  0.00    +0.000 A 
ATOM      8  C   UNL     1       6.901   6.374  17.184  0.00  0.00    +0.000 A 
ATOM      9  C   UNL     1       6.812   5.682  15.960  0.00  0.00    +0.000 A 
ATOM     10  N   UNL     1       7.693   5.529  14.898  0.00  0.00    +0.000 N 
ATOM     11  C   UNL     1       7.095   4.779  13.903  0.00  0.00    +0.000 A 
ATOM     12  C   UNL     1       5.844   4.439  14.327  0.00  0.00    +0.000 A 
ATOM     13  C   UNL     1       5.662   4.985  15.607  0.00  0.00    +0.000 A 
ATOM     14  C   UNL     1       4.568   4.947  16.463  0.00  0.00    +0.000 A 
ATOM     15  C   UNL     1       4.846   3.661  13.571  0.00  0.00    +0.000 C 
ATOM     16  C   UNL     1       5.232   3.461  12.113  0.00  0.00    +0.000 C 
ATOM     17  C   UNL     1       6.733   3.507  11.766  0.00  0.00    +0.000 C 
ATOM     18  C   UNL     1       7.671   4.433  12.581  0.00  0.00    +0.000 C 
ATOM     19  H   UNL     1       8.618   5.935  14.858  0.00  0.00    +0.000 HD
ENDBRANCH   3   6
ENDBRANCH   1   3
BRANCH   1  20
ATOM     20  C   UNL     1       2.324   7.901  17.664  0.00  0.00    +0.000 C 
BRANCH  20  22
ATOM     21  N   UNL     1       0.335   9.157  18.216  0.00  0.00    +0.000 N 
ATOM     22  C   UNL     1       1.702   9.254  18.005  0.00  0.00    +0.000 C 
ATOM     23  O   UNL     1       2.385  10.273  17.961  0.00  0.00    +0.000 OA
ATOM     24  H   UNL     1      -0.075   8.290  17.878  0.00  0.00    +0.000 HD
BRANCH  21  29
ATOM     25  C   UNL     1      -1.023  12.066  20.041  0.00  0.00    +0.000 A 
ATOM     26  C   UNL     1      -2.220  12.310  19.376  0.00  0.00    +0.000 A 
ATOM     27  C   UNL     1      -2.586  11.535  18.278  0.00  0.00    +0.000 A 
ATOM     28  C   UNL     1      -1.778  10.476  17.843  0.00  0.00    +0.000 A 
ATOM     29  C   UNL     1      -0.573  10.202  18.521  0.00  0.00    +0.000 A 
ATOM     30  C   UNL     1      -0.199  11.028  19.600  0.00  0.00    +0.000 A 
BRANCH  25  32
ATOM     31  C   UNL     1      -0.867  12.339  22.398  0.00  0.00    +0.000 C 
ATOM     32  O   UNL     1      -0.786  12.901  21.097  0.00  0.00    +0.000 OA
ENDBRANCH  25  32
BRANCH  28  33
ATOM     33  O   UNL     1      -2.077   9.800  16.691  0.00  0.00    +0.000 OA
ATOM     34  C   UNL     1      -2.663  10.590  15.657  0.00  0.00    +0.000 C 
ENDBRANCH  28  33
ENDBRANCH  21  29
ENDBRANCH  20  22
ENDBRANCH   1  20
TORSDOF 7
ENDMDL
MODEL 8
REMARK VINA RESULT:      -8.0      4.547      7.911
REMARK  Name = 
REMARK  10 active torsions:
REMARK  status: ('A' for Active; 'I' for Inactive)
REMARK    1  A    between atoms: C_1  and  O_2
REMARK    2  A    between atoms: O_2  and  C_3
REMARK    3  A    between atoms: C_6  and  O_7
REMARK    4  A    between atoms: O_7  and  C_8
REMARK    5  A    between atoms: C_9  and  N_10
REMARK    6  A    between atoms: C_11  and  C_13
REMARK    7  A    between atoms: C_13  and  N_14
REMARK    8  A    between atoms: N_14  and  C_15
REMARK    9  A    between atoms: N_14  and  S_16
REMARK   10  A    between atoms: S_16  and  C_19
REMARK                            x       y       z     vdW  Elec       q    Type
REMARK                         _______ _______ _______ _____ _____    ______ ____
ROOT
ATOM      1  N   UNL     1       0.596  11.254  20.845  0.00  0.00    +0.000 NA
ATOM      2  C   UNL     1       1.939  11.888  20.807  0.00  0.00    +0.000 C 
ENDROOT
BRANCH   1   3
ATOM      3  S   UNL     1       0.590   9.722  21.624  0.00  0.00    +0.000 S 
ATOM      4  O   UNL     1       1.542   9.759  22.712  0.00  0.00    +0.000 OA
ATOM      5  O   UNL     1      -0.787   9.321  21.820  0.00  0.00    +0.000 OA
BRANCH   3   6
ATOM      6  C   UNL     1       1.293   8.709  20.358  0.00  0.00    +0.000 A 
ATOM      7  C   UNL     1       1.506   9.123  19.042  0.00  0.00    +0.000 A 
ATOM      8  C   UNL     1       2.063   8.230  18.099  0.00  0.00    +0.000 A 
ATOM      9  C   UNL     1       2.371   6.927  18.536  0.00  0.00    +0.000 A 
ATOM     10  N   UNL     1       2.885   5.812  17.887  0.00  0.00    +0.000 N 
ATOM     11  C   UNL     1       2.955   4.752  18.770  0.00  0.00    +0.000 A 
ATOM     12  C   UNL     1       2.504   5.183  19.982  0.00  0.00    +0.000 A 
ATOM     13  C   UNL     1       2.149   6.535  19.851  0.00  0.00    +0.000 A 
ATOM     14  C   UNL     1       1.622   7.429  20.775  0.00  0.00    +0.000 A 
ATOM     15  C   UNL     1       2.380   4.374  21.209  0.00  0.00    +0.000 C 
ATOM     16  C   UNL     1       2.569   2.885  20.957  0.00  0.00    +0.000 C 
ATOM     17  C   UNL     1       3.413   2.476  19.734  0.00  0.00    +0.000 C 
ATOM     18  C   UNL     1       3.393   3.367  18.466  0.00  0.00    +0.000 C 
ATOM     19  H   UNL     1       3.138   5.785  16.908  0.00  0.00    +0.000 HD
ENDBRANCH   3   6
ENDBRANCH   1   3
BRANCH   1  20
ATOM     20  C   UNL     1      -0.462  12.174  21.372  0.00  0.00    +0.000 C 
BRANCH  20  22
ATOM     21  N   UNL     1      -2.030  11.526  19.651  0.00  0.00    +0.000 N 
ATOM     22  C   UNL     1      -1.421  12.610  20.266  0.00  0.00    +0.000 C 
ATOM     23  O   UNL     1      -1.494  13.793  19.947  0.00  0.00    +0.000 OA
ATOM     24  H   UNL     1      -1.580  10.635  19.843  0.00  0.00    +0.000 HD
BRANCH  21  29
ATOM     25  C   UNL     1      -3.193  11.229  16.159  0.00  0.00    +0.000 A 
ATOM     26  C   UNL     1      -4.540  11.559  16.258  0.00  0.00    +0.000 A 
ATOM     27  C   UNL     1      -5.104  11.853  17.497  0.00  0.00    +0.000 A 
ATOM     28  C   UNL     1      -4.322  11.855  18.661  0.00  0.00    +0.000 A 
ATOM     29  C   UNL     1      -2.950  11.544  18.573  0.00  0.00    +0.000 A 
ATOM     30  C   UNL     1      -2.411  11.204  17.316  0.00  0.00    +0.000 A 
BRANCH  25  32
ATOM     31  C   UNL     1      -3.409   9.891  14.205  0.00  0.00    +0.000 C 
ATOM     32  O   UNL     1      -2.772  10.961  14.887  0.00  0.00    +0.000 OA
ENDBRANCH  25  32
BRANCH  28  33
ATOM     33  O   UNL     1      -4.904  12.019  19.889  0.00  0.00    +0.000 OA
ATOM     34  C   UNL     1      -5.138  13.373  20.275  0.00  0.00    +0.000 C 
ENDBRANCH  28  33
ENDBRANCH  21  29
ENDBRANCH  20  22
ENDBRANCH   1  20
TORSDOF 7
ENDMDL
MODEL 9
REMARK VINA RESULT:      -7.9      4.525      8.237
REMARK  Name = 
REMARK  10 active torsions:
REMARK  status: ('A' for Active; 'I' for Inactive)
REMARK    1  A    between atoms: C_1  and  O_2
REMARK    2  A    between atoms: O_2  and  C_3
REMARK    3  A    between atoms: C_6  and  O_7
REMARK    4  A    between atoms: O_7  and  C_8
REMARK    5  A    between atoms: C_9  and  N_10
REMARK    6  A    between atoms: C_11  and  C_13
REMARK    7  A    between atoms: C_13  and  N_14
REMARK    8  A    between atoms: N_14  and  C_15
REMARK    9  A    between atoms: N_14  and  S_16
REMARK   10  A    between atoms: S_16  and  C_19
REMARK                            x       y       z     vdW  Elec       q    Type
REMARK                         _______ _______ _______ _____ _____    ______ ____
ROOT
ATOM      1  N   UNL     1       0.291  10.981  20.129  0.00  0.00    +0.000 NA
ATOM      2  C   UNL     1       1.054  12.206  20.481  0.00  0.00    +0.000 C 
ENDROOT
BRANCH   1   3
ATOM      3  S   UNL     1       0.610   9.659  21.178  0.00  0.00    +0.000 S 
ATOM      4  O   UNL     1       1.592  10.075  22.155  0.00  0.00    +0.000 OA
ATOM      5  O   UNL     1      -0.657   9.072  21.564  0.00  0.00    +0.000 OA
BRANCH   3   6
ATOM      6  C   UNL     1       1.423   8.550  20.069  0.00  0.00    +0.000 A 
ATOM      7  C   UNL     1       1.785   8.867  18.758  0.00  0.00    +0.000 A 
ATOM      8  C   UNL     1       2.422   7.903  17.944  0.00  0.00    +0.000 A 
ATOM      9  C   UNL     1       2.655   6.630  18.501  0.00  0.00    +0.000 A 
ATOM     10  N   UNL     1       3.213   5.466  17.989  0.00  0.00    +0.000 N 
ATOM     11  C   UNL     1       3.168   4.470  18.946  0.00  0.00    +0.000 A 
ATOM     12  C   UNL     1       2.598   4.992  20.070  0.00  0.00    +0.000 A 
ATOM     13  C   UNL     1       2.286   6.335  19.808  0.00  0.00    +0.000 A 
ATOM     14  C   UNL     1       1.681   7.298  20.607  0.00  0.00    +0.000 A 
ATOM     15  C   UNL     1       2.329   4.273  21.329  0.00  0.00    +0.000 C 
ATOM     16  C   UNL     1       2.514   2.768  21.202  0.00  0.00    +0.000 C 
ATOM     17  C   UNL     1       3.476   2.263  20.109  0.00  0.00    +0.000 C 
ATOM     18  C   UNL     1       3.608   3.063  18.788  0.00  0.00    +0.000 C 
ATOM     19  H   UNL     1       3.570   5.367  17.048  0.00  0.00    +0.000 HD
ENDBRANCH   3   6
ENDBRANCH   1   3
BRANCH   1  20
ATOM     20  C   UNL     1      -1.174  11.243  19.958  0.00  0.00    +0.000 C 
BRANCH  20  22
ATOM     21  N   UNL     1      -1.768  12.227  22.083  0.00  0.00    +0.000 N 
ATOM     22  C   UNL     1      -1.611  12.486  20.730  0.00  0.00    +0.000 C 
ATOM     23  O   UNL     1      -1.882  13.520  20.127  0.00  0.00    +0.000 OA
ATOM     24  H   UNL     1      -1.815  11.238  22.312  0.00  0.00    +0.000 HD
BRANCH  21  29
ATOM     25  C   UNL     1      -1.460  14.920  24.591  0.00  0.00    +0.000 A 
ATOM     26  C   UNL     1      -2.735  14.970  25.143  0.00  0.00    +0.000 A 
ATOM     27  C   UNL     1      -3.741  14.132  24.667  0.00  0.00    +0.000 A 
ATOM     28  C   UNL     1      -3.481  13.202  23.650  0.00  0.00    +0.000 A 
ATOM     29  C   UNL     1      -2.188  13.125  23.096  0.00  0.00    +0.000 A 
ATOM     30  C   UNL     1      -1.197  14.015  23.561  0.00  0.00    +0.000 A 
BRANCH  25  32
ATOM     31  C   UNL     1      -0.704  16.057  26.539  0.00  0.00    +0.000 C 
ATOM     32  O   UNL     1      -0.572  15.797  25.149  0.00  0.00    +0.000 OA
ENDBRANCH  25  32
BRANCH  28  33
ATOM     33  O   UNL     1      -4.500  12.471  23.099  0.00  0.00    +0.000 OA
ATOM     34  C   UNL     1      -5.805  12.790  23.580  0.00  0.00    +0.000 C 
ENDBRANCH  28  33
ENDBRANCH  21  29
ENDBRANCH  20  22
ENDBRANCH   1  20
TORSDOF 7
ENDMDL
