MODEL 1
REMARK VINA RESULT:      -7.6      0.000      0.000
REMARK  Name = 
REMARK  8 active torsions:
REMARK  status: ('A' for Active; 'I' for Inactive)
REMARK    1  A    between atoms: C_1  and  C_2
REMARK    2  A    between atoms: C_2  and  N_3
REMARK    3  A    between atoms: N_3  and  C_4
REMARK    4  A    between atoms: N_3  and  S_6
REMARK    5  A    between atoms: C_4  and  C_5
REMARK    6  A    between atoms: S_6  and  C_9
REMARK    7  A    between atoms: N_16  and  S_17
REMARK    8  A    between atoms: S_17  and  C_20
REMARK                            x       y       z     vdW  Elec       q    Type
REMARK                         _______ _______ _______ _____ _____    ______ ____
ROOT
ATOM      1  C   UNL     1       3.805   5.385  18.650  0.00  0.00    +0.000 A 
ATOM      2  C   UNL     1       2.895   5.308  19.694  0.00  0.00    +0.000 A 
ATOM      3  C   UNL     1       2.114   6.425  19.969  0.00  0.00    +0.000 A 
ATOM      4  C   UNL     1       2.237   7.587  19.205  0.00  0.00    +0.000 A 
ATOM      5  N   UNL     1       1.391   8.645  19.466  0.00  0.00    +0.000 N 
ATOM      6  C   UNL     1       1.118   9.630  18.415  0.00  0.00    +0.000 C 
ATOM      7  C   UNL     1      -0.315  10.178  18.636  0.00  0.00    +0.000 C 
ATOM      8  N   UNL     1      -0.540  10.700  20.035  0.00  0.00    +0.000 NA
ATOM      9  C   UNL     1      -0.149   9.663  21.050  0.00  0.00    +0.000 C 
ATOM     10  C   UNL     1       1.293   9.174  20.834  0.00  0.00    +0.000 C 
ATOM     11  N   UNL     1       3.098   7.639  18.162  0.00  0.00    +0.000 NA
ATOM     12  C   UNL     1       3.866   6.544  17.905  0.00  0.00    +0.000 A 
ENDROOT
BRANCH   1  13
ATOM     13  S   UNL     1       4.790   3.998  18.209  0.00  0.00    +0.000 S 
ATOM     14  O   UNL     1       3.946   3.104  17.444  0.00  0.00    +0.000 OA
ATOM     15  O   UNL     1       5.473   3.542  19.397  0.00  0.00    +0.000 OA
BRANCH  13  16
ATOM     16  N   UNL     1       5.981   4.652  17.153  0.00  0.00    +0.000 NA
BRANCH  16  18
ATOM     17  C   UNL     1       7.641   6.113  18.359  0.00  0.00    +0.000 C 
ATOM     18  C   UNL     1       7.350   4.753  17.746  0.00  0.00    +0.000 C 
ENDBRANCH  16  18
BRANCH  16  19
ATOM     19  C   UNL     1       5.925   4.079  15.771  0.00  0.00    +0.000 C 
ATOM     20  C   UNL     1       6.934   4.696  14.815  0.00  0.00    +0.000 C 
ENDBRANCH  16  19
ENDBRANCH  13  16
ENDBRANCH   1  13
BRANCH   8  21
ATOM     21  S   UNL     1       0.045  12.264  20.365  0.00  0.00    +0.000 S 
ATOM     22  O   UNL     1       1.214  12.137  21.209  0.00  0.00    +0.000 OA
ATOM     23  O   UNL     1       0.105  13.001  19.122  0.00  0.00    +0.000 OA
BRANCH  21  24
ATOM     24  C   UNL     1      -1.255  12.945  21.359  0.00  0.00    +0.000 A 
ATOM     25  C   UNL     1      -2.405  13.425  20.724  0.00  0.00    +0.000 A 
ATOM     26  C   UNL     1      -3.430  13.976  21.492  0.00  0.00    +0.000 A 
ATOM     27  C   UNL     1      -3.306  14.037  22.881  0.00  0.00    +0.000 A 
ATOM     28  C   UNL     1      -2.161  13.544  23.510  0.00  0.00    +0.000 A 
ATOM     29  C   UNL     1      -1.129  12.992  22.750  0.00  0.00    +0.000 A 
ENDBRANCH  21  24
ENDBRANCH   8  21
TORSDOF 6
ENDMDL
MODEL 2
REMARK VINA RESULT:      -7.2      1.237      1.901
REMARK  Name = 
REMARK  8 active torsions:
REMARK  status: ('A' for Active; 'I' for Inactive)
REMARK    1  A    between atoms: C_1  and  C_2
REMARK    2  A    between atoms: C_2  and  N_3
REMARK    3  A    between atoms: N_3  and  C_4
REMARK    4  A    between atoms: N_3  and  S_6
REMARK    5  A    between atoms: C_4  and  C_5
REMARK    6  A    between atoms: S_6  and  C_9
REMARK    7  A    between atoms: N_16  and  S_17
REMARK    8  A    between atoms: S_17  and  C_20
REMARK                            x       y       z     vdW  Elec       q    Type
REMARK                         _______ _______ _______ _____ _____    ______ ____
ROOT
ATOM      1  C   UNL     1       3.752   5.490  18.331  0.00  0.00    +0.000 A 
ATOM      2  C   UNL     1       4.021   6.637  17.599  0.00  0.00    +0.000 A 
ATOM      3  C   UNL     1       3.300   7.789  17.893  0.00  0.00    +0.000 A 
ATOM      4  C   UNL     1       2.341   7.791  18.908  0.00  0.00    +0.000 A 
ATOM      5  N   UNL     1       1.703   8.975  19.215  0.00  0.00    +0.000 N 
ATOM      6  C   UNL     1       1.115   9.157  20.546  0.00  0.00    +0.000 C 
ATOM      7  C   UNL     1       1.183  10.665  20.895  0.00  0.00    +0.000 C 
ATOM      8  N   UNL     1       0.572  11.547  19.833  0.00  0.00    +0.000 NA
ATOM      9  C   UNL     1       1.163  11.232  18.487  0.00  0.00    +0.000 C 
ATOM     10  C   UNL     1       1.038   9.737  18.149  0.00  0.00    +0.000 C 
ATOM     11  N   UNL     1       2.115   6.679  19.645  0.00  0.00    +0.000 NA
ATOM     12  C   UNL     1       2.818   5.552  19.344  0.00  0.00    +0.000 A 
ENDROOT
BRANCH   1  13
ATOM     13  S   UNL     1       4.657   4.010  18.053  0.00  0.00    +0.000 S 
ATOM     14  O   UNL     1       3.807   3.132  17.277  0.00  0.00    +0.000 OA
ATOM     15  O   UNL     1       5.211   3.583  19.318  0.00  0.00    +0.000 OA
BRANCH  13  16
ATOM     16  N   UNL     1       5.972   4.506  17.060  0.00  0.00    +0.000 NA
BRANCH  16  18
ATOM     17  C   UNL     1       7.589   6.034  18.241  0.00  0.00    +0.000 C 
ATOM     18  C   UNL     1       7.281   4.621  17.773  0.00  0.00    +0.000 C 
ENDBRANCH  16  18
BRANCH  16  19
ATOM     19  C   UNL     1       6.022   3.792  15.745  0.00  0.00    +0.000 C 
ATOM     20  C   UNL     1       5.622   4.662  14.564  0.00  0.00    +0.000 C 
ENDBRANCH  16  19
ENDBRANCH  13  16
ENDBRANCH   1  13
BRANCH   8  21
ATOM     21  S   UNL     1      -1.125  11.682  19.842  0.00  0.00    +0.000 S 
ATOM     22  O   UNL     1      -1.511  12.552  18.751  0.00  0.00    +0.000 OA
ATOM     23  O   UNL     1      -1.689  10.357  19.968  0.00  0.00    +0.000 OA
BRANCH  21  24
ATOM     24  C   UNL     1      -1.419  12.563  21.352  0.00  0.00    +0.000 A 
ATOM     25  C   UNL     1      -0.585  13.638  21.676  0.00  0.00    +0.000 A 
ATOM     26  C   UNL     1      -0.795  14.332  22.867  0.00  0.00    +0.000 A 
ATOM     27  C   UNL     1      -1.836  13.957  23.718  0.00  0.00    +0.000 A 
ATOM     28  C   UNL     1      -2.674  12.891  23.383  0.00  0.00    +0.000 A 
ATOM     29  C   UNL     1      -2.470  12.190  22.194  0.00  0.00    +0.000 A 
ENDBRANCH  21  24
ENDBRANCH   8  21
TORSDOF 6
ENDMDL
MODEL 3
REMARK VINA RESULT:      -7.2      0.973      1.582
REMARK  Name = 
REMARK  8 active torsions:
REMARK  status: ('A' for Active; 'I' for Inactive)
REMARK    1  A    between atoms: C_1  and  C_2
REMARK    2  A    between atoms: C_2  and  N_3
REMARK    3  A    between atoms: N_3  and  C_4
REMARK    4  A    between atoms: N_3  and  S_6
REMARK    5  A    between atoms: C_4  and  C_5
REMARK    6  A    between atoms: S_6  and  C_9
REMARK    7  A    between atoms: N_16  and  S_17
REMARK    8  A    between atoms: S_17  and  C_20
REMARK                            x       y       z     vdW  Elec       q    Type
REMARK                         _______ _______ _______ _____ _____    ______ ____
ROOT
ATOM      1  C   UNL     1       3.409   5.528  18.787  0.00  0.00    +0.000 A 
ATOM      2  C   UNL     1       2.714   5.463  19.985  0.00  0.00    +0.000 A 
ATOM      3  C   UNL     1       1.975   6.573  20.378  0.00  0.00    +0.000 A 
ATOM      4  C   UNL     1       1.925   7.717  19.577  0.00  0.00    +0.000 A 
ATOM      5  N   UNL     1       1.119   8.766  19.969  0.00  0.00    +0.000 N 
ATOM      6  C   UNL     1       0.632   9.718  18.966  0.00  0.00    +0.000 C 
ATOM      7  C   UNL     1      -0.746  10.246  19.441  0.00  0.00    +0.000 C 
ATOM      8  N   UNL     1      -0.714  10.802  20.844  0.00  0.00    +0.000 NA
ATOM      9  C   UNL     1      -0.116   9.800  21.791  0.00  0.00    +0.000 C 
ATOM     10  C   UNL     1       1.270   9.330  21.318  0.00  0.00    +0.000 C 
ATOM     11  N   UNL     1       2.572   7.755  18.389  0.00  0.00    +0.000 NA
ATOM     12  C   UNL     1       3.302   6.667  18.017  0.00  0.00    +0.000 A 
ENDROOT
BRANCH   1  13
ATOM     13  S   UNL     1       4.323   4.147  18.199  0.00  0.00    +0.000 S 
ATOM     14  O   UNL     1       3.817   3.832  16.880  0.00  0.00    +0.000 OA
ATOM     15  O   UNL     1       4.345   3.151  19.246  0.00  0.00    +0.000 OA
BRANCH  13  16
ATOM     16  N   UNL     1       5.926   4.750  18.033  0.00  0.00    +0.000 NA
BRANCH  16  18
ATOM     17  C   UNL     1       6.989   4.605  15.754  0.00  0.00    +0.000 C 
ATOM     18  C   UNL     1       6.197   5.449  16.740  0.00  0.00    +0.000 C 
ENDBRANCH  16  18
BRANCH  16  19
ATOM     19  C   UNL     1       6.422   5.457  19.256  0.00  0.00    +0.000 C 
ATOM     20  C   UNL     1       7.891   5.842  19.184  0.00  0.00    +0.000 C 
ENDBRANCH  16  19
ENDBRANCH  13  16
ENDBRANCH   1  13
BRANCH   8  21
ATOM     21  S   UNL     1      -0.113  12.384  21.021  0.00  0.00    +0.000 S 
ATOM     22  O   UNL     1       1.226  12.297  21.565  0.00  0.00    +0.000 OA
ATOM     23  O   UNL     1      -0.369  13.110  19.797  0.00  0.00    +0.000 OA
BRANCH  21  24
ATOM     24  C   UNL     1      -1.160  13.040  22.293  0.00  0.00    +0.000 A 
ATOM     25  C   UNL     1      -2.423  12.471  22.483  0.00  0.00    +0.000 A 
ATOM     26  C   UNL     1      -3.263  12.985  23.470  0.00  0.00    +0.000 A 
ATOM     27  C   UNL     1      -2.837  14.053  24.262  0.00  0.00    +0.000 A 
ATOM     28  C   UNL     1      -1.569  14.608  24.076  0.00  0.00    +0.000 A 
ATOM     29  C   UNL     1      -0.722  14.101  23.090  0.00  0.00    +0.000 A 
ENDBRANCH  21  24
ENDBRANCH   8  21
TORSDOF 6
ENDMDL
MODEL 4
REMARK VINA RESULT:      -7.1      1.228      1.984
REMARK  Name = 
REMARK  8 active torsions:
REMARK  status: ('A' for Active; 'I' for Inactive)
REMARK    1  A    between atoms: C_1  and  C_2
REMARK    2  A    between atoms: C_2  and  N_3
REMARK    3  A    between atoms: N_3  and  C_4
REMARK    4  A    between atoms: N_3  and  S_6
REMARK    5  A    between atoms: C_4  and  C_5
REMARK    6  A    between atoms: S_6  and  C_9
REMARK    7  A    between atoms: N_16  and  S_17
REMARK    8  A    between atoms: S_17  and  C_20
REMARK                            x       y       z     vdW  Elec       q    Type
REMARK                         _______ _______ _______ _____ _____    ______ ____
ROOT
ATOM      1  C   UNL     1       4.169   5.782  18.656  0.00  0.00    +0.000 A 
ATOM      2  C   UNL     1       3.241   5.690  19.683  0.00  0.00    +0.000 A 
ATOM      3  C   UNL     1       2.326   6.724  19.838  0.00  0.00    +0.000 A 
ATOM      4  C   UNL     1       2.335   7.820  18.971  0.00  0.00    +0.000 A 
ATOM      5  N   UNL     1       1.361   8.788  19.116  0.00  0.00    +0.000 N 
ATOM      6  C   UNL     1       1.008   9.635  17.973  0.00  0.00    +0.000 C 
ATOM      7  C   UNL     1      -0.486  10.023  18.112  0.00  0.00    +0.000 C 
ATOM      8  N   UNL     1      -0.815  10.637  19.451  0.00  0.00    +0.000 NA
ATOM      9  C   UNL     1      -0.337   9.750  20.566  0.00  0.00    +0.000 C 
ATOM     10  C   UNL     1       1.159   9.421  20.427  0.00  0.00    +0.000 C 
ATOM     11  N   UNL     1       3.216   7.882  17.947  0.00  0.00    +0.000 NA
ATOM     12  C   UNL     1       4.116   6.869  17.809  0.00  0.00    +0.000 A 
ENDROOT
BRANCH   1  13
ATOM     13  S   UNL     1       5.324   4.490  18.366  0.00  0.00    +0.000 S 
ATOM     14  O   UNL     1       5.244   3.587  19.495  0.00  0.00    +0.000 OA
ATOM     15  O   UNL     1       6.580   5.094  17.984  0.00  0.00    +0.000 OA
BRANCH  13  16
ATOM     16  N   UNL     1       4.704   3.681  16.980  0.00  0.00    +0.000 NA
BRANCH  16  18
ATOM     17  C   UNL     1       5.454   4.537  14.733  0.00  0.00    +0.000 C 
ATOM     18  C   UNL     1       5.678   3.536  15.856  0.00  0.00    +0.000 C 
ENDBRANCH  16  18
BRANCH  16  19
ATOM     19  C   UNL     1       3.929   2.444  17.315  0.00  0.00    +0.000 C 
ATOM     20  C   UNL     1       2.447   2.696  17.542  0.00  0.00    +0.000 C 
ENDBRANCH  16  19
ENDBRANCH  13  16
ENDBRANCH   1  13
BRANCH   8  21
ATOM     21  S   UNL     1      -0.430  12.284  19.647  0.00  0.00    +0.000 S 
ATOM     22  O   UNL     1       0.979  12.380  19.965  0.00  0.00    +0.000 OA
ATOM     23  O   UNL     1      -0.991  13.020  18.535  0.00  0.00    +0.000 OA
BRANCH  21  24
ATOM     24  C   UNL     1      -1.334  12.705  21.113  0.00  0.00    +0.000 A 
ATOM     25  C   UNL     1      -0.630  13.185  22.221  0.00  0.00    +0.000 A 
ATOM     26  C   UNL     1      -1.325  13.507  23.386  0.00  0.00    +0.000 A 
ATOM     27  C   UNL     1      -2.712  13.359  23.434  0.00  0.00    +0.000 A 
ATOM     28  C   UNL     1      -3.411  12.892  22.319  0.00  0.00    +0.000 A 
ATOM     29  C   UNL     1      -2.724  12.565  21.150  0.00  0.00    +0.000 A 
ENDBRANCH  21  24
ENDBRANCH   8  21
TORSDOF 6
ENDMDL
MODEL 5
REMARK VINA RESULT:      -7.1      1.847      9.891
REMARK  Name = 
REMARK  8 active torsions:
REMARK  status: ('A' for Active; 'I' for Inactive)
REMARK    1  A    between atoms: C_1  and  C_2
REMARK    2  A    between atoms: C_2  and  N_3
REMARK    3  A    between atoms: N_3  and  C_4
REMARK    4  A    between atoms: N_3  and  S_6
REMARK    5  A    between atoms: C_4  and  C_5
REMARK    6  A    between atoms: S_6  and  C_9
REMARK    7  A    between atoms: N_16  and  S_17
REMARK    8  A    between atoms: S_17  and  C_20
REMARK                            x       y       z     vdW  Elec       q    Type
REMARK                         _______ _______ _______ _____ _____    ______ ____
ROOT
ATOM      1  C   UNL     1       0.463  10.796  20.945  0.00  0.00    +0.000 A 
ATOM      2  C   UNL     1       0.595  10.585  19.581  0.00  0.00    +0.000 A 
ATOM      3  C   UNL     1       1.163   9.391  19.152  0.00  0.00    +0.000 A 
ATOM      4  C   UNL     1       1.575   8.426  20.074  0.00  0.00    +0.000 A 
ATOM      5  N   UNL     1       2.064   7.225  19.602  0.00  0.00    +0.000 N 
ATOM      6  C   UNL     1       2.013   6.036  20.458  0.00  0.00    +0.000 C 
ATOM      7  C   UNL     1       1.865   4.795  19.541  0.00  0.00    +0.000 C 
ATOM      8  N   UNL     1       2.919   4.726  18.463  0.00  0.00    +0.000 NA
ATOM      9  C   UNL     1       2.969   6.016  17.695  0.00  0.00    +0.000 C 
ATOM     10  C   UNL     1       3.164   7.224  18.627  0.00  0.00    +0.000 C 
ATOM     11  N   UNL     1       1.404   8.622  21.401  0.00  0.00    +0.000 NA
ATOM     12  C   UNL     1       0.856   9.799  21.813  0.00  0.00    +0.000 A 
ENDROOT
BRANCH   1  13
ATOM     13  S   UNL     1      -0.292  12.258  21.563  0.00  0.00    +0.000 S 
ATOM     14  O   UNL     1       0.773  13.196  21.853  0.00  0.00    +0.000 OA
ATOM     15  O   UNL     1      -1.241  11.872  22.582  0.00  0.00    +0.000 OA
BRANCH  13  16
ATOM     16  N   UNL     1      -1.192  12.859  20.226  0.00  0.00    +0.000 NA
BRANCH  16  18
ATOM     17  C   UNL     1      -2.917  11.764  18.753  0.00  0.00    +0.000 C 
ATOM     18  C   UNL     1      -2.586  12.329  20.125  0.00  0.00    +0.000 C 
ENDBRANCH  16  18
BRANCH  16  19
ATOM     19  C   UNL     1      -1.058  14.339  20.039  0.00  0.00    +0.000 C 
ATOM     20  C   UNL     1      -0.246  14.727  18.813  0.00  0.00    +0.000 C 
ENDBRANCH  16  19
ENDBRANCH  13  16
ENDBRANCH   1  13
BRANCH   8  21
ATOM     21  S   UNL     1       4.442   4.125  18.929  0.00  0.00    +0.000 S 
ATOM     22  O   UNL     1       4.972   4.995  19.958  0.00  0.00    +0.000 OA
ATOM     23  O   UNL     1       4.324   2.701  19.154  0.00  0.00    +0.000 OA
BRANCH  21  24
ATOM     24  C   UNL     1       5.409   4.384  17.466  0.00  0.00    +0.000 A 
ATOM     25  C   UNL     1       5.021   3.748  16.283  0.00  0.00    +0.000 A 
ATOM     26  C   UNL     1       5.778   3.931  15.128  0.00  0.00    +0.000 A 
ATOM     27  C   UNL     1       6.908   4.751  15.157  0.00  0.00    +0.000 A 
ATOM     28  C   UNL     1       7.283   5.394  16.338  0.00  0.00    +0.000 A 
ATOM     29  C   UNL     1       6.531   5.216  17.500  0.00  0.00    +0.000 A 
ENDBRANCH  21  24
ENDBRANCH   8  21
TORSDOF 6
ENDMDL
MODEL 6
REMARK VINA RESULT:      -7.1      1.195      1.700
REMARK  Name = 
REMARK  8 active torsions:
REMARK  status: ('A' for Active; 'I' for Inactive)
REMARK    1  A    between atoms: C_1  and  C_2
REMARK    2  A    between atoms: C_2  and  N_3
REMARK    3  A    between atoms: N_3  and  C_4
REMARK    4  A    between atoms: N_3  and  S_6
REMARK    5  A    between atoms: C_4  and  C_5
REMARK    6  A    between atoms: S_6  and  C_9
REMARK    7  A    between atoms: N_16  and  S_17
REMARK    8  A    between atoms: S_17  and  C_20
REMARK                            x       y       z     vdW  Elec       q    Type
REMARK                         _______ _______ _______ _____ _____    ______ ____
ROOT
ATOM      1  C   UNL     1       4.155   5.517  18.896  0.00  0.00    +0.000 A 
ATOM      2  C   UNL     1       3.163   5.469  19.864  0.00  0.00    +0.000 A 
ATOM      3  C   UNL     1       2.273   6.534  19.947  0.00  0.00    +0.000 A 
ATOM      4  C   UNL     1       2.373   7.616  19.070  0.00  0.00    +0.000 A 
ATOM      5  N   UNL     1       1.424   8.616  19.140  0.00  0.00    +0.000 N 
ATOM      6  C   UNL     1       1.170   9.457  17.966  0.00  0.00    +0.000 C 
ATOM      7  C   UNL     1      -0.316   9.895  18.006  0.00  0.00    +0.000 C 
ATOM      8  N   UNL     1      -0.709  10.538  19.314  0.00  0.00    +0.000 NA
ATOM      9  C   UNL     1      -0.331   9.653  20.468  0.00  0.00    +0.000 C 
ATOM     10  C   UNL     1       1.160   9.274  20.427  0.00  0.00    +0.000 C 
ATOM     11  N   UNL     1       3.318   7.635  18.102  0.00  0.00    +0.000 NA
ATOM     12  C   UNL     1       4.191   6.592  18.034  0.00  0.00    +0.000 A 
ENDROOT
BRANCH   1  13
ATOM     13  S   UNL     1       5.284   4.185  18.696  0.00  0.00    +0.000 S 
ATOM     14  O   UNL     1       4.980   3.212  19.724  0.00  0.00    +0.000 OA
ATOM     15  O   UNL     1       6.611   4.743  18.568  0.00  0.00    +0.000 OA
BRANCH  13  16
ATOM     16  N   UNL     1       4.864   3.510  17.170  0.00  0.00    +0.000 NA
BRANCH  16  18
ATOM     17  C   UNL     1       2.533   2.589  17.415  0.00  0.00    +0.000 C 
ATOM     18  C   UNL     1       3.423   3.657  16.800  0.00  0.00    +0.000 C 
ENDBRANCH  16  18
BRANCH  16  19
ATOM     19  C   UNL     1       5.839   3.849  16.085  0.00  0.00    +0.000 C 
ATOM     20  C   UNL     1       5.247   4.714  14.984  0.00  0.00    +0.000 C 
ENDBRANCH  16  19
ENDBRANCH  13  16
ENDBRANCH   1  13
BRANCH   8  21
ATOM     21  S   UNL     1      -0.284  12.174  19.513  0.00  0.00    +0.000 S 
ATOM     22  O   UNL     1       1.117  12.233  19.875  0.00  0.00    +0.000 OA
ATOM     23  O   UNL     1      -0.788  12.919  18.381  0.00  0.00    +0.000 OA
BRANCH  21  24
ATOM     24  C   UNL     1      -1.221  12.630  20.947  0.00  0.00    +0.000 A 
ATOM     25  C   UNL     1      -2.616  12.624  20.867  0.00  0.00    +0.000 A 
ATOM     26  C   UNL     1      -3.367  12.994  21.983  0.00  0.00    +0.000 A 
ATOM     27  C   UNL     1      -2.724  13.357  23.167  0.00  0.00    +0.000 A 
ATOM     28  C   UNL     1      -1.329  13.349  23.244  0.00  0.00    +0.000 A 
ATOM     29  C   UNL     1      -0.570  12.982  22.133  0.00  0.00    +0.000 A 
ENDBRANCH  21  24
ENDBRANCH   8  21
TORSDOF 6
ENDMDL
MODEL 7
REMARK VINA RESULT:      -7.1      1.431      2.149
REMARK  Name = 
REMARK  8 active torsions:
REMARK  status: ('A' for Active; 'I' for Inactive)
REMARK    1  A    between atoms: C_1  and  C_2
REMARK    2  A    between atoms: C_2  and  N_3
REMARK    3  A    between atoms: N_3  and  C_4
REMARK    4  A    between atoms: N_3  and  S_6
REMARK    5  A    between atoms: C_4  and  C_5
REMARK    6  A    between atoms: S_6  and  C_9
REMARK    7  A    between atoms: N_16  and  S_17
REMARK    8  A    between atoms: S_17  and  C_20
REMARK                            x       y       z     vdW  Elec       q    Type
REMARK                         _______ _______ _______ _____ _____    ______ ____
ROOT
ATOM      1  C   UNL     1       3.650   5.529  18.405  0.00  0.00    +0.000 A 
ATOM      2  C   UNL     1       3.850   6.663  17.633  0.00  0.00    +0.000 A 
ATOM      3  C   UNL     1       3.137   7.813  17.955  0.00  0.00    +0.000 A 
ATOM      4  C   UNL     1       2.253   7.824  19.037  0.00  0.00    +0.000 A 
ATOM      5  N   UNL     1       1.623   9.007  19.366  0.00  0.00    +0.000 N 
ATOM      6  C   UNL     1       1.130   9.208  20.732  0.00  0.00    +0.000 C 
ATOM      7  C   UNL     1       1.203  10.725  21.045  0.00  0.00    +0.000 C 
ATOM      8  N   UNL     1       0.505  11.577  20.013  0.00  0.00    +0.000 NA
ATOM      9  C   UNL     1       1.002  11.242  18.635  0.00  0.00    +0.000 C 
ATOM     10  C   UNL     1       0.873   9.738  18.335  0.00  0.00    +0.000 C 
ATOM     11  N   UNL     1       2.096   6.725  19.810  0.00  0.00    +0.000 NA
ATOM     12  C   UNL     1       2.790   5.600  19.481  0.00  0.00    +0.000 A 
ENDROOT
BRANCH   1  13
ATOM     13  S   UNL     1       4.553   4.054  18.091  0.00  0.00    +0.000 S 
ATOM     14  O   UNL     1       3.694   3.189  17.309  0.00  0.00    +0.000 OA
ATOM     15  O   UNL     1       5.120   3.606  19.342  0.00  0.00    +0.000 OA
BRANCH  13  16
ATOM     16  N   UNL     1       5.856   4.568  17.093  0.00  0.00    +0.000 NA
BRANCH  16  18
ATOM     17  C   UNL     1       7.544   6.161  18.071  0.00  0.00    +0.000 C 
ATOM     18  C   UNL     1       7.164   4.714  17.803  0.00  0.00    +0.000 C 
ENDBRANCH  16  18
BRANCH  16  19
ATOM     19  C   UNL     1       5.919   3.845  15.783  0.00  0.00    +0.000 C 
ATOM     20  C   UNL     1       6.628   4.627  14.689  0.00  0.00    +0.000 C 
ENDBRANCH  16  19
ENDBRANCH  13  16
ENDBRANCH   1  13
BRANCH   8  21
ATOM     21  S   UNL     1      -1.188  11.692  20.142  0.00  0.00    +0.000 S 
ATOM     22  O   UNL     1      -1.765  11.238  18.894  0.00  0.00    +0.000 OA
ATOM     23  O   UNL     1      -1.592  11.106  21.401  0.00  0.00    +0.000 OA
BRANCH  21  24
ATOM     24  C   UNL     1      -1.436  13.445  20.233  0.00  0.00    +0.000 A 
ATOM     25  C   UNL     1      -0.601  14.281  19.485  0.00  0.00    +0.000 A 
ATOM     26  C   UNL     1      -0.774  15.662  19.557  0.00  0.00    +0.000 A 
ATOM     27  C   UNL     1      -1.780  16.198  20.363  0.00  0.00    +0.000 A 
ATOM     28  C   UNL     1      -2.618  15.357  21.098  0.00  0.00    +0.000 A 
ATOM     29  C   UNL     1      -2.451  13.974  21.034  0.00  0.00    +0.000 A 
ENDBRANCH  21  24
ENDBRANCH   8  21
TORSDOF 6
ENDMDL
MODEL 8
REMARK VINA RESULT:      -7.1      1.266      1.865
REMARK  Name = 
REMARK  8 active torsions:
REMARK  status: ('A' for Active; 'I' for Inactive)
REMARK    1  A    between atoms: C_1  and  C_2
REMARK    2  A    between atoms: C_2  and  N_3
REMARK    3  A    between atoms: N_3  and  C_4
REMARK    4  A    between atoms: N_3  and  S_6
REMARK    5  A    between atoms: C_4  and  C_5
REMARK    6  A    between atoms: S_6  and  C_9
REMARK    7  A    between atoms: N_16  and  S_17
REMARK    8  A    between atoms: S_17  and  C_20
REMARK                            x       y       z     vdW  Elec       q    Type
REMARK                         _______ _______ _______ _____ _____    ______ ____
ROOT
ATOM      1  C   UNL     1       4.248   6.066  18.470  0.00  0.00    +0.000 A 
ATOM      2  C   UNL     1       3.353   5.884  19.513  0.00  0.00    +0.000 A 
ATOM      3  C   UNL     1       2.372   6.848  19.714  0.00  0.00    +0.000 A 
ATOM      4  C   UNL     1       2.286   7.964  18.877  0.00  0.00    +0.000 A 
ATOM      5  N   UNL     1       1.252   8.857  19.067  0.00  0.00    +0.000 N 
ATOM      6  C   UNL     1       0.815   9.706  17.955  0.00  0.00    +0.000 C 
ATOM      7  C   UNL     1      -0.699   9.986  18.136  0.00  0.00    +0.000 C 
ATOM      8  N   UNL     1      -1.039  10.542  19.497  0.00  0.00    +0.000 NA
ATOM      9  C   UNL     1      -0.476   9.663  20.578  0.00  0.00    +0.000 C 
ATOM     10  C   UNL     1       1.036   9.441  20.399  0.00  0.00    +0.000 C 
ATOM     11  N   UNL     1       3.137   8.112  17.836  0.00  0.00    +0.000 NA
ATOM     12  C   UNL     1       4.102   7.168  17.652  0.00  0.00    +0.000 A 
ENDROOT
BRANCH   1  13
ATOM     13  S   UNL     1       5.483   4.865  18.121  0.00  0.00    +0.000 S 
ATOM     14  O   UNL     1       5.575   4.002  19.280  0.00  0.00    +0.000 OA
ATOM     15  O   UNL     1       6.646   5.558  17.615  0.00  0.00    +0.000 OA
BRANCH  13  16
ATOM     16  N   UNL     1       4.823   3.955  16.819  0.00  0.00    +0.000 NA
BRANCH  16  18
ATOM     17  C   UNL     1       5.571   4.389  14.454  0.00  0.00    +0.000 C 
ATOM     18  C   UNL     1       5.799   3.612  15.740  0.00  0.00    +0.000 C 
ENDBRANCH  16  18
BRANCH  16  19
ATOM     19  C   UNL     1       3.949   2.825  17.270  0.00  0.00    +0.000 C 
ATOM     20  C   UNL     1       2.465   3.154  17.243  0.00  0.00    +0.000 C 
ENDBRANCH  16  19
ENDBRANCH  13  16
ENDBRANCH   1  13
BRANCH   8  21
ATOM     21  S   UNL     1      -0.764  12.206  19.729  0.00  0.00    +0.000 S 
ATOM     22  O   UNL     1       0.480  12.358  20.453  0.00  0.00    +0.000 OA
ATOM     23  O   UNL     1      -0.976  12.884  18.469  0.00  0.00    +0.000 OA
BRANCH  21  24
ATOM     24  C   UNL     1      -2.078  12.650  20.834  0.00  0.00    +0.000 A 
ATOM     25  C   UNL     1      -3.381  12.723  20.333  0.00  0.00    +0.000 A 
ATOM     26  C   UNL     1      -4.422  13.084  21.186  0.00  0.00    +0.000 A 
ATOM     27  C   UNL     1      -4.160  13.361  22.529  0.00  0.00    +0.000 A 
ATOM     28  C   UNL     1      -2.857  13.273  23.026  0.00  0.00    +0.000 A 
ATOM     29  C   UNL     1      -1.809  12.914  22.179  0.00  0.00    +0.000 A 
ENDBRANCH  21  24
ENDBRANCH   8  21
TORSDOF 6
ENDMDL
MODEL 9
REMARK VINA RESULT:      -7.0      1.265      1.918
REMARK  Name = 
REMARK  8 active torsions:
REMARK  status: ('A' for Active; 'I' for Inactive)
REMARK    1  A    between atoms: C_1  and  C_2
REMARK    2  A    between atoms: C_2  and  N_3
REMARK    3  A    between atoms: N_3  and  C_4
REMARK    4  A    between atoms: N_3  and  S_6
REMARK    5  A    between atoms: C_4  and  C_5
REMARK    6  A    between atoms: S_6  and  C_9
REMARK    7  A    between atoms: N_16  and  S_17
REMARK    8  A    between atoms: S_17  and  C_20
REMARK                            x       y       z     vdW  Elec       q    Type
REMARK                         _______ _______ _______ _____ _____    ______ ____
ROOT
ATOM      1  C   UNL     1       4.159   5.896  18.575  0.00  0.00    +0.000 A 
ATOM      2  C   UNL     1       3.266   5.787  19.630  0.00  0.00    +0.000 A 
ATOM      3  C   UNL     1       2.336   6.805  19.812  0.00  0.00    +0.000 A 
ATOM      4  C   UNL     1       2.298   7.900  18.945  0.00  0.00    +0.000 A 
ATOM      5  N   UNL     1       1.311   8.849  19.119  0.00  0.00    +0.000 N 
ATOM      6  C   UNL     1       0.908   9.688  17.986  0.00  0.00    +0.000 C 
ATOM      7  C   UNL     1      -0.589  10.049  18.171  0.00  0.00    +0.000 C 
ATOM      8  N   UNL     1      -0.889  10.658  19.519  0.00  0.00    +0.000 NA
ATOM      9  C   UNL     1      -0.360   9.781  20.619  0.00  0.00    +0.000 C 
ATOM     10  C   UNL     1       1.137   9.479  20.435  0.00  0.00    +0.000 C 
ATOM     11  N   UNL     1       3.147   7.977  17.894  0.00  0.00    +0.000 NA
ATOM     12  C   UNL     1       4.061   6.981  17.729  0.00  0.00    +0.000 A 
ENDROOT
BRANCH   1  13
ATOM     13  S   UNL     1       5.330   4.626  18.251  0.00  0.00    +0.000 S 
ATOM     14  O   UNL     1       5.316   3.734  19.391  0.00  0.00    +0.000 OA
ATOM     15  O   UNL     1       6.555   5.252  17.809  0.00  0.00    +0.000 OA
BRANCH  13  16
ATOM     16  N   UNL     1       4.669   3.787  16.901  0.00  0.00    +0.000 NA
BRANCH  16  18
ATOM     17  C   UNL     1       3.043   2.049  17.727  0.00  0.00    +0.000 C 
ATOM     18  C   UNL     1       3.233   3.398  17.052  0.00  0.00    +0.000 C 
ENDBRANCH  16  18
BRANCH  16  19
ATOM     19  C   UNL     1       5.027   4.407  15.586  0.00  0.00    +0.000 C 
ATOM     20  C   UNL     1       6.163   3.698  14.867  0.00  0.00    +0.000 C 
ENDBRANCH  16  19
ENDBRANCH  13  16
ENDBRANCH   1  13
BRANCH   8  21
ATOM     21  S   UNL     1      -0.529  12.311  19.703  0.00  0.00    +0.000 S 
ATOM     22  O   UNL     1       0.878  12.431  20.024  0.00  0.00    +0.000 OA
ATOM     23  O   UNL     1      -1.097  13.030  18.584  0.00  0.00    +0.000 OA
BRANCH  21  24
ATOM     24  C   UNL     1      -1.443  12.731  21.163  0.00  0.00    +0.000 A 
ATOM     25  C   UNL     1      -0.742  13.165  22.292  0.00  0.00    +0.000 A 
ATOM     26  C   UNL     1      -1.445  13.486  23.452  0.00  0.00    +0.000 A 
ATOM     27  C   UNL     1      -2.837  13.380  23.476  0.00  0.00    +0.000 A 
ATOM     28  C   UNL     1      -3.532  12.958  22.340  0.00  0.00    +0.000 A 
ATOM     29  C   UNL     1      -2.837  12.634  21.175  0.00  0.00    +0.000 A 
ENDBRANCH  21  24
ENDBRANCH   8  21
TORSDOF 6
ENDMDL
