MODEL 1
REMARK VINA RESULT:      -8.5      0.000      0.000
REMARK  Name = 
REMARK  10 active torsions:
REMARK  status: ('A' for Active; 'I' for Inactive)
REMARK    1  A    between atoms: C_1  and  C_2
REMARK    2  A    between atoms: N_4  and  C_5
REMARK    3  A    between atoms: C_5  and  C_6
REMARK    4  A    between atoms: C_9  and  N_10
REMARK    5  A    between atoms: C_11  and  C_13
REMARK    6  A    between atoms: C_16  and  C_17
REMARK    7  A    between atoms: C_26  and  C_27
REMARK    8  A    between atoms: C_28  and  C_29
REMARK    9  A    between atoms: C_29  and  C_30
REMARK   10  A    between atoms: C_30  and  O_32
REMARK                            x       y       z     vdW  Elec       q    Type
REMARK                         _______ _______ _______ _____ _____    ______ ____
ROOT
ATOM      1  C   UNL     1      -0.633  11.617  19.773  0.00  0.00    +0.000 A 
ATOM      2  C   UNL     1      -0.665  10.302  20.247  0.00  0.00    +0.000 A 
ATOM      3  C   UNL     1       0.243   9.350  19.770  0.00  0.00    +0.000 A 
ATOM      4  C   UNL     1       1.200   9.684  18.807  0.00  0.00    +0.000 A 
ATOM      5  C   UNL     1       1.270  11.011  18.373  0.00  0.00    +0.000 A 
ATOM      6  C   UNL     1       0.364  11.959  18.860  0.00  0.00    +0.000 A 
ATOM      7  F   UNL     1       0.453  13.223  18.421  0.00  0.00    +0.000 F 
ENDROOT
BRANCH   4   8
ATOM      8  N   UNL     1       2.078   8.738  18.219  0.00  0.00    +0.000 N 
ATOM      9  C   UNL     1       2.464   7.532  18.784  0.00  0.00    +0.000 C 
ATOM     10  O   UNL     1       2.185   7.141  19.911  0.00  0.00    +0.000 OA
ATOM     11  H   UNL     1       2.496   9.000  17.337  0.00  0.00    +0.000 HD
BRANCH   9  12
ATOM     12  C   UNL     1       3.354   6.657  17.967  0.00  0.00    +0.000 A 
ATOM     13  C   UNL     1       4.303   7.293  17.157  0.00  0.00    +0.000 A 
ATOM     14  C   UNL     1       5.211   6.548  16.401  0.00  0.00    +0.000 A 
ATOM     15  C   UNL     1       5.193   5.150  16.450  0.00  0.00    +0.000 A 
ATOM     16  C   UNL     1       4.250   4.514  17.280  0.00  0.00    +0.000 A 
ATOM     17  C   UNL     1       3.335   5.260  18.038  0.00  0.00    +0.000 A 
BRANCH  15  18
ATOM     18  C   UNL     1       6.175   4.339  15.638  0.00  0.00    +0.000 C 
ATOM     19  F   UNL     1       6.269   4.741  14.338  0.00  0.00    +0.000 F 
ATOM     20  F   UNL     1       7.439   4.393  16.138  0.00  0.00    +0.000 F 
ATOM     21  F   UNL     1       5.845   3.018  15.594  0.00  0.00    +0.000 F 
ENDBRANCH  15  18
ENDBRANCH   9  12
ENDBRANCH   4   8
BRANCH   1  22
ATOM     22  C   UNL     1      -1.704  12.602  20.161  0.00  0.00    +0.000 C 
BRANCH  22  26
ATOM     23  C   UNL     1      -4.605  11.173  16.565  0.00  0.00    +0.000 C 
ATOM     24  C   UNL     1      -4.243  11.615  17.936  0.00  0.00    +0.000 A 
ATOM     25  N   UNL     1      -2.959  11.775  18.264  0.00  0.00    +0.000 NA
ATOM     26  N   UNL     1      -2.979  12.288  19.515  0.00  0.00    +0.000 N 
ATOM     27  C   UNL     1      -4.252  12.361  20.030  0.00  0.00    +0.000 A 
ATOM     28  C   UNL     1      -4.587  12.848  21.393  0.00  0.00    +0.000 C 
ATOM     29  C   UNL     1      -5.099  11.894  19.033  0.00  0.00    +0.000 A 
BRANCH  29  30
ATOM     30  C   UNL     1      -6.586  11.737  19.095  0.00  0.00    +0.000 C 
BRANCH  30  31
ATOM     31  C   UNL     1      -7.051  10.456  19.760  0.00  0.00    +0.000 C 
ATOM     32  O   UNL     1      -7.154  10.336  20.975  0.00  0.00    +0.000 OA
BRANCH  31  33
ATOM     33  O   UNL     1      -7.426   9.461  18.923  0.00  0.00    +0.000 OA
ATOM     34  H   UNL     1      -8.377   9.470  18.697  0.00  0.00    +0.000 HD
ENDBRANCH  31  33
ENDBRANCH  30  31
ENDBRANCH  29  30
ENDBRANCH  22  26
ENDBRANCH   1  22
TORSDOF 8
ENDMDL
MODEL 2
REMARK VINA RESULT:      -8.4      4.098     10.928
REMARK  Name = 
REMARK  10 active torsions:
REMARK  status: ('A' for Active; 'I' for Inactive)
REMARK    1  A    between atoms: C_1  and  C_2
REMARK    2  A    between atoms: N_4  and  C_5
REMARK    3  A    between atoms: C_5  and  C_6
REMARK    4  A    between atoms: C_9  and  N_10
REMARK    5  A    between atoms: C_11  and  C_13
REMARK    6  A    between atoms: C_16  and  C_17
REMARK    7  A    between atoms: C_26  and  C_27
REMARK    8  A    between atoms: C_28  and  C_29
REMARK    9  A    between atoms: C_29  and  C_30
REMARK   10  A    between atoms: C_30  and  O_32
REMARK                            x       y       z     vdW  Elec       q    Type
REMARK                         _______ _______ _______ _____ _____    ______ ____
ROOT
ATOM      1  C   UNL     1       2.521   7.849  18.417  0.00  0.00    +0.000 A 
ATOM      2  C   UNL     1       1.885   8.914  17.770  0.00  0.00    +0.000 A 
ATOM      3  C   UNL     1       0.933   9.689  18.442  0.00  0.00    +0.000 A 
ATOM      4  C   UNL     1       0.588   9.419  19.770  0.00  0.00    +0.000 A 
ATOM      5  C   UNL     1       1.263   8.391  20.434  0.00  0.00    +0.000 A 
ATOM      6  C   UNL     1       2.219   7.625  19.759  0.00  0.00    +0.000 A 
ATOM      7  F   UNL     1       2.845   6.642  20.422  0.00  0.00    +0.000 F 
ENDROOT
BRANCH   4   8
ATOM      8  N   UNL     1      -0.437  10.109  20.465  0.00  0.00    +0.000 N 
ATOM      9  C   UNL     1      -0.275  11.271  21.203  0.00  0.00    +0.000 C 
ATOM     10  O   UNL     1       0.789  11.828  21.447  0.00  0.00    +0.000 OA
ATOM     11  H   UNL     1      -1.351   9.677  20.462  0.00  0.00    +0.000 HD
BRANCH   9  12
ATOM     12  C   UNL     1      -1.501  11.864  21.810  0.00  0.00    +0.000 A 
ATOM     13  C   UNL     1      -2.344  12.593  20.961  0.00  0.00    +0.000 A 
ATOM     14  C   UNL     1      -3.539  13.136  21.436  0.00  0.00    +0.000 A 
ATOM     15  C   UNL     1      -3.920  12.951  22.769  0.00  0.00    +0.000 A 
ATOM     16  C   UNL     1      -3.080  12.203  23.616  0.00  0.00    +0.000 A 
ATOM     17  C   UNL     1      -1.877  11.658  23.142  0.00  0.00    +0.000 A 
BRANCH  15  18
ATOM     18  C   UNL     1      -5.215  13.533  23.288  0.00  0.00    +0.000 C 
ATOM     19  F   UNL     1      -5.930  12.667  24.060  0.00  0.00    +0.000 F 
ATOM     20  F   UNL     1      -5.020  14.642  24.052  0.00  0.00    +0.000 F 
ATOM     21  F   UNL     1      -6.051  13.912  22.282  0.00  0.00    +0.000 F 
ENDBRANCH  15  18
ENDBRANCH   9  12
ENDBRANCH   4   8
BRANCH   1  22
ATOM     22  C   UNL     1       3.424   6.915  17.655  0.00  0.00    +0.000 C 
BRANCH  22  26
ATOM     23  C   UNL     1       0.988   2.821  18.488  0.00  0.00    +0.000 C 
ATOM     24  C   UNL     1       2.171   3.716  18.409  0.00  0.00    +0.000 A 
ATOM     25  N   UNL     1       2.039   4.947  17.909  0.00  0.00    +0.000 NA
ATOM     26  N   UNL     1       3.247   5.528  18.087  0.00  0.00    +0.000 N 
ATOM     27  C   UNL     1       4.177   4.654  18.598  0.00  0.00    +0.000 A 
ATOM     28  C   UNL     1       5.598   4.993  18.867  0.00  0.00    +0.000 C 
ATOM     29  C   UNL     1       3.512   3.449  18.786  0.00  0.00    +0.000 A 
BRANCH  29  30
ATOM     30  C   UNL     1       4.081   2.160  19.292  0.00  0.00    +0.000 C 
BRANCH  30  31
ATOM     31  C   UNL     1       4.185   2.075  20.803  0.00  0.00    +0.000 C 
ATOM     32  O   UNL     1       3.283   2.424  21.552  0.00  0.00    +0.000 OA
BRANCH  31  33
ATOM     33  O   UNL     1       5.318   1.510  21.282  0.00  0.00    +0.000 OA
ATOM     34  H   UNL     1       5.282   1.298  22.236  0.00  0.00    +0.000 HD
ENDBRANCH  31  33
ENDBRANCH  30  31
ENDBRANCH  29  30
ENDBRANCH  22  26
ENDBRANCH   1  22
TORSDOF 8
ENDMDL
MODEL 3
REMARK VINA RESULT:      -8.4      4.399     10.989
REMARK  Name = 
REMARK  10 active torsions:
REMARK  status: ('A' for Active; 'I' for Inactive)
REMARK    1  A    between atoms: C_1  and  C_2
REMARK    2  A    between atoms: N_4  and  C_5
REMARK    3  A    between atoms: C_5  and  C_6
REMARK    4  A    between atoms: C_9  and  N_10
REMARK    5  A    between atoms: C_11  and  C_13
REMARK    6  A    between atoms: C_16  and  C_17
REMARK    7  A    between atoms: C_26  and  C_27
REMARK    8  A    between atoms: C_28  and  C_29
REMARK    9  A    between atoms: C_29  and  C_30
REMARK   10  A    between atoms: C_30  and  O_32
REMARK                            x       y       z     vdW  Elec       q    Type
REMARK                         _______ _______ _______ _____ _____    ______ ____
ROOT
ATOM      1  C   UNL     1       2.221   7.931  18.935  0.00  0.00    +0.000 A 
ATOM      2  C   UNL     1       1.868   7.648  20.258  0.00  0.00    +0.000 A 
ATOM      3  C   UNL     1       0.988   8.484  20.956  0.00  0.00    +0.000 A 
ATOM      4  C   UNL     1       0.444   9.623  20.354  0.00  0.00    +0.000 A 
ATOM      5  C   UNL     1       0.751   9.876  19.015  0.00  0.00    +0.000 A 
ATOM      6  C   UNL     1       1.625   9.032  18.321  0.00  0.00    +0.000 A 
ATOM      7  F   UNL     1       1.906   9.305  17.039  0.00  0.00    +0.000 F 
ENDROOT
BRANCH   4   8
ATOM      8  N   UNL     1      -0.372  10.554  21.044  0.00  0.00    +0.000 N 
ATOM      9  C   UNL     1      -0.368  10.777  22.413  0.00  0.00    +0.000 C 
ATOM     10  O   UNL     1       0.269  10.142  23.245  0.00  0.00    +0.000 OA
ATOM     11  H   UNL     1      -1.053  11.055  20.489  0.00  0.00    +0.000 HD
BRANCH   9  12
ATOM     12  C   UNL     1      -1.270  11.847  22.927  0.00  0.00    +0.000 A 
ATOM     13  C   UNL     1      -0.797  13.164  22.867  0.00  0.00    +0.000 A 
ATOM     14  C   UNL     1      -1.598  14.231  23.277  0.00  0.00    +0.000 A 
ATOM     15  C   UNL     1      -2.896  14.000  23.748  0.00  0.00    +0.000 A 
ATOM     16  C   UNL     1      -3.376  12.677  23.791  0.00  0.00    +0.000 A 
ATOM     17  C   UNL     1      -2.571  11.604  23.381  0.00  0.00    +0.000 A 
BRANCH  15  18
ATOM     18  C   UNL     1      -3.769  15.151  24.191  0.00  0.00    +0.000 C 
ATOM     19  F   UNL     1      -3.626  16.270  23.424  0.00  0.00    +0.000 F 
ATOM     20  F   UNL     1      -5.094  14.844  24.160  0.00  0.00    +0.000 F 
ATOM     21  F   UNL     1      -3.503  15.542  25.468  0.00  0.00    +0.000 F 
ENDBRANCH  15  18
ENDBRANCH   9  12
ENDBRANCH   4   8
BRANCH   1  22
ATOM     22  C   UNL     1       3.286   7.130  18.235  0.00  0.00    +0.000 C 
BRANCH  22  26
ATOM     23  C   UNL     1       0.953   2.908  18.593  0.00  0.00    +0.000 C 
ATOM     24  C   UNL     1       2.113   3.836  18.618  0.00  0.00    +0.000 A 
ATOM     25  N   UNL     1       1.949   5.112  18.262  0.00  0.00    +0.000 NA
ATOM     26  N   UNL     1       3.143   5.699  18.505  0.00  0.00    +0.000 N 
ATOM     27  C   UNL     1       4.096   4.795  18.913  0.00  0.00    +0.000 A 
ATOM     28  C   UNL     1       5.509   5.136  19.220  0.00  0.00    +0.000 C 
ATOM     29  C   UNL     1       3.461   3.560  18.962  0.00  0.00    +0.000 A 
BRANCH  29  30
ATOM     30  C   UNL     1       4.063   2.236  19.318  0.00  0.00    +0.000 C 
BRANCH  30  31
ATOM     31  C   UNL     1       4.262   2.021  20.806  0.00  0.00    +0.000 C 
ATOM     32  O   UNL     1       5.301   1.580  21.280  0.00  0.00    +0.000 OA
BRANCH  31  33
ATOM     33  O   UNL     1       3.242   2.422  21.600  0.00  0.00    +0.000 OA
ATOM     34  H   UNL     1       2.708   1.687  21.961  0.00  0.00    +0.000 HD
ENDBRANCH  31  33
ENDBRANCH  30  31
ENDBRANCH  29  30
ENDBRANCH  22  26
ENDBRANCH   1  22
TORSDOF 8
ENDMDL
MODEL 4
REMARK VINA RESULT:      -8.2      4.360     11.000
REMARK  Name = 
REMARK  10 active torsions:
REMARK  status: ('A' for Active; 'I' for Inactive)
REMARK    1  A    between atoms: C_1  and  C_2
REMARK    2  A    between atoms: N_4  and  C_5
REMARK    3  A    between atoms: C_5  and  C_6
REMARK    4  A    between atoms: C_9  and  N_10
REMARK    5  A    between atoms: C_11  and  C_13
REMARK    6  A    between atoms: C_16  and  C_17
REMARK    7  A    between atoms: C_26  and  C_27
REMARK    8  A    between atoms: C_28  and  C_29
REMARK    9  A    between atoms: C_29  and  C_30
REMARK   10  A    between atoms: C_30  and  O_32
REMARK                            x       y       z     vdW  Elec       q    Type
REMARK                         _______ _______ _______ _____ _____    ______ ____
ROOT
ATOM      1  C   UNL     1       2.289   7.877  18.799  0.00  0.00    +0.000 A 
ATOM      2  C   UNL     1       1.910   7.619  20.120  0.00  0.00    +0.000 A 
ATOM      3  C   UNL     1       1.045   8.487  20.795  0.00  0.00    +0.000 A 
ATOM      4  C   UNL     1       0.543   9.635  20.174  0.00  0.00    +0.000 A 
ATOM      5  C   UNL     1       0.877   9.865  18.836  0.00  0.00    +0.000 A 
ATOM      6  C   UNL     1       1.735   8.987  18.165  0.00  0.00    +0.000 A 
ATOM      7  F   UNL     1       2.042   9.238  16.884  0.00  0.00    +0.000 F 
ENDROOT
BRANCH   4   8
ATOM      8  N   UNL     1      -0.256  10.598  20.842  0.00  0.00    +0.000 N 
ATOM      9  C   UNL     1      -0.208  10.889  22.196  0.00  0.00    +0.000 C 
ATOM     10  O   UNL     1       0.459  10.301  23.039  0.00  0.00    +0.000 OA
ATOM     11  H   UNL     1      -0.957  11.066  20.284  0.00  0.00    +0.000 HD
BRANCH   9  12
ATOM     12  C   UNL     1      -1.099  11.981  22.685  0.00  0.00    +0.000 A 
ATOM     13  C   UNL     1      -2.389  11.616  23.092  0.00  0.00    +0.000 A 
ATOM     14  C   UNL     1      -3.269  12.567  23.613  0.00  0.00    +0.000 A 
ATOM     15  C   UNL     1      -2.871  13.902  23.744  0.00  0.00    +0.000 A 
ATOM     16  C   UNL     1      -1.568  14.263  23.351  0.00  0.00    +0.000 A 
ATOM     17  C   UNL     1      -0.683  13.309  22.826  0.00  0.00    +0.000 A 
BRANCH  15  18
ATOM     18  C   UNL     1      -3.818  14.935  24.310  0.00  0.00    +0.000 C 
ATOM     19  F   UNL     1      -3.444  15.404  25.535  0.00  0.00    +0.000 F 
ATOM     20  F   UNL     1      -3.936  16.030  23.511  0.00  0.00    +0.000 F 
ATOM     21  F   UNL     1      -5.080  14.448  24.469  0.00  0.00    +0.000 F 
ENDBRANCH  15  18
ENDBRANCH   9  12
ENDBRANCH   4   8
BRANCH   1  22
ATOM     22  C   UNL     1       3.341   7.037  18.123  0.00  0.00    +0.000 C 
BRANCH  22  26
ATOM     23  C   UNL     1       0.910   2.874  18.517  0.00  0.00    +0.000 C 
ATOM     24  C   UNL     1       2.089   3.777  18.547  0.00  0.00    +0.000 A 
ATOM     25  N   UNL     1       1.961   5.049  18.163  0.00  0.00    +0.000 NA
ATOM     26  N   UNL     1       3.162   5.615  18.419  0.00  0.00    +0.000 N 
ATOM     27  C   UNL     1       4.086   4.700  18.866  0.00  0.00    +0.000 A 
ATOM     28  C   UNL     1       5.500   5.018  19.195  0.00  0.00    +0.000 C 
ATOM     29  C   UNL     1       3.424   3.480  18.926  0.00  0.00    +0.000 A 
BRANCH  29  30
ATOM     30  C   UNL     1       3.989   2.152  19.320  0.00  0.00    +0.000 C 
BRANCH  30  31
ATOM     31  C   UNL     1       4.236   1.996  20.809  0.00  0.00    +0.000 C 
ATOM     32  O   UNL     1       5.295   1.587  21.268  0.00  0.00    +0.000 OA
BRANCH  31  33
ATOM     33  O   UNL     1       3.235   2.414  21.618  0.00  0.00    +0.000 OA
ATOM     34  H   UNL     1       3.061   3.375  21.570  0.00  0.00    +0.000 HD
ENDBRANCH  31  33
ENDBRANCH  30  31
ENDBRANCH  29  30
ENDBRANCH  22  26
ENDBRANCH   1  22
TORSDOF 8
ENDMDL
MODEL 5
REMARK VINA RESULT:      -8.1      7.455     10.157
REMARK  Name = 
REMARK  10 active torsions:
REMARK  status: ('A' for Active; 'I' for Inactive)
REMARK    1  A    between atoms: C_1  and  C_2
REMARK    2  A    between atoms: N_4  and  C_5
REMARK    3  A    between atoms: C_5  and  C_6
REMARK    4  A    between atoms: C_9  and  N_10
REMARK    5  A    between atoms: C_11  and  C_13
REMARK    6  A    between atoms: C_16  and  C_17
REMARK    7  A    between atoms: C_26  and  C_27
REMARK    8  A    between atoms: C_28  and  C_29
REMARK    9  A    between atoms: C_29  and  C_30
REMARK   10  A    between atoms: C_30  and  O_32
REMARK                            x       y       z     vdW  Elec       q    Type
REMARK                         _______ _______ _______ _____ _____    ______ ____
ROOT
ATOM      1  C   UNL     1       5.575   5.352  16.922  0.00  0.00    +0.000 A 
ATOM      2  C   UNL     1       6.971   5.422  16.879  0.00  0.00    +0.000 A 
ATOM      3  C   UNL     1       7.630   6.637  17.100  0.00  0.00    +0.000 A 
ATOM      4  C   UNL     1       6.915   7.810  17.362  0.00  0.00    +0.000 A 
ATOM      5  C   UNL     1       5.523   7.730  17.460  0.00  0.00    +0.000 A 
ATOM      6  C   UNL     1       4.872   6.510  17.247  0.00  0.00    +0.000 A 
ATOM      7  F   UNL     1       3.535   6.467  17.342  0.00  0.00    +0.000 F 
ENDROOT
BRANCH   4   8
ATOM      8  N   UNL     1       7.526   9.082  17.495  0.00  0.00    +0.000 N 
ATOM      9  C   UNL     1       8.549   9.401  18.376  0.00  0.00    +0.000 C 
ATOM     10  O   UNL     1       9.017   8.664  19.235  0.00  0.00    +0.000 OA
ATOM     11  H   UNL     1       7.137   9.829  16.936  0.00  0.00    +0.000 HD
BRANCH   9  12
ATOM     12  C   UNL     1       9.086  10.791  18.313  0.00  0.00    +0.000 A 
ATOM     13  C   UNL     1      10.321  11.025  18.931  0.00  0.00    +0.000 A 
ATOM     14  C   UNL     1      10.921  12.285  18.874  0.00  0.00    +0.000 A 
ATOM     15  C   UNL     1      10.300  13.333  18.186  0.00  0.00    +0.000 A 
ATOM     16  C   UNL     1       9.067  13.091  17.550  0.00  0.00    +0.000 A 
ATOM     17  C   UNL     1       8.462  11.826  17.609  0.00  0.00    +0.000 A 
BRANCH  15  18
ATOM     18  C   UNL     1      10.946  14.698  18.117  0.00  0.00    +0.000 C 
ATOM     19  F   UNL     1      11.799  14.949  19.151  0.00  0.00    +0.000 F 
ATOM     20  F   UNL     1      11.673  14.876  16.981  0.00  0.00    +0.000 F 
ATOM     21  F   UNL     1      10.030  15.706  18.139  0.00  0.00    +0.000 F 
ENDBRANCH  15  18
ENDBRANCH   9  12
ENDBRANCH   4   8
BRANCH   1  22
ATOM     22  C   UNL     1       4.856   4.088  16.530  0.00  0.00    +0.000 C 
BRANCH  22  26
ATOM     23  C   UNL     1       4.845   1.694  20.732  0.00  0.00    +0.000 C 
ATOM     24  C   UNL     1       4.270   2.411  19.566  0.00  0.00    +0.000 A 
ATOM     25  N   UNL     1       5.080   2.973  18.666  0.00  0.00    +0.000 NA
ATOM     26  N   UNL     1       4.260   3.429  17.692  0.00  0.00    +0.000 N 
ATOM     27  C   UNL     1       2.932   3.259  18.006  0.00  0.00    +0.000 A 
ATOM     28  C   UNL     1       1.798   3.693  17.149  0.00  0.00    +0.000 C 
ATOM     29  C   UNL     1       2.905   2.628  19.243  0.00  0.00    +0.000 A 
BRANCH  29  30
ATOM     30  C   UNL     1       1.703   2.245  20.048  0.00  0.00    +0.000 C 
BRANCH  30  31
ATOM     31  C   UNL     1       1.386   3.195  21.187  0.00  0.00    +0.000 C 
ATOM     32  O   UNL     1       1.580   2.912  22.362  0.00  0.00    +0.000 OA
BRANCH  31  33
ATOM     33  O   UNL     1       0.942   4.421  20.823  0.00  0.00    +0.000 OA
ATOM     34  H   UNL     1       1.152   4.660  19.898  0.00  0.00    +0.000 HD
ENDBRANCH  31  33
ENDBRANCH  30  31
ENDBRANCH  29  30
ENDBRANCH  22  26
ENDBRANCH   1  22
TORSDOF 8
ENDMDL
MODEL 6
REMARK VINA RESULT:      -8.0      3.847     10.963
REMARK  Name = 
REMARK  10 active torsions:
REMARK  status: ('A' for Active; 'I' for Inactive)
REMARK    1  A    between atoms: C_1  and  C_2
REMARK    2  A    between atoms: N_4  and  C_5
REMARK    3  A    between atoms: C_5  and  C_6
REMARK    4  A    between atoms: C_9  and  N_10
REMARK    5  A    between atoms: C_11  and  C_13
REMARK    6  A    between atoms: C_16  and  C_17
REMARK    7  A    between atoms: C_26  and  C_27
REMARK    8  A    between atoms: C_28  and  C_29
REMARK    9  A    between atoms: C_29  and  C_30
REMARK   10  A    between atoms: C_30  and  O_32
REMARK                            x       y       z     vdW  Elec       q    Type
REMARK                         _______ _______ _______ _____ _____    ______ ____
ROOT
ATOM      1  C   UNL     1       2.327   7.887  18.792  0.00  0.00    +0.000 A 
ATOM      2  C   UNL     1       1.983   7.546  20.104  0.00  0.00    +0.000 A 
ATOM      3  C   UNL     1       1.213   8.412  20.887  0.00  0.00    +0.000 A 
ATOM      4  C   UNL     1       0.772   9.641  20.385  0.00  0.00    +0.000 A 
ATOM      5  C   UNL     1       1.068   9.959  19.056  0.00  0.00    +0.000 A 
ATOM      6  C   UNL     1       1.832   9.084  18.277  0.00  0.00    +0.000 A 
ATOM      7  F   UNL     1       2.104   9.419  17.007  0.00  0.00    +0.000 F 
ENDROOT
BRANCH   4   8
ATOM      8  N   UNL     1       0.074  10.597  21.165  0.00  0.00    +0.000 N 
ATOM      9  C   UNL     1      -1.093  11.248  20.794  0.00  0.00    +0.000 C 
ATOM     10  O   UNL     1      -1.648  11.170  19.705  0.00  0.00    +0.000 OA
ATOM     11  H   UNL     1       0.502  10.862  22.041  0.00  0.00    +0.000 HD
BRANCH   9  12
ATOM     12  C   UNL     1      -1.694  12.179  21.792  0.00  0.00    +0.000 A 
ATOM     13  C   UNL     1      -0.815  12.828  22.669  0.00  0.00    +0.000 A 
ATOM     14  C   UNL     1      -1.288  13.756  23.599  0.00  0.00    +0.000 A 
ATOM     15  C   UNL     1      -2.652  14.061  23.662  0.00  0.00    +0.000 A 
ATOM     16  C   UNL     1      -3.532  13.421  22.767  0.00  0.00    +0.000 A 
ATOM     17  C   UNL     1      -3.058  12.487  21.834  0.00  0.00    +0.000 A 
BRANCH  15  18
ATOM     18  C   UNL     1      -3.170  15.067  24.663  0.00  0.00    +0.000 C 
ATOM     19  F   UNL     1      -2.564  16.285  24.574  0.00  0.00    +0.000 F 
ATOM     20  F   UNL     1      -4.503  15.301  24.527  0.00  0.00    +0.000 F 
ATOM     21  F   UNL     1      -2.990  14.656  25.950  0.00  0.00    +0.000 F 
ENDBRANCH  15  18
ENDBRANCH   9  12
ENDBRANCH   4   8
BRANCH   1  22
ATOM     22  C   UNL     1       3.286   7.036  18.002  0.00  0.00    +0.000 C 
BRANCH  22  26
ATOM     23  C   UNL     1       0.957   2.832  18.553  0.00  0.00    +0.000 C 
ATOM     24  C   UNL     1       2.116   3.761  18.535  0.00  0.00    +0.000 A 
ATOM     25  N   UNL     1       1.952   5.020  18.121  0.00  0.00    +0.000 NA
ATOM     26  N   UNL     1       3.145   5.619  18.338  0.00  0.00    +0.000 N 
ATOM     27  C   UNL     1       4.098   4.735  18.788  0.00  0.00    +0.000 A 
ATOM     28  C   UNL     1       5.511   5.092  19.079  0.00  0.00    +0.000 C 
ATOM     29  C   UNL     1       3.465   3.504  18.893  0.00  0.00    +0.000 A 
BRANCH  29  30
ATOM     30  C   UNL     1       4.067   2.198  19.309  0.00  0.00    +0.000 C 
BRANCH  30  31
ATOM     31  C   UNL     1       4.255   2.047  20.807  0.00  0.00    +0.000 C 
ATOM     32  O   UNL     1       5.286   1.616  21.307  0.00  0.00    +0.000 OA
BRANCH  31  33
ATOM     33  O   UNL     1       3.235   2.494  21.575  0.00  0.00    +0.000 OA
ATOM     34  H   UNL     1       3.366   2.348  22.533  0.00  0.00    +0.000 HD
ENDBRANCH  31  33
ENDBRANCH  30  31
ENDBRANCH  29  30
ENDBRANCH  22  26
ENDBRANCH   1  22
TORSDOF 8
ENDMDL
MODEL 7
REMARK VINA RESULT:      -7.9      2.293      3.188
REMARK  Name = 
REMARK  10 active torsions:
REMARK  status: ('A' for Active; 'I' for Inactive)
REMARK    1  A    between atoms: C_1  and  C_2
REMARK    2  A    between atoms: N_4  and  C_5
REMARK    3  A    between atoms: C_5  and  C_6
REMARK    4  A    between atoms: C_9  and  N_10
REMARK    5  A    between atoms: C_11  and  C_13
REMARK    6  A    between atoms: C_16  and  C_17
REMARK    7  A    between atoms: C_26  and  C_27
REMARK    8  A    between atoms: C_28  and  C_29
REMARK    9  A    between atoms: C_29  and  C_30
REMARK   10  A    between atoms: C_30  and  O_32
REMARK                            x       y       z     vdW  Elec       q    Type
REMARK                         _______ _______ _______ _____ _____    ______ ____
ROOT
ATOM      1  C   UNL     1      -0.338  11.694  21.754  0.00  0.00    +0.000 A 
ATOM      2  C   UNL     1       0.200  11.926  20.485  0.00  0.00    +0.000 A 
ATOM      3  C   UNL     1       0.798  10.887  19.763  0.00  0.00    +0.000 A 
ATOM      4  C   UNL     1       0.878   9.594  20.290  0.00  0.00    +0.000 A 
ATOM      5  C   UNL     1       0.291   9.347  21.535  0.00  0.00    +0.000 A 
ATOM      6  C   UNL     1      -0.312  10.390  22.247  0.00  0.00    +0.000 A 
ATOM      7  F   UNL     1      -0.861  10.123  23.441  0.00  0.00    +0.000 F 
ENDROOT
BRANCH   4   8
ATOM      8  N   UNL     1       1.558   8.530  19.646  0.00  0.00    +0.000 N 
ATOM      9  C   UNL     1       2.081   8.564  18.362  0.00  0.00    +0.000 C 
ATOM     10  O   UNL     1       1.958   9.478  17.556  0.00  0.00    +0.000 OA
ATOM     11  H   UNL     1       1.610   7.657  20.152  0.00  0.00    +0.000 HD
BRANCH   9  12
ATOM     12  C   UNL     1       2.810   7.348  17.897  0.00  0.00    +0.000 A 
ATOM     13  C   UNL     1       4.024   7.549  17.229  0.00  0.00    +0.000 A 
ATOM     14  C   UNL     1       4.796   6.464  16.807  0.00  0.00    +0.000 A 
ATOM     15  C   UNL     1       4.371   5.155  17.056  0.00  0.00    +0.000 A 
ATOM     16  C   UNL     1       3.158   4.955  17.743  0.00  0.00    +0.000 A 
ATOM     17  C   UNL     1       2.380   6.044  18.166  0.00  0.00    +0.000 A 
BRANCH  15  18
ATOM     18  C   UNL     1       5.203   3.977  16.605  0.00  0.00    +0.000 C 
ATOM     19  F   UNL     1       6.486   4.010  17.065  0.00  0.00    +0.000 F 
ATOM     20  F   UNL     1       4.689   2.786  17.015  0.00  0.00    +0.000 F 
ATOM     21  F   UNL     1       5.298   3.899  15.248  0.00  0.00    +0.000 F 
ENDBRANCH  15  18
ENDBRANCH   9  12
ENDBRANCH   4   8
BRANCH   1  22
ATOM     22  C   UNL     1      -0.837  12.836  22.600  0.00  0.00    +0.000 C 
BRANCH  22  26
ATOM     23  C   UNL     1      -5.115  12.282  24.787  0.00  0.00    +0.000 C 
ATOM     24  C   UNL     1      -4.175  12.623  23.689  0.00  0.00    +0.000 A 
ATOM     25  N   UNL     1      -2.859  12.590  23.908  0.00  0.00    +0.000 NA
ATOM     26  N   UNL     1      -2.297  12.828  22.701  0.00  0.00    +0.000 N 
ATOM     27  C   UNL     1      -3.234  13.116  21.736  0.00  0.00    +0.000 A 
ATOM     28  C   UNL     1      -2.918  13.454  20.324  0.00  0.00    +0.000 C 
ATOM     29  C   UNL     1      -4.472  13.024  22.361  0.00  0.00    +0.000 A 
BRANCH  29  30
ATOM     30  C   UNL     1      -5.819  13.276  21.760  0.00  0.00    +0.000 C 
BRANCH  30  31
ATOM     31  C   UNL     1      -6.420  12.077  21.052  0.00  0.00    +0.000 C 
ATOM     32  O   UNL     1      -6.156  11.789  19.891  0.00  0.00    +0.000 OA
BRANCH  31  33
ATOM     33  O   UNL     1      -7.216  11.285  21.808  0.00  0.00    +0.000 OA
ATOM     34  H   UNL     1      -8.147  11.257  21.509  0.00  0.00    +0.000 HD
ENDBRANCH  31  33
ENDBRANCH  30  31
ENDBRANCH  29  30
ENDBRANCH  22  26
ENDBRANCH   1  22
TORSDOF 8
ENDMDL
MODEL 8
REMARK VINA RESULT:      -7.9      2.455      3.566
REMARK  Name = 
REMARK  10 active torsions:
REMARK  status: ('A' for Active; 'I' for Inactive)
REMARK    1  A    between atoms: C_1  and  C_2
REMARK    2  A    between atoms: N_4  and  C_5
REMARK    3  A    between atoms: C_5  and  C_6
REMARK    4  A    between atoms: C_9  and  N_10
REMARK    5  A    between atoms: C_11  and  C_13
REMARK    6  A    between atoms: C_16  and  C_17
REMARK    7  A    between atoms: C_26  and  C_27
REMARK    8  A    between atoms: C_28  and  C_29
REMARK    9  A    between atoms: C_29  and  C_30
REMARK   10  A    between atoms: C_30  and  O_32
REMARK                            x       y       z     vdW  Elec       q    Type
REMARK                         _______ _______ _______ _____ _____    ______ ____
ROOT
ATOM      1  C   UNL     1      -1.010  12.726  20.290  0.00  0.00    +0.000 A 
ATOM      2  C   UNL     1      -1.604  11.744  19.491  0.00  0.00    +0.000 A 
ATOM      3  C   UNL     1      -0.953  10.527  19.255  0.00  0.00    +0.000 A 
ATOM      4  C   UNL     1       0.306  10.263  19.804  0.00  0.00    +0.000 A 
ATOM      5  C   UNL     1       0.876  11.221  20.647  0.00  0.00    +0.000 A 
ATOM      6  C   UNL     1       0.215  12.431  20.885  0.00  0.00    +0.000 A 
ATOM      7  F   UNL     1       0.791  13.332  21.695  0.00  0.00    +0.000 F 
ENDROOT
BRANCH   4   8
ATOM      8  N   UNL     1       1.051   9.091  19.517  0.00  0.00    +0.000 N 
ATOM      9  C   UNL     1       1.876   8.905  18.419  0.00  0.00    +0.000 C 
ATOM     10  O   UNL     1       2.017   9.682  17.482  0.00  0.00    +0.000 OA
ATOM     11  H   UNL     1       0.919   8.309  20.144  0.00  0.00    +0.000 HD
BRANCH   9  12
ATOM     12  C   UNL     1       2.614   7.612  18.339  0.00  0.00    +0.000 A 
ATOM     13  C   UNL     1       3.630   7.515  17.379  0.00  0.00    +0.000 A 
ATOM     14  C   UNL     1       4.405   6.359  17.273  0.00  0.00    +0.000 A 
ATOM     15  C   UNL     1       4.184   5.278  18.134  0.00  0.00    +0.000 A 
ATOM     16  C   UNL     1       3.175   5.384  19.109  0.00  0.00    +0.000 A 
ATOM     17  C   UNL     1       2.393   6.545  19.216  0.00  0.00    +0.000 A 
BRANCH  15  18
ATOM     18  C   UNL     1       5.023   4.025  18.026  0.00  0.00    +0.000 C 
ATOM     19  F   UNL     1       4.412   3.020  17.337  0.00  0.00    +0.000 F 
ATOM     20  F   UNL     1       6.209   4.242  17.398  0.00  0.00    +0.000 F 
ATOM     21  F   UNL     1       5.333   3.503  19.246  0.00  0.00    +0.000 F 
ENDBRANCH  15  18
ENDBRANCH   9  12
ENDBRANCH   4   8
BRANCH   1  22
ATOM     22  C   UNL     1      -1.629  14.092  20.417  0.00  0.00    +0.000 C 
BRANCH  22  26
ATOM     23  C   UNL     1      -2.824  15.018  25.012  0.00  0.00    +0.000 C 
ATOM     24  C   UNL     1      -3.039  14.625  23.596  0.00  0.00    +0.000 A 
ATOM     25  N   UNL     1      -2.031  14.705  22.724  0.00  0.00    +0.000 NA
ATOM     26  N   UNL     1      -2.515  14.172  21.579  0.00  0.00    +0.000 N 
ATOM     27  C   UNL     1      -3.848  13.848  21.677  0.00  0.00    +0.000 A 
ATOM     28  C   UNL     1      -4.663  13.278  20.573  0.00  0.00    +0.000 C 
ATOM     29  C   UNL     1      -4.229  14.166  22.974  0.00  0.00    +0.000 A 
BRANCH  29  30
ATOM     30  C   UNL     1      -5.589  14.036  23.586  0.00  0.00    +0.000 C 
BRANCH  30  31
ATOM     31  C   UNL     1      -5.911  12.646  24.101  0.00  0.00    +0.000 C 
ATOM     32  O   UNL     1      -5.203  12.055  24.906  0.00  0.00    +0.000 OA
BRANCH  31  33
ATOM     33  O   UNL     1      -7.083  12.119  23.676  0.00  0.00    +0.000 OA
ATOM     34  H   UNL     1      -6.979  11.329  23.108  0.00  0.00    +0.000 HD
ENDBRANCH  31  33
ENDBRANCH  30  31
ENDBRANCH  29  30
ENDBRANCH  22  26
ENDBRANCH   1  22
TORSDOF 8
ENDMDL
MODEL 9
REMARK VINA RESULT:      -7.9      4.628     11.409
REMARK  Name = 
REMARK  10 active torsions:
REMARK  status: ('A' for Active; 'I' for Inactive)
REMARK    1  A    between atoms: C_1  and  C_2
REMARK    2  A    between atoms: N_4  and  C_5
REMARK    3  A    between atoms: C_5  and  C_6
REMARK    4  A    between atoms: C_9  and  N_10
REMARK    5  A    between atoms: C_11  and  C_13
REMARK    6  A    between atoms: C_16  and  C_17
REMARK    7  A    between atoms: C_26  and  C_27
REMARK    8  A    between atoms: C_28  and  C_29
REMARK    9  A    between atoms: C_29  and  C_30
REMARK   10  A    between atoms: C_30  and  O_32
REMARK                            x       y       z     vdW  Elec       q    Type
REMARK                         _______ _______ _______ _____ _____    ______ ____
ROOT
ATOM      1  C   UNL     1       2.741   5.545  19.747  0.00  0.00    +0.000 A 
ATOM      2  C   UNL     1       2.873   6.713  18.990  0.00  0.00    +0.000 A 
ATOM      3  C   UNL     1       2.155   7.865  19.327  0.00  0.00    +0.000 A 
ATOM      4  C   UNL     1       1.285   7.881  20.422  0.00  0.00    +0.000 A 
ATOM      5  C   UNL     1       1.194   6.732  21.213  0.00  0.00    +0.000 A 
ATOM      6  C   UNL     1       1.921   5.585  20.874  0.00  0.00    +0.000 A 
ATOM      7  F   UNL     1       1.809   4.497  21.649  0.00  0.00    +0.000 F 
ENDROOT
BRANCH   4   8
ATOM      8  N   UNL     1       0.462   8.988  20.749  0.00  0.00    +0.000 N 
ATOM      9  C   UNL     1       0.617   9.814  21.852  0.00  0.00    +0.000 C 
ATOM     10  O   UNL     1       1.425   9.662  22.760  0.00  0.00    +0.000 OA
ATOM     11  H   UNL     1      -0.338   9.146  20.151  0.00  0.00    +0.000 HD
BRANCH   9  12
ATOM     12  C   UNL     1      -0.331  10.959  21.977  0.00  0.00    +0.000 A 
ATOM     13  C   UNL     1      -1.245  10.917  23.037  0.00  0.00    +0.000 A 
ATOM     14  C   UNL     1      -2.131  11.973  23.259  0.00  0.00    +0.000 A 
ATOM     15  C   UNL     1      -2.112  13.098  22.427  0.00  0.00    +0.000 A 
ATOM     16  C   UNL     1      -1.181  13.146  21.373  0.00  0.00    +0.000 A 
ATOM     17  C   UNL     1      -0.290  12.085  21.148  0.00  0.00    +0.000 A 
BRANCH  15  18
ATOM     18  C   UNL     1      -3.067  14.246  22.664  0.00  0.00    +0.000 C 
ATOM     19  F   UNL     1      -4.373  13.862  22.733  0.00  0.00    +0.000 F 
ATOM     20  F   UNL     1      -2.810  14.909  23.824  0.00  0.00    +0.000 F 
ATOM     21  F   UNL     1      -3.007  15.181  21.675  0.00  0.00    +0.000 F 
ENDBRANCH  15  18
ENDBRANCH   9  12
ENDBRANCH   4   8
BRANCH   1  22
ATOM     22  C   UNL     1       3.384   4.259  19.298  0.00  0.00    +0.000 C 
BRANCH  22  26
ATOM     23  C   UNL     1       7.911   5.911  18.882  0.00  0.00    +0.000 C 
ATOM     24  C   UNL     1       6.672   5.201  18.474  0.00  0.00    +0.000 A 
ATOM     25  N   UNL     1       5.659   5.085  19.336  0.00  0.00    +0.000 NA
ATOM     26  N   UNL     1       4.662   4.506  18.629  0.00  0.00    +0.000 N 
ATOM     27  C   UNL     1       5.057   4.158  17.359  0.00  0.00    +0.000 A 
ATOM     28  C   UNL     1       4.192   3.474  16.362  0.00  0.00    +0.000 C 
ATOM     29  C   UNL     1       6.379   4.567  17.239  0.00  0.00    +0.000 A 
BRANCH  29  30
ATOM     30  C   UNL     1       7.287   4.394  16.062  0.00  0.00    +0.000 C 
BRANCH  30  31
ATOM     31  C   UNL     1       7.018   5.356  14.920  0.00  0.00    +0.000 C 
ATOM     32  O   UNL     1       6.006   6.041  14.852  0.00  0.00    +0.000 OA
BRANCH  31  33
ATOM     33  O   UNL     1       8.009   5.475  14.006  0.00  0.00    +0.000 OA
ATOM     34  H   UNL     1       7.914   4.877  13.238  0.00  0.00    +0.000 HD
ENDBRANCH  31  33
ENDBRANCH  30  31
ENDBRANCH  29  30
ENDBRANCH  22  26
ENDBRANCH   1  22
TORSDOF 8
ENDMDL
