MODEL 1
REMARK VINA RESULT:      -8.0      0.000      0.000
REMARK  Name = 
REMARK  12 active torsions:
REMARK  status: ('A' for Active; 'I' for Inactive)
REMARK    1  A    between atoms: C_1  and  O_2
REMARK    2  A    between atoms: O_2  and  C_3
REMARK    3  A    between atoms: C_5  and  O_6
REMARK    4  A    between atoms: O_6  and  C_7
REMARK    5  A    between atoms: C_8  and  O_9
REMARK    6  A    between atoms: O_9  and  C_10
REMARK    7  A    between atoms: C_12  and  C_13
REMARK    8  A    between atoms: C_14  and  C_15
REMARK    9  A    between atoms: N_17  and  C_18
REMARK   10  A    between atoms: C_18  and  C_19
REMARK   11  A    between atoms: C_19  and  N_20
REMARK   12  A    between atoms: N_20  and  C_21
REMARK                            x       y       z     vdW  Elec       q    Type
REMARK                         _______ _______ _______ _____ _____    ______ ____
ROOT
ATOM      1  C   UNL     1       8.263   8.174  18.109  0.00  0.00    +0.000 C 
ATOM      2  O   UNL     1       8.587   7.311  18.924  0.00  0.00    +0.000 OA
ATOM      3  N   UNL     1       7.628   7.865  16.910  0.00  0.00    +0.000 N 
ATOM      4  H   UNL     1       7.218   8.604  16.356  0.00  0.00    +0.000 HD
ENDROOT
BRANCH   1   6
ATOM      5  C   UNL     1       9.295  10.036  19.414  0.00  0.00    +0.000 C 
ATOM      6  C   UNL     1       8.501   9.640  18.390  0.00  0.00    +0.000 C 
BRANCH   5  12
ATOM      7  C   UNL     1      10.422  12.308  19.091  0.00  0.00    +0.000 A 
ATOM      8  C   UNL     1      10.825  13.558  19.608  0.00  0.00    +0.000 A 
ATOM      9  C   UNL     1      10.414  14.006  20.853  0.00  0.00    +0.000 A 
ATOM     10  C   UNL     1       9.622  13.179  21.651  0.00  0.00    +0.000 A 
ATOM     11  C   UNL     1       9.261  11.890  21.159  0.00  0.00    +0.000 A 
ATOM     12  C   UNL     1       9.652  11.424  19.886  0.00  0.00    +0.000 A 
BRANCH   7  14
ATOM     13  C   UNL     1      11.319  12.968  16.993  0.00  0.00    +0.000 C 
ATOM     14  O   UNL     1      10.760  11.931  17.809  0.00  0.00    +0.000 OA
ENDBRANCH   7  14
BRANCH   9  15
ATOM     15  O   UNL     1      10.852  15.282  21.119  0.00  0.00    +0.000 OA
ATOM     16  C   UNL     1      10.462  16.333  20.261  0.00  0.00    +0.000 C 
ENDBRANCH   9  15
BRANCH  10  17
ATOM     17  O   UNL     1       9.169  13.720  22.811  0.00  0.00    +0.000 OA
ATOM     18  C   UNL     1       8.209  13.001  23.563  0.00  0.00    +0.000 C 
ENDBRANCH  10  17
ENDBRANCH   5  12
ENDBRANCH   1   6
BRANCH   3  19
ATOM     19  C   UNL     1       7.169   6.488  16.683  0.00  0.00    +0.000 C 
BRANCH  19  20
ATOM     20  C   UNL     1       5.861   5.993  17.308  0.00  0.00    +0.000 C 
BRANCH  20  21
ATOM     21  N   UNL     1       4.606   6.760  17.198  0.00  0.00    +0.000 N 
ATOM     22  H   UNL     1       4.910   7.623  17.685  0.00  0.00    +0.000 HD
BRANCH  21  23
ATOM     23  C   UNL     1       3.364   6.605  17.841  0.00  0.00    +0.000 A 
ATOM     24  C   UNL     1       2.631   7.792  17.880  0.00  0.00    +0.000 A 
ATOM     25  C   UNL     1       2.056   8.119  19.086  0.00  0.00    +0.000 A 
ATOM     26  N   UNL     1       2.062   7.295  20.149  0.00  0.00    +0.000 NA
ATOM     27  C   UNL     1       2.350   6.017  19.909  0.00  0.00    +0.000 A 
ATOM     28  C   UNL     1       1.962   5.096  20.860  0.00  0.00    +0.000 A 
ATOM     29  C   UNL     1       1.735   3.785  20.481  0.00  0.00    +0.000 A 
ATOM     30 CL   UNL     1       1.046   2.683  21.616  0.00  0.00    +0.000 Cl
ATOM     31  C   UNL     1       1.957   3.388  19.168  0.00  0.00    +0.000 A 
ATOM     32  C   UNL     1       2.601   4.263  18.280  0.00  0.00    +0.000 A 
ATOM     33  C   UNL     1       2.889   5.587  18.675  0.00  0.00    +0.000 A 
ENDBRANCH  21  23
ENDBRANCH  20  21
ENDBRANCH  19  20
ENDBRANCH   3  19
TORSDOF 9
ENDMDL
MODEL 2
REMARK VINA RESULT:      -8.0      6.385      7.991
REMARK  Name = 
REMARK  12 active torsions:
REMARK  status: ('A' for Active; 'I' for Inactive)
REMARK    1  A    between atoms: C_1  and  O_2
REMARK    2  A    between atoms: O_2  and  C_3
REMARK    3  A    between atoms: C_5  and  O_6
REMARK    4  A    between atoms: O_6  and  C_7
REMARK    5  A    between atoms: C_8  and  O_9
REMARK    6  A    between atoms: O_9  and  C_10
REMARK    7  A    between atoms: C_12  and  C_13
REMARK    8  A    between atoms: C_14  and  C_15
REMARK    9  A    between atoms: N_17  and  C_18
REMARK   10  A    between atoms: C_18  and  C_19
REMARK   11  A    between atoms: C_19  and  N_20
REMARK   12  A    between atoms: N_20  and  C_21
REMARK                            x       y       z     vdW  Elec       q    Type
REMARK                         _______ _______ _______ _____ _____    ______ ____
ROOT
ATOM      1  C   UNL     1       1.816   5.148  20.766  0.00  0.00    +0.000 C 
ATOM      2  O   UNL     1       2.508   4.511  21.560  0.00  0.00    +0.000 OA
ATOM      3  N   UNL     1       0.953   4.530  19.866  0.00  0.00    +0.000 N 
ATOM      4  H   UNL     1       0.274   5.083  19.363  0.00  0.00    +0.000 HD
ENDROOT
BRANCH   1   6
ATOM      5  C   UNL     1       0.700   7.373  20.962  0.00  0.00    +0.000 C 
ATOM      6  C   UNL     1       1.833   6.659  20.756  0.00  0.00    +0.000 C 
BRANCH   5  12
ATOM      7  C   UNL     1       0.756   9.670  19.841  0.00  0.00    +0.000 A 
ATOM      8  C   UNL     1       0.639  11.074  19.923  0.00  0.00    +0.000 A 
ATOM      9  C   UNL     1       0.166  11.708  21.062  0.00  0.00    +0.000 A 
ATOM     10  C   UNL     1      -0.153  10.945  22.186  0.00  0.00    +0.000 A 
ATOM     11  C   UNL     1       0.020   9.531  22.130  0.00  0.00    +0.000 A 
ATOM     12  C   UNL     1       0.480   8.866  20.974  0.00  0.00    +0.000 A 
BRANCH   7  14
ATOM     13  C   UNL     1       2.124   9.758  17.901  0.00  0.00    +0.000 C 
ATOM     14  O   UNL     1       1.131   9.059  18.664  0.00  0.00    +0.000 OA
ENDBRANCH   7  14
BRANCH   9  15
ATOM     15  O   UNL     1       0.053  13.067  20.893  0.00  0.00    +0.000 OA
ATOM     16  C   UNL     1       1.158  13.890  21.200  0.00  0.00    +0.000 C 
ENDBRANCH   9  15
BRANCH  10  17
ATOM     17  O   UNL     1      -0.709  11.616  23.227  0.00  0.00    +0.000 OA
ATOM     18  C   UNL     1      -2.117  11.758  23.268  0.00  0.00    +0.000 C 
ENDBRANCH  10  17
ENDBRANCH   5  12
ENDBRANCH   1   6
BRANCH   3  19
ATOM     19  C   UNL     1       0.725   3.083  19.981  0.00  0.00    +0.000 C 
BRANCH  19  20
ATOM     20  C   UNL     1       0.832   2.180  18.748  0.00  0.00    +0.000 C 
BRANCH  20  21
ATOM     21  N   UNL     1       1.963   2.280  17.806  0.00  0.00    +0.000 N 
ATOM     22  H   UNL     1       1.994   1.291  17.497  0.00  0.00    +0.000 HD
BRANCH  21  23
ATOM     23  C   UNL     1       3.341   2.456  18.026  0.00  0.00    +0.000 A 
ATOM     24  C   UNL     1       3.873   1.490  18.881  0.00  0.00    +0.000 A 
ATOM     25  C   UNL     1       4.698   1.945  19.883  0.00  0.00    +0.000 A 
ATOM     26  N   UNL     1       5.104   3.224  19.974  0.00  0.00    +0.000 NA
ATOM     27  C   UNL     1       4.955   3.975  18.886  0.00  0.00    +0.000 A 
ATOM     28  C   UNL     1       5.718   5.121  18.802  0.00  0.00    +0.000 A 
ATOM     29  C   UNL     1       6.026   5.641  17.558  0.00  0.00    +0.000 A 
ATOM     30 CL   UNL     1       7.153   6.943  17.439  0.00  0.00    +0.000 Cl
ATOM     31  C   UNL     1       5.517   5.051  16.408  0.00  0.00    +0.000 A 
ATOM     32  C   UNL     1       4.533   4.057  16.517  0.00  0.00    +0.000 A 
ATOM     33  C   UNL     1       4.170   3.557  17.787  0.00  0.00    +0.000 A 
ENDBRANCH  21  23
ENDBRANCH  20  21
ENDBRANCH  19  20
ENDBRANCH   3  19
TORSDOF 9
ENDMDL
MODEL 3
REMARK VINA RESULT:      -7.7      1.047      1.088
REMARK  Name = 
REMARK  12 active torsions:
REMARK  status: ('A' for Active; 'I' for Inactive)
REMARK    1  A    between atoms: C_1  and  O_2
REMARK    2  A    between atoms: O_2  and  C_3
REMARK    3  A    between atoms: C_5  and  O_6
REMARK    4  A    between atoms: O_6  and  C_7
REMARK    5  A    between atoms: C_8  and  O_9
REMARK    6  A    between atoms: O_9  and  C_10
REMARK    7  A    between atoms: C_12  and  C_13
REMARK    8  A    between atoms: C_14  and  C_15
REMARK    9  A    between atoms: N_17  and  C_18
REMARK   10  A    between atoms: C_18  and  C_19
REMARK   11  A    between atoms: C_19  and  N_20
REMARK   12  A    between atoms: N_20  and  C_21
REMARK                            x       y       z     vdW  Elec       q    Type
REMARK                         _______ _______ _______ _____ _____    ______ ____
ROOT
ATOM      1  C   UNL     1       7.830   7.687  17.687  0.00  0.00    +0.000 C 
ATOM      2  O   UNL     1       8.194   7.483  16.529  0.00  0.00    +0.000 OA
ATOM      3  N   UNL     1       7.322   6.677  18.499  0.00  0.00    +0.000 N 
ATOM      4  H   UNL     1       7.207   6.841  19.489  0.00  0.00    +0.000 HD
ENDROOT
BRANCH   1   6
ATOM      5  C   UNL     1       9.127   9.468  18.863  0.00  0.00    +0.000 C 
ATOM      6  C   UNL     1       7.959   9.057  18.313  0.00  0.00    +0.000 C 
BRANCH   5  12
ATOM      7  C   UNL     1      10.239  11.770  18.909  0.00  0.00    +0.000 A 
ATOM      8  C   UNL     1      10.633  12.924  19.621  0.00  0.00    +0.000 A 
ATOM      9  C   UNL     1      10.217  13.164  20.921  0.00  0.00    +0.000 A 
ATOM     10  C   UNL     1       9.430  12.215  21.573  0.00  0.00    +0.000 A 
ATOM     11  C   UNL     1       9.078  11.019  20.881  0.00  0.00    +0.000 A 
ATOM     12  C   UNL     1       9.474  10.765  19.551  0.00  0.00    +0.000 A 
BRANCH   7  14
ATOM     13  C   UNL     1      10.917  12.809  16.884  0.00  0.00    +0.000 C 
ATOM     14  O   UNL     1      10.582  11.604  17.585  0.00  0.00    +0.000 OA
ENDBRANCH   7  14
BRANCH   9  15
ATOM     15  O   UNL     1      10.647  14.383  21.388  0.00  0.00    +0.000 OA
ATOM     16  C   UNL     1      10.327  15.549  20.657  0.00  0.00    +0.000 C 
ENDBRANCH   9  15
BRANCH  10  17
ATOM     17  O   UNL     1       8.970  12.561  22.804  0.00  0.00    +0.000 OA
ATOM     18  C   UNL     1       7.992  11.741  23.416  0.00  0.00    +0.000 C 
ENDBRANCH  10  17
ENDBRANCH   5  12
ENDBRANCH   1   6
BRANCH   3  19
ATOM     19  C   UNL     1       7.383   5.288  18.026  0.00  0.00    +0.000 C 
BRANCH  19  20
ATOM     20  C   UNL     1       6.277   4.724  17.129  0.00  0.00    +0.000 C 
BRANCH  20  21
ATOM     21  N   UNL     1       5.046   5.484  16.840  0.00  0.00    +0.000 N 
ATOM     22  H   UNL     1       5.397   6.434  17.058  0.00  0.00    +0.000 HD
BRANCH  21  23
ATOM     23  C   UNL     1       3.824   5.568  17.530  0.00  0.00    +0.000 A 
ATOM     24  C   UNL     1       3.239   6.831  17.429  0.00  0.00    +0.000 A 
ATOM     25  C   UNL     1       2.759   7.381  18.595  0.00  0.00    +0.000 A 
ATOM     26  N   UNL     1       2.712   6.707  19.758  0.00  0.00    +0.000 NA
ATOM     27  C   UNL     1       2.836   5.384  19.685  0.00  0.00    +0.000 A 
ATOM     28  C   UNL     1       2.382   4.649  20.761  0.00  0.00    +0.000 A 
ATOM     29  C   UNL     1       1.985   3.338  20.567  0.00  0.00    +0.000 A 
ATOM     30 CL   UNL     1       1.219   2.486  21.857  0.00  0.00    +0.000 Cl
ATOM     31  C   UNL     1       2.102   2.750  19.314  0.00  0.00    +0.000 A 
ATOM     32  C   UNL     1       2.807   3.415  18.300  0.00  0.00    +0.000 A 
ATOM     33  C   UNL     1       3.267   4.734  18.506  0.00  0.00    +0.000 A 
ENDBRANCH  21  23
ENDBRANCH  20  21
ENDBRANCH  19  20
ENDBRANCH   3  19
TORSDOF 9
ENDMDL
MODEL 4
REMARK VINA RESULT:      -7.7      6.820     10.254
REMARK  Name = 
REMARK  12 active torsions:
REMARK  status: ('A' for Active; 'I' for Inactive)
REMARK    1  A    between atoms: C_1  and  O_2
REMARK    2  A    between atoms: O_2  and  C_3
REMARK    3  A    between atoms: C_5  and  O_6
REMARK    4  A    between atoms: O_6  and  C_7
REMARK    5  A    between atoms: C_8  and  O_9
REMARK    6  A    between atoms: O_9  and  C_10
REMARK    7  A    between atoms: C_12  and  C_13
REMARK    8  A    between atoms: C_14  and  C_15
REMARK    9  A    between atoms: N_17  and  C_18
REMARK   10  A    between atoms: C_18  and  C_19
REMARK   11  A    between atoms: C_19  and  N_20
REMARK   12  A    between atoms: N_20  and  C_21
REMARK                            x       y       z     vdW  Elec       q    Type
REMARK                         _______ _______ _______ _____ _____    ______ ____
ROOT
ATOM      1  C   UNL     1       1.324  10.032  18.602  0.00  0.00    +0.000 C 
ATOM      2  O   UNL     1       0.700  10.091  19.660  0.00  0.00    +0.000 OA
ATOM      3  N   UNL     1       1.685  11.169  17.885  0.00  0.00    +0.000 N 
ATOM      4  H   UNL     1       2.347  11.092  17.125  0.00  0.00    +0.000 HD
ENDROOT
BRANCH   1   6
ATOM      5  C   UNL     1       2.413   7.795  18.813  0.00  0.00    +0.000 C 
ATOM      6  C   UNL     1       1.776   8.705  18.037  0.00  0.00    +0.000 C 
BRANCH   5  12
ATOM      7  C   UNL     1       2.435   5.247  19.024  0.00  0.00    +0.000 A 
ATOM      8  C   UNL     1       3.044   4.003  18.755  0.00  0.00    +0.000 A 
ATOM      9  C   UNL     1       4.106   3.879  17.873  0.00  0.00    +0.000 A 
ATOM     10  C   UNL     1       4.631   5.022  17.270  0.00  0.00    +0.000 A 
ATOM     11  C   UNL     1       4.059   6.290  17.584  0.00  0.00    +0.000 A 
ATOM     12  C   UNL     1       2.965   6.435  18.463  0.00  0.00    +0.000 A 
BRANCH   7  14
ATOM     13  C   UNL     1       0.843   4.078  20.345  0.00  0.00    +0.000 C 
ATOM     14  O   UNL     1       1.316   5.328  19.826  0.00  0.00    +0.000 OA
ENDBRANCH   7  14
BRANCH   9  15
ATOM     15  O   UNL     1       4.486   2.570  17.696  0.00  0.00    +0.000 OA
ATOM     16  C   UNL     1       3.679   1.543  18.233  0.00  0.00    +0.000 C 
ENDBRANCH   9  15
BRANCH  10  17
ATOM     17  O   UNL     1       5.598   4.819  16.339  0.00  0.00    +0.000 OA
ATOM     18  C   UNL     1       5.474   5.460  15.083  0.00  0.00    +0.000 C 
ENDBRANCH  10  17
ENDBRANCH   5  12
ENDBRANCH   1   6
BRANCH   3  19
ATOM     19  C   UNL     1       1.473  12.489  18.493  0.00  0.00    +0.000 C 
BRANCH  19  20
ATOM     20  C   UNL     1       0.070  13.100  18.554  0.00  0.00    +0.000 C 
BRANCH  20  21
ATOM     21  N   UNL     1      -1.007  12.668  17.642  0.00  0.00    +0.000 N 
ATOM     22  H   UNL     1      -1.549  13.551  17.614  0.00  0.00    +0.000 HD
BRANCH  21  23
ATOM     23  C   UNL     1      -2.087  11.786  17.834  0.00  0.00    +0.000 A 
ATOM     24  C   UNL     1      -1.934  10.592  17.129  0.00  0.00    +0.000 A 
ATOM     25  C   UNL     1      -3.030  10.151  16.425  0.00  0.00    +0.000 A 
ATOM     26  N   UNL     1      -4.238  10.736  16.505  0.00  0.00    +0.000 NA
ATOM     27  C   UNL     1      -4.434  11.556  17.535  0.00  0.00    +0.000 A 
ATOM     28  C   UNL     1      -5.741  11.831  17.881  0.00  0.00    +0.000 A 
ATOM     29  C   UNL     1      -6.035  12.200  19.181  0.00  0.00    +0.000 A 
ATOM     30 CL   UNL     1      -7.685  12.334  19.671  0.00  0.00    +0.000 Cl
ATOM     31  C   UNL     1      -5.016  12.354  20.112  0.00  0.00    +0.000 A 
ATOM     32  C   UNL     1      -3.679  12.333  19.685  0.00  0.00    +0.000 A 
ATOM     33  C   UNL     1      -3.369  12.012  18.346  0.00  0.00    +0.000 A 
ENDBRANCH  21  23
ENDBRANCH  20  21
ENDBRANCH  19  20
ENDBRANCH   3  19
TORSDOF 9
ENDMDL
MODEL 5
REMARK VINA RESULT:      -7.6      6.442     10.305
REMARK  Name = 
REMARK  12 active torsions:
REMARK  status: ('A' for Active; 'I' for Inactive)
REMARK    1  A    between atoms: C_1  and  O_2
REMARK    2  A    between atoms: O_2  and  C_3
REMARK    3  A    between atoms: C_5  and  O_6
REMARK    4  A    between atoms: O_6  and  C_7
REMARK    5  A    between atoms: C_8  and  O_9
REMARK    6  A    between atoms: O_9  and  C_10
REMARK    7  A    between atoms: C_12  and  C_13
REMARK    8  A    between atoms: C_14  and  C_15
REMARK    9  A    between atoms: N_17  and  C_18
REMARK   10  A    between atoms: C_18  and  C_19
REMARK   11  A    between atoms: C_19  and  N_20
REMARK   12  A    between atoms: N_20  and  C_21
REMARK                            x       y       z     vdW  Elec       q    Type
REMARK                         _______ _______ _______ _____ _____    ______ ____
ROOT
ATOM      1  C   UNL     1       1.501   9.454  18.059  0.00  0.00    +0.000 C 
ATOM      2  O   UNL     1       2.424   9.976  17.436  0.00  0.00    +0.000 OA
ATOM      3  N   UNL     1       1.552   8.135  18.502  0.00  0.00    +0.000 N 
ATOM      4  H   UNL     1       0.862   7.801  19.160  0.00  0.00    +0.000 HD
ENDROOT
BRANCH   1   6
ATOM      5  C   UNL     1      -0.919  10.013  17.799  0.00  0.00    +0.000 C 
ATOM      6  C   UNL     1       0.263  10.241  18.422  0.00  0.00    +0.000 C 
BRANCH   5  12
ATOM      7  C   UNL     1      -3.332  10.462  17.083  0.00  0.00    +0.000 A 
ATOM      8  C   UNL     1      -4.535  11.187  17.224  0.00  0.00    +0.000 A 
ATOM      9  C   UNL     1      -4.750  12.056  18.282  0.00  0.00    +0.000 A 
ATOM     10  C   UNL     1      -3.730  12.270  19.210  0.00  0.00    +0.000 A 
ATOM     11  C   UNL     1      -2.490  11.587  19.039  0.00  0.00    +0.000 A 
ATOM     12  C   UNL     1      -2.258  10.683  17.981  0.00  0.00    +0.000 A 
BRANCH   7  14
ATOM     13  C   UNL     1      -3.114  10.062  14.752  0.00  0.00    +0.000 C 
ATOM     14  O   UNL     1      -3.182   9.528  16.080  0.00  0.00    +0.000 OA
ENDBRANCH   7  14
BRANCH   9  15
ATOM     15  O   UNL     1      -6.018  12.586  18.271  0.00  0.00    +0.000 OA
ATOM     16  C   UNL     1      -7.096  11.797  18.729  0.00  0.00    +0.000 C 
ENDBRANCH   9  15
BRANCH  10  17
ATOM     17  O   UNL     1      -4.044  13.050  20.277  0.00  0.00    +0.000 OA
ATOM     18  C   UNL     1      -4.446  12.422  21.479  0.00  0.00    +0.000 C 
ENDBRANCH  10  17
ENDBRANCH   5  12
ENDBRANCH   1   6
BRANCH   3  19
ATOM     19  C   UNL     1       2.813   7.392  18.378  0.00  0.00    +0.000 C 
BRANCH  19  20
ATOM     20  C   UNL     1       3.054   6.128  19.209  0.00  0.00    +0.000 C 
BRANCH  20  21
ATOM     21  N   UNL     1       4.411   5.700  19.598  0.00  0.00    +0.000 N 
ATOM     22  H   UNL     1       4.799   6.628  19.850  0.00  0.00    +0.000 HD
BRANCH  21  23
ATOM     23  C   UNL     1       5.496   5.241  18.829  0.00  0.00    +0.000 A 
ATOM     24  C   UNL     1       6.726   5.491  19.439  0.00  0.00    +0.000 A 
ATOM     25  C   UNL     1       7.710   6.024  18.638  0.00  0.00    +0.000 A 
ATOM     26  N   UNL     1       7.572   6.174  17.309  0.00  0.00    +0.000 NA
ATOM     27  C   UNL     1       6.586   5.492  16.732  0.00  0.00    +0.000 A 
ATOM     28  C   UNL     1       6.674   5.289  15.370  0.00  0.00    +0.000 A 
ATOM     29  C   UNL     1       6.035   4.200  14.805  0.00  0.00    +0.000 A 
ATOM     30 CL   UNL     1       6.317   3.821  13.145  0.00  0.00    +0.000 Cl
ATOM     31  C   UNL     1       5.261   3.357  15.591  0.00  0.00    +0.000 A 
ATOM     32  C   UNL     1       4.963   3.722  16.913  0.00  0.00    +0.000 A 
ATOM     33  C   UNL     1       5.566   4.865  17.484  0.00  0.00    +0.000 A 
ENDBRANCH  21  23
ENDBRANCH  20  21
ENDBRANCH  19  20
ENDBRANCH   3  19
TORSDOF 9
ENDMDL
MODEL 6
REMARK VINA RESULT:      -7.4      2.253      2.673
REMARK  Name = 
REMARK  12 active torsions:
REMARK  status: ('A' for Active; 'I' for Inactive)
REMARK    1  A    between atoms: C_1  and  O_2
REMARK    2  A    between atoms: O_2  and  C_3
REMARK    3  A    between atoms: C_5  and  O_6
REMARK    4  A    between atoms: O_6  and  C_7
REMARK    5  A    between atoms: C_8  and  O_9
REMARK    6  A    between atoms: O_9  and  C_10
REMARK    7  A    between atoms: C_12  and  C_13
REMARK    8  A    between atoms: C_14  and  C_15
REMARK    9  A    between atoms: N_17  and  C_18
REMARK   10  A    between atoms: C_18  and  C_19
REMARK   11  A    between atoms: C_19  and  N_20
REMARK   12  A    between atoms: N_20  and  C_21
REMARK                            x       y       z     vdW  Elec       q    Type
REMARK                         _______ _______ _______ _____ _____    ______ ____
ROOT
ATOM      1  C   UNL     1       7.944   8.402  17.836  0.00  0.00    +0.000 C 
ATOM      2  O   UNL     1       6.948   8.027  17.218  0.00  0.00    +0.000 OA
ATOM      3  N   UNL     1       8.540   7.631  18.829  0.00  0.00    +0.000 N 
ATOM      4  H   UNL     1       9.452   7.886  19.182  0.00  0.00    +0.000 HD
ENDROOT
BRANCH   1   6
ATOM      5  C   UNL     1       8.556  10.762  18.380  0.00  0.00    +0.000 C 
ATOM      6  C   UNL     1       8.609   9.721  17.514  0.00  0.00    +0.000 C 
BRANCH   5  12
ATOM      7  C   UNL     1      10.499  12.422  18.449  0.00  0.00    +0.000 A 
ATOM      8  C   UNL     1      10.972  13.751  18.434  0.00  0.00    +0.000 A 
ATOM      9  C   UNL     1      10.144  14.824  18.144  0.00  0.00    +0.000 A 
ATOM     10  C   UNL     1       8.787  14.597  17.915  0.00  0.00    +0.000 A 
ATOM     11  C   UNL     1       8.289  13.263  17.988  0.00  0.00    +0.000 A 
ATOM     12  C   UNL     1       9.120  12.155  18.261  0.00  0.00    +0.000 A 
BRANCH   7  14
ATOM     13  C   UNL     1      12.328  11.543  19.684  0.00  0.00    +0.000 C 
ATOM     14  O   UNL     1      11.363  11.365  18.638  0.00  0.00    +0.000 OA
ENDBRANCH   7  14
BRANCH   9  15
ATOM     15  O   UNL     1      10.830  16.014  18.099  0.00  0.00    +0.000 OA
ATOM     16  C   UNL     1      11.780  16.296  19.106  0.00  0.00    +0.000 C 
ENDBRANCH   9  15
BRANCH  10  17
ATOM     17  O   UNL     1       8.055  15.676  17.534  0.00  0.00    +0.000 OA
ATOM     18  C   UNL     1       7.560  16.546  18.534  0.00  0.00    +0.000 C 
ENDBRANCH  10  17
ENDBRANCH   5  12
ENDBRANCH   1   6
BRANCH   3  19
ATOM     19  C   UNL     1       8.079   6.250  19.029  0.00  0.00    +0.000 C 
BRANCH  19  20
ATOM     20  C   UNL     1       7.690   5.380  17.830  0.00  0.00    +0.000 C 
BRANCH  20  21
ATOM     21  N   UNL     1       6.634   4.354  17.924  0.00  0.00    +0.000 N 
ATOM     22  H   UNL     1       6.672   4.005  16.949  0.00  0.00    +0.000 HD
BRANCH  21  23
ATOM     23  C   UNL     1       5.236   4.468  18.032  0.00  0.00    +0.000 A 
ATOM     24  C   UNL     1       4.722   5.501  17.248  0.00  0.00    +0.000 A 
ATOM     25  C   UNL     1       3.808   6.333  17.852  0.00  0.00    +0.000 A 
ATOM     26  N   UNL     1       3.310   6.107  19.080  0.00  0.00    +0.000 NA
ATOM     27  C   UNL     1       3.472   4.881  19.571  0.00  0.00    +0.000 A 
ATOM     28  C   UNL     1       2.637   4.500  20.601  0.00  0.00    +0.000 A 
ATOM     29  C   UNL     1       2.370   3.157  20.796  0.00  0.00    +0.000 A 
ATOM     30 CL   UNL     1       1.164   2.690  21.939  0.00  0.00    +0.000 Cl
ATOM     31  C   UNL     1       2.986   2.199  20.002  0.00  0.00    +0.000 A 
ATOM     32  C   UNL     1       4.029   2.578  19.142  0.00  0.00    +0.000 A 
ATOM     33  C   UNL     1       4.348   3.943  18.977  0.00  0.00    +0.000 A 
ENDBRANCH  21  23
ENDBRANCH  20  21
ENDBRANCH  19  20
ENDBRANCH   3  19
TORSDOF 9
ENDMDL
MODEL 7
REMARK VINA RESULT:      -7.4      1.865      2.274
REMARK  Name = 
REMARK  12 active torsions:
REMARK  status: ('A' for Active; 'I' for Inactive)
REMARK    1  A    between atoms: C_1  and  O_2
REMARK    2  A    between atoms: O_2  and  C_3
REMARK    3  A    between atoms: C_5  and  O_6
REMARK    4  A    between atoms: O_6  and  C_7
REMARK    5  A    between atoms: C_8  and  O_9
REMARK    6  A    between atoms: O_9  and  C_10
REMARK    7  A    between atoms: C_12  and  C_13
REMARK    8  A    between atoms: C_14  and  C_15
REMARK    9  A    between atoms: N_17  and  C_18
REMARK   10  A    between atoms: C_18  and  C_19
REMARK   11  A    between atoms: C_19  and  N_20
REMARK   12  A    between atoms: N_20  and  C_21
REMARK                            x       y       z     vdW  Elec       q    Type
REMARK                         _______ _______ _______ _____ _____    ______ ____
ROOT
ATOM      1  C   UNL     1       7.955   7.731  17.823  0.00  0.00    +0.000 C 
ATOM      2  O   UNL     1       8.297   6.995  18.747  0.00  0.00    +0.000 OA
ATOM      3  N   UNL     1       7.636   7.243  16.559  0.00  0.00    +0.000 N 
ATOM      4  H   UNL     1       7.189   7.849  15.886  0.00  0.00    +0.000 HD
ENDROOT
BRANCH   1   6
ATOM      5  C   UNL     1       8.910  10.023  18.098  0.00  0.00    +0.000 C 
ATOM      6  C   UNL     1       7.818   9.223  18.024  0.00  0.00    +0.000 C 
BRANCH   5  12
ATOM      7  C   UNL     1      10.027  12.083  19.120  0.00  0.00    +0.000 A 
ATOM      8  C   UNL     1      10.027  13.469  19.384  0.00  0.00    +0.000 A 
ATOM      9  C   UNL     1       9.109  14.330  18.802  0.00  0.00    +0.000 A 
ATOM     10  C   UNL     1       8.116  13.810  17.971  0.00  0.00    +0.000 A 
ATOM     11  C   UNL     1       8.073  12.402  17.747  0.00  0.00    +0.000 A 
ATOM     12  C   UNL     1       9.010  11.512  18.314  0.00  0.00    +0.000 A 
BRANCH   7  14
ATOM     13  C   UNL     1      12.332  11.509  19.124  0.00  0.00    +0.000 C 
ATOM     14  O   UNL     1      11.013  11.265  19.630  0.00  0.00    +0.000 OA
ENDBRANCH   7  14
BRANCH   9  15
ATOM     15  O   UNL     1       9.346  15.643  19.130  0.00  0.00    +0.000 OA
ATOM     16  C   UNL     1      10.027  16.468  18.208  0.00  0.00    +0.000 C 
ENDBRANCH   9  15
BRANCH  10  17
ATOM     17  O   UNL     1       7.317  14.716  17.352  0.00  0.00    +0.000 OA
ATOM     18  C   UNL     1       6.126  15.122  17.999  0.00  0.00    +0.000 C 
ENDBRANCH  10  17
ENDBRANCH   5  12
ENDBRANCH   1   6
BRANCH   3  19
ATOM     19  C   UNL     1       7.532   5.790  16.365  0.00  0.00    +0.000 C 
BRANCH  19  20
ATOM     20  C   UNL     1       6.365   5.007  16.975  0.00  0.00    +0.000 C 
BRANCH  20  21
ATOM     21  N   UNL     1       5.542   5.561  18.066  0.00  0.00    +0.000 N 
ATOM     22  H   UNL     1       5.913   4.987  18.846  0.00  0.00    +0.000 HD
BRANCH  21  23
ATOM     23  C   UNL     1       4.173   5.421  18.359  0.00  0.00    +0.000 A 
ATOM     24  C   UNL     1       3.409   6.476  17.861  0.00  0.00    +0.000 A 
ATOM     25  C   UNL     1       2.486   7.025  18.721  0.00  0.00    +0.000 A 
ATOM     26  N   UNL     1       2.210   6.505  19.930  0.00  0.00    +0.000 NA
ATOM     27  C   UNL     1       2.614   5.255  20.146  0.00  0.00    +0.000 A 
ATOM     28  C   UNL     1       2.001   4.565  21.171  0.00  0.00    +0.000 A 
ATOM     29  C   UNL     1       1.957   3.183  21.126  0.00  0.00    +0.000 A 
ATOM     30 CL   UNL     1       1.010   2.328  22.288  0.00  0.00    +0.000 Cl
ATOM     31  C   UNL     1       2.579   2.497  20.091  0.00  0.00    +0.000 A 
ATOM     32  C   UNL     1       3.420   3.190  19.207  0.00  0.00    +0.000 A 
ATOM     33  C   UNL     1       3.517   4.597  19.280  0.00  0.00    +0.000 A 
ENDBRANCH  21  23
ENDBRANCH  20  21
ENDBRANCH  19  20
ENDBRANCH   3  19
TORSDOF 9
ENDMDL
MODEL 8
REMARK VINA RESULT:      -7.4      1.627      2.828
REMARK  Name = 
REMARK  12 active torsions:
REMARK  status: ('A' for Active; 'I' for Inactive)
REMARK    1  A    between atoms: C_1  and  O_2
REMARK    2  A    between atoms: O_2  and  C_3
REMARK    3  A    between atoms: C_5  and  O_6
REMARK    4  A    between atoms: O_6  and  C_7
REMARK    5  A    between atoms: C_8  and  O_9
REMARK    6  A    between atoms: O_9  and  C_10
REMARK    7  A    between atoms: C_12  and  C_13
REMARK    8  A    between atoms: C_14  and  C_15
REMARK    9  A    between atoms: N_17  and  C_18
REMARK   10  A    between atoms: C_18  and  C_19
REMARK   11  A    between atoms: C_19  and  N_20
REMARK   12  A    between atoms: N_20  and  C_21
REMARK                            x       y       z     vdW  Elec       q    Type
REMARK                         _______ _______ _______ _____ _____    ______ ____
ROOT
ATOM      1  C   UNL     1       7.828   8.485  17.874  0.00  0.00    +0.000 C 
ATOM      2  O   UNL     1       6.926   8.846  17.119  0.00  0.00    +0.000 OA
ATOM      3  N   UNL     1       8.159   7.145  18.054  0.00  0.00    +0.000 N 
ATOM      4  H   UNL     1       9.013   6.900  18.534  0.00  0.00    +0.000 HD
ENDROOT
BRANCH   1   6
ATOM      5  C   UNL     1       8.905  10.726  18.111  0.00  0.00    +0.000 C 
ATOM      6  C   UNL     1       8.666   9.494  18.624  0.00  0.00    +0.000 C 
BRANCH   5  12
ATOM      7  C   UNL     1       9.742  12.165  20.051  0.00  0.00    +0.000 A 
ATOM      8  C   UNL     1      10.430  13.305  20.520  0.00  0.00    +0.000 A 
ATOM      9  C   UNL     1      11.175  14.114  19.677  0.00  0.00    +0.000 A 
ATOM     10  C   UNL     1      11.208  13.831  18.311  0.00  0.00    +0.000 A 
ATOM     11  C   UNL     1      10.467  12.716  17.821  0.00  0.00    +0.000 A 
ATOM     12  C   UNL     1       9.718  11.869  18.665  0.00  0.00    +0.000 A 
BRANCH   7  14
ATOM     13  C   UNL     1       8.679  11.920  22.161  0.00  0.00    +0.000 C 
ATOM     14  O   UNL     1       9.093  11.321  20.926  0.00  0.00    +0.000 OA
ENDBRANCH   7  14
BRANCH   9  15
ATOM     15  O   UNL     1      11.828  15.114  20.357  0.00  0.00    +0.000 OA
ATOM     16  C   UNL     1      11.105  16.262  20.749  0.00  0.00    +0.000 C 
ENDBRANCH   9  15
BRANCH  10  17
ATOM     17  O   UNL     1      12.040  14.598  17.559  0.00  0.00    +0.000 OA
ATOM     18  C   UNL     1      11.528  15.782  16.978  0.00  0.00    +0.000 C 
ENDBRANCH  10  17
ENDBRANCH   5  12
ENDBRANCH   1   6
BRANCH   3  19
ATOM     19  C   UNL     1       7.535   6.137  17.186  0.00  0.00    +0.000 C 
BRANCH  19  20
ATOM     20  C   UNL     1       7.190   4.748  17.733  0.00  0.00    +0.000 C 
BRANCH  20  21
ATOM     21  N   UNL     1       5.932   4.063  17.381  0.00  0.00    +0.000 N 
ATOM     22  H   UNL     1       5.863   4.367  16.392  0.00  0.00    +0.000 HD
BRANCH  21  23
ATOM     23  C   UNL     1       4.600   4.320  17.753  0.00  0.00    +0.000 A 
ATOM     24  C   UNL     1       4.106   5.498  17.191  0.00  0.00    +0.000 A 
ATOM     25  C   UNL     1       3.425   6.342  18.038  0.00  0.00    +0.000 A 
ATOM     26  N   UNL     1       3.113   6.016  19.304  0.00  0.00    +0.000 NA
ATOM     27  C   UNL     1       3.189   4.726  19.623  0.00  0.00    +0.000 A 
ATOM     28  C   UNL     1       2.494   4.312  20.740  0.00  0.00    +0.000 A 
ATOM     29  C   UNL     1       2.085   2.994  20.833  0.00  0.00    +0.000 A 
ATOM     30 CL   UNL     1       1.035   2.522  22.120  0.00  0.00    +0.000 Cl
ATOM     31  C   UNL     1       2.427   2.083  19.842  0.00  0.00    +0.000 A 
ATOM     32  C   UNL     1       3.352   2.450  18.853  0.00  0.00    +0.000 A 
ATOM     33  C   UNL     1       3.820   3.781  18.782  0.00  0.00    +0.000 A 
ENDBRANCH  21  23
ENDBRANCH  20  21
ENDBRANCH  19  20
ENDBRANCH   3  19
TORSDOF 9
ENDMDL
MODEL 9
REMARK VINA RESULT:      -7.3      6.402     10.294
REMARK  Name = 
REMARK  12 active torsions:
REMARK  status: ('A' for Active; 'I' for Inactive)
REMARK    1  A    between atoms: C_1  and  O_2
REMARK    2  A    between atoms: O_2  and  C_3
REMARK    3  A    between atoms: C_5  and  O_6
REMARK    4  A    between atoms: O_6  and  C_7
REMARK    5  A    between atoms: C_8  and  O_9
REMARK    6  A    between atoms: O_9  and  C_10
REMARK    7  A    between atoms: C_12  and  C_13
REMARK    8  A    between atoms: C_14  and  C_15
REMARK    9  A    between atoms: N_17  and  C_18
REMARK   10  A    between atoms: C_18  and  C_19
REMARK   11  A    between atoms: C_19  and  N_20
REMARK   12  A    between atoms: N_20  and  C_21
REMARK                            x       y       z     vdW  Elec       q    Type
REMARK                         _______ _______ _______ _____ _____    ______ ____
ROOT
ATOM      1  C   UNL     1       0.796   9.904  18.824  0.00  0.00    +0.000 C 
ATOM      2  O   UNL     1       0.831  10.072  20.043  0.00  0.00    +0.000 OA
ATOM      3  N   UNL     1      -0.214  10.436  18.027  0.00  0.00    +0.000 N 
ATOM      4  H   UNL     1      -0.113  10.433  17.022  0.00  0.00    +0.000 HD
ENDROOT
BRANCH   1   6
ATOM      5  C   UNL     1       2.201   7.871  18.468  0.00  0.00    +0.000 C 
ATOM      6  C   UNL     1       1.887   9.140  18.111  0.00  0.00    +0.000 C 
BRANCH   5  12
ATOM      7  C   UNL     1       3.016   5.549  17.774  0.00  0.00    +0.000 A 
ATOM      8  C   UNL     1       4.057   4.692  17.357  0.00  0.00    +0.000 A 
ATOM      9  C   UNL     1       5.302   5.175  16.985  0.00  0.00    +0.000 A 
ATOM     10  C   UNL     1       5.560   6.543  17.077  0.00  0.00    +0.000 A 
ATOM     11  C   UNL     1       4.532   7.407  17.555  0.00  0.00    +0.000 A 
ATOM     12  C   UNL     1       3.252   6.939  17.919  0.00  0.00    +0.000 A 
BRANCH   7  14
ATOM     13  C   UNL     1       1.656   3.625  18.079  0.00  0.00    +0.000 C 
ATOM     14  O   UNL     1       1.757   5.055  18.040  0.00  0.00    +0.000 OA
ENDBRANCH   7  14
BRANCH   9  15
ATOM     15  O   UNL     1       6.133   4.178  16.533  0.00  0.00    +0.000 OA
ATOM     16  C   UNL     1       5.954   3.678  15.224  0.00  0.00    +0.000 C 
ENDBRANCH   9  15
BRANCH  10  17
ATOM     17  O   UNL     1       6.761   6.960  16.599  0.00  0.00    +0.000 OA
ATOM     18  C   UNL     1       7.643   7.634  17.477  0.00  0.00    +0.000 C 
ENDBRANCH  10  17
ENDBRANCH   5  12
ENDBRANCH   1   6
BRANCH   3  19
ATOM     19  C   UNL     1      -1.174  11.372  18.627  0.00  0.00    +0.000 C 
BRANCH  19  20
ATOM     20  C   UNL     1      -2.637  11.383  18.172  0.00  0.00    +0.000 C 
BRANCH  20  21
ATOM     21  N   UNL     1      -3.619  12.330  18.732  0.00  0.00    +0.000 N 
ATOM     22  H   UNL     1      -2.989  13.140  18.873  0.00  0.00    +0.000 HD
BRANCH  21  23
ATOM     23  C   UNL     1      -4.263  12.367  19.983  0.00  0.00    +0.000 A 
ATOM     24  C   UNL     1      -5.633  12.120  19.886  0.00  0.00    +0.000 A 
ATOM     25  C   UNL     1      -6.460  12.968  20.585  0.00  0.00    +0.000 A 
ATOM     26  N   UNL     1      -6.002  13.903  21.436  0.00  0.00    +0.000 NA
ATOM     27  C   UNL     1      -4.740  13.775  21.838  0.00  0.00    +0.000 A 
ATOM     28  C   UNL     1      -4.377  14.436  22.993  0.00  0.00    +0.000 A 
ATOM     29  C   UNL     1      -3.320  13.957  23.745  0.00  0.00    +0.000 A 
ATOM     30 CL   UNL     1      -3.000  14.649  25.294  0.00  0.00    +0.000 Cl
ATOM     31  C   UNL     1      -2.591  12.859  23.307  0.00  0.00    +0.000 A 
ATOM     32  C   UNL     1      -2.797  12.363  22.011  0.00  0.00    +0.000 A 
ATOM     33  C   UNL     1      -3.839  12.883  21.212  0.00  0.00    +0.000 A 
ENDBRANCH  21  23
ENDBRANCH  20  21
ENDBRANCH  19  20
ENDBRANCH   3  19
TORSDOF 9
ENDMDL
