MODEL 1
REMARK VINA RESULT:      -6.5      0.000      0.000
REMARK  Name = 
REMARK  1 active torsions:
REMARK  status: ('A' for Active; 'I' for Inactive)
REMARK    1  A    between atoms: C_2  and  C_9
REMARK                            x       y       z     vdW  Elec       q    Type
REMARK                         _______ _______ _______ _____ _____    ______ ____
ROOT
ATOM      1  O   UNL     1       4.525   3.335  19.241  0.00  0.00    +0.000 OA
ATOM      2  C   UNL     1       4.206   3.957  18.233  0.00  0.00    +0.000 C 
ATOM      3  N   UNL     1       4.914   4.975  17.640  0.00  0.00    +0.000 N 
ATOM      4  C   UNL     1       6.096   5.444  18.139  0.00  0.00    +0.000 A 
ATOM      5  N   UNL     1       6.825   4.988  19.123  0.00  0.00    +0.000 NA
ATOM      6  C   UNL     1       7.913   5.815  19.310  0.00  0.00    +0.000 A 
ATOM      7  C   UNL     1       7.999   6.885  18.444  0.00  0.00    +0.000 A 
ATOM      8  S   UNL     1       6.682   6.840  17.344  0.00  0.00    +0.000 S 
ATOM      9  H   UNL     1       4.481   5.498  16.886  0.00  0.00    +0.000 HD
ENDROOT
BRANCH   2  10
ATOM     10  C   UNL     1       2.912   3.593  17.499  0.00  0.00    +0.000 C 
ATOM     11  C   UNL     1       1.707   4.411  17.981  0.00  0.00    +0.000 C 
ATOM     12  C   UNL     1       1.040   3.837  19.231  0.00  0.00    +0.000 C 
ATOM     13  C   UNL     1       0.839   2.327  19.134  0.00  0.00    +0.000 C 
ATOM     14  N   UNL     1       2.106   1.649  18.840  0.00  0.00    +0.000 NA
ATOM     15  C   UNL     1       2.637   2.089  17.538  0.00  0.00    +0.000 C 
ATOM     16  H   UNL     1       1.924   0.643  18.785  0.00  0.00    +0.000 HD
ENDBRANCH   2  10
TORSDOF 1
ENDMDL
MODEL 2
REMARK VINA RESULT:      -6.3      2.688      5.250
REMARK  Name = 
REMARK  1 active torsions:
REMARK  status: ('A' for Active; 'I' for Inactive)
REMARK    1  A    between atoms: C_2  and  C_9
REMARK                            x       y       z     vdW  Elec       q    Type
REMARK                         _______ _______ _______ _____ _____    ______ ____
ROOT
ATOM      1  O   UNL     1       5.773   3.701  19.227  0.00  0.00    +0.000 OA
ATOM      2  C   UNL     1       5.061   4.625  18.845  0.00  0.00    +0.000 C 
ATOM      3  N   UNL     1       3.754   4.853  19.200  0.00  0.00    +0.000 N 
ATOM      4  C   UNL     1       3.060   4.030  20.040  0.00  0.00    +0.000 A 
ATOM      5  N   UNL     1       3.478   3.009  20.741  0.00  0.00    +0.000 NA
ATOM      6  C   UNL     1       2.412   2.440  21.406  0.00  0.00    +0.000 A 
ATOM      7  C   UNL     1       1.194   3.056  21.209  0.00  0.00    +0.000 A 
ATOM      8  S   UNL     1       1.397   4.409  20.172  0.00  0.00    +0.000 S 
ATOM      9  H   UNL     1       3.233   5.576  18.714  0.00  0.00    +0.000 HD
ENDROOT
BRANCH   2  10
ATOM     10  C   UNL     1       5.638   5.679  17.896  0.00  0.00    +0.000 C 
ATOM     11  C   UNL     1       4.928   5.706  16.537  0.00  0.00    +0.000 C 
ATOM     12  C   UNL     1       5.462   4.669  15.548  0.00  0.00    +0.000 C 
ATOM     13  C   UNL     1       6.988   4.639  15.514  0.00  0.00    +0.000 C 
ATOM     14  N   UNL     1       7.536   4.434  16.859  0.00  0.00    +0.000 NA
ATOM     15  C   UNL     1       7.156   5.545  17.747  0.00  0.00    +0.000 C 
ATOM     16  H   UNL     1       8.558   4.420  16.789  0.00  0.00    +0.000 HD
ENDBRANCH   2  10
TORSDOF 1
ENDMDL
MODEL 3
REMARK VINA RESULT:      -6.2      1.863      2.114
REMARK  Name = 
REMARK  1 active torsions:
REMARK  status: ('A' for Active; 'I' for Inactive)
REMARK    1  A    between atoms: C_2  and  C_9
REMARK                            x       y       z     vdW  Elec       q    Type
REMARK                         _______ _______ _______ _____ _____    ______ ____
ROOT
ATOM      1  O   UNL     1       4.201   5.303  19.777  0.00  0.00    +0.000 OA
ATOM      2  C   UNL     1       3.511   5.024  18.802  0.00  0.00    +0.000 C 
ATOM      3  N   UNL     1       3.962   4.667  17.554  0.00  0.00    +0.000 N 
ATOM      4  C   UNL     1       5.288   4.597  17.237  0.00  0.00    +0.000 A 
ATOM      5  N   UNL     1       6.337   4.710  18.009  0.00  0.00    +0.000 NA
ATOM      6  C   UNL     1       7.481   4.625  17.244  0.00  0.00    +0.000 A 
ATOM      7  C   UNL     1       7.279   4.429  15.894  0.00  0.00    +0.000 A 
ATOM      8  S   UNL     1       5.595   4.327  15.576  0.00  0.00    +0.000 S 
ATOM      9  H   UNL     1       3.292   4.589  16.795  0.00  0.00    +0.000 HD
ENDROOT
BRANCH   2  10
ATOM     10  C   UNL     1       1.985   5.032  18.930  0.00  0.00    +0.000 C 
ATOM     11  C   UNL     1       1.502   4.515  20.291  0.00  0.00    +0.000 C 
ATOM     12  C   UNL     1       1.399   2.991  20.365  0.00  0.00    +0.000 C 
ATOM     13  C   UNL     1       0.714   2.401  19.135  0.00  0.00    +0.000 C 
ATOM     14  N   UNL     1       1.385   2.837  17.905  0.00  0.00    +0.000 NA
ATOM     15  C   UNL     1       1.309   4.302  17.767  0.00  0.00    +0.000 C 
ATOM     16  H   UNL     1       0.894   2.419  17.109  0.00  0.00    +0.000 HD
ENDBRANCH   2  10
TORSDOF 1
ENDMDL
MODEL 4
REMARK VINA RESULT:      -6.1      2.680      5.276
REMARK  Name = 
REMARK  1 active torsions:
REMARK  status: ('A' for Active; 'I' for Inactive)
REMARK    1  A    between atoms: C_2  and  C_9
REMARK                            x       y       z     vdW  Elec       q    Type
REMARK                         _______ _______ _______ _____ _____    ______ ____
ROOT
ATOM      1  O   UNL     1       2.874   6.549  17.939  0.00  0.00    +0.000 OA
ATOM      2  C   UNL     1       3.884   5.877  18.120  0.00  0.00    +0.000 C 
ATOM      3  N   UNL     1       3.967   4.693  18.813  0.00  0.00    +0.000 N 
ATOM      4  C   UNL     1       2.891   4.114  19.421  0.00  0.00    +0.000 A 
ATOM      5  N   UNL     1       1.628   4.447  19.377  0.00  0.00    +0.000 NA
ATOM      6  C   UNL     1       0.901   3.607  20.193  0.00  0.00    +0.000 A 
ATOM      7  C   UNL     1       1.631   2.629  20.837  0.00  0.00    +0.000 A 
ATOM      8  S   UNL     1       3.282   2.755  20.385  0.00  0.00    +0.000 S 
ATOM      9  H   UNL     1       4.883   4.301  19.005  0.00  0.00    +0.000 HD
ENDROOT
BRANCH   2  10
ATOM     10  C   UNL     1       5.215   6.337  17.518  0.00  0.00    +0.000 C 
ATOM     11  C   UNL     1       5.197   6.355  15.984  0.00  0.00    +0.000 C 
ATOM     12  C   UNL     1       5.498   4.995  15.353  0.00  0.00    +0.000 C 
ATOM     13  C   UNL     1       6.694   4.309  16.009  0.00  0.00    +0.000 C 
ATOM     14  N   UNL     1       6.503   4.200  17.459  0.00  0.00    +0.000 NA
ATOM     15  C   UNL     1       6.398   5.537  18.068  0.00  0.00    +0.000 C 
ATOM     16  H   UNL     1       7.326   3.735  17.855  0.00  0.00    +0.000 HD
ENDBRANCH   2  10
TORSDOF 1
ENDMDL
MODEL 5
REMARK VINA RESULT:      -6.1      1.808      2.080
REMARK  Name = 
REMARK  1 active torsions:
REMARK  status: ('A' for Active; 'I' for Inactive)
REMARK    1  A    between atoms: C_2  and  C_9
REMARK                            x       y       z     vdW  Elec       q    Type
REMARK                         _______ _______ _______ _____ _____    ______ ____
ROOT
ATOM      1  O   UNL     1       2.464   5.188  17.674  0.00  0.00    +0.000 OA
ATOM      2  C   UNL     1       3.122   4.223  18.052  0.00  0.00    +0.000 C 
ATOM      3  N   UNL     1       4.490   4.152  18.152  0.00  0.00    +0.000 N 
ATOM      4  C   UNL     1       5.312   5.187  17.810  0.00  0.00    +0.000 A 
ATOM      5  N   UNL     1       5.013   6.413  17.469  0.00  0.00    +0.000 NA
ATOM      6  C   UNL     1       6.168   7.097  17.154  0.00  0.00    +0.000 A 
ATOM      7  C   UNL     1       7.337   6.376  17.278  0.00  0.00    +0.000 A 
ATOM      8  S   UNL     1       6.977   4.791  17.832  0.00  0.00    +0.000 S 
ATOM      9  H   UNL     1       4.921   3.255  18.351  0.00  0.00    +0.000 HD
ENDROOT
BRANCH   2  10
ATOM     10  C   UNL     1       2.401   2.946  18.494  0.00  0.00    +0.000 C 
ATOM     11  C   UNL     1       1.019   3.224  19.100  0.00  0.00    +0.000 C 
ATOM     12  C   UNL     1       1.065   3.591  20.583  0.00  0.00    +0.000 C 
ATOM     13  C   UNL     1       1.978   2.661  21.379  0.00  0.00    +0.000 C 
ATOM     14  N   UNL     1       3.322   2.622  20.791  0.00  0.00    +0.000 NA
ATOM     15  C   UNL     1       3.270   2.090  19.418  0.00  0.00    +0.000 C 
ATOM     16  H   UNL     1       3.898   1.989  21.355  0.00  0.00    +0.000 HD
ENDBRANCH   2  10
TORSDOF 1
ENDMDL
MODEL 6
REMARK VINA RESULT:      -6.0      1.984      2.388
REMARK  Name = 
REMARK  1 active torsions:
REMARK  status: ('A' for Active; 'I' for Inactive)
REMARK    1  A    between atoms: C_2  and  C_9
REMARK                            x       y       z     vdW  Elec       q    Type
REMARK                         _______ _______ _______ _____ _____    ______ ____
ROOT
ATOM      1  O   UNL     1       3.077   2.593  17.492  0.00  0.00    +0.000 OA
ATOM      2  C   UNL     1       2.822   3.740  17.847  0.00  0.00    +0.000 C 
ATOM      3  N   UNL     1       3.572   4.863  17.590  0.00  0.00    +0.000 N 
ATOM      4  C   UNL     1       4.747   4.826  16.896  0.00  0.00    +0.000 A 
ATOM      5  N   UNL     1       5.310   3.832  16.260  0.00  0.00    +0.000 NA
ATOM      6  C   UNL     1       6.523   4.242  15.749  0.00  0.00    +0.000 A 
ATOM      7  C   UNL     1       6.856   5.558  15.994  0.00  0.00    +0.000 A 
ATOM      8  S   UNL     1       5.592   6.313  16.877  0.00  0.00    +0.000 S 
ATOM      9  H   UNL     1       3.324   5.733  18.050  0.00  0.00    +0.000 HD
ENDROOT
BRANCH   2  10
ATOM     10  C   UNL     1       1.541   4.018  18.638  0.00  0.00    +0.000 C 
ATOM     11  C   UNL     1       1.762   4.992  19.802  0.00  0.00    +0.000 C 
ATOM     12  C   UNL     1       2.279   4.317  21.073  0.00  0.00    +0.000 C 
ATOM     13  C   UNL     1       1.514   3.036  21.397  0.00  0.00    +0.000 C 
ATOM     14  N   UNL     1       1.528   2.116  20.254  0.00  0.00    +0.000 NA
ATOM     15  C   UNL     1       0.858   2.726  19.092  0.00  0.00    +0.000 C 
ATOM     16  H   UNL     1       1.006   1.275  20.515  0.00  0.00    +0.000 HD
ENDBRANCH   2  10
TORSDOF 1
ENDMDL
MODEL 7
REMARK VINA RESULT:      -6.0      2.287      2.760
REMARK  Name = 
REMARK  1 active torsions:
REMARK  status: ('A' for Active; 'I' for Inactive)
REMARK    1  A    between atoms: C_2  and  C_9
REMARK                            x       y       z     vdW  Elec       q    Type
REMARK                         _______ _______ _______ _____ _____    ______ ____
ROOT
ATOM      1  O   UNL     1       2.565   3.142  16.807  0.00  0.00    +0.000 OA
ATOM      2  C   UNL     1       3.305   2.957  17.769  0.00  0.00    +0.000 C 
ATOM      3  N   UNL     1       4.584   3.435  17.922  0.00  0.00    +0.000 N 
ATOM      4  C   UNL     1       5.213   4.186  16.972  0.00  0.00    +0.000 A 
ATOM      5  N   UNL     1       4.743   4.691  15.861  0.00  0.00    +0.000 NA
ATOM      6  C   UNL     1       5.757   5.335  15.184  0.00  0.00    +0.000 A 
ATOM      7  C   UNL     1       6.988   5.322  15.807  0.00  0.00    +0.000 A 
ATOM      8  S   UNL     1       6.863   4.492  17.304  0.00  0.00    +0.000 S 
ATOM      9  H   UNL     1       5.140   3.103  18.704  0.00  0.00    +0.000 HD
ENDROOT
BRANCH   2  10
ATOM     10  C   UNL     1       2.800   2.142  18.963  0.00  0.00    +0.000 C 
ATOM     11  C   UNL     1       1.277   2.216  19.131  0.00  0.00    +0.000 C 
ATOM     12  C   UNL     1       0.807   3.448  19.904  0.00  0.00    +0.000 C 
ATOM     13  C   UNL     1       1.639   3.693  21.160  0.00  0.00    +0.000 C 
ATOM     14  N   UNL     1       3.067   3.774  20.833  0.00  0.00    +0.000 NA
ATOM     15  C   UNL     1       3.538   2.504  20.255  0.00  0.00    +0.000 C 
ATOM     16  H   UNL     1       3.584   3.938  21.701  0.00  0.00    +0.000 HD
ENDBRANCH   2  10
TORSDOF 1
ENDMDL
MODEL 8
REMARK VINA RESULT:      -6.0      1.672      1.983
REMARK  Name = 
REMARK  1 active torsions:
REMARK  status: ('A' for Active; 'I' for Inactive)
REMARK    1  A    between atoms: C_2  and  C_9
REMARK                            x       y       z     vdW  Elec       q    Type
REMARK                         _______ _______ _______ _____ _____    ______ ____
ROOT
ATOM      1  O   UNL     1       3.896   4.056  17.056  0.00  0.00    +0.000 OA
ATOM      2  C   UNL     1       4.387   3.583  18.077  0.00  0.00    +0.000 C 
ATOM      3  N   UNL     1       5.457   4.084  18.779  0.00  0.00    +0.000 N 
ATOM      4  C   UNL     1       6.138   5.203  18.394  0.00  0.00    +0.000 A 
ATOM      5  N   UNL     1       5.873   6.053  17.437  0.00  0.00    +0.000 NA
ATOM      6  C   UNL     1       6.869   7.004  17.378  0.00  0.00    +0.000 A 
ATOM      7  C   UNL     1       7.875   6.868  18.312  0.00  0.00    +0.000 A 
ATOM      8  S   UNL     1       7.547   5.513  19.314  0.00  0.00    +0.000 S 
ATOM      9  H   UNL     1       5.851   3.530  19.533  0.00  0.00    +0.000 HD
ENDROOT
BRANCH   2  10
ATOM     10  C   UNL     1       3.775   2.323  18.695  0.00  0.00    +0.000 C 
ATOM     11  C   UNL     1       2.349   2.052  18.199  0.00  0.00    +0.000 C 
ATOM     12  C   UNL     1       1.277   2.826  18.967  0.00  0.00    +0.000 C 
ATOM     13  C   UNL     1       1.493   2.763  20.478  0.00  0.00    +0.000 C 
ATOM     14  N   UNL     1       2.843   3.215  20.831  0.00  0.00    +0.000 NA
ATOM     15  C   UNL     1       3.858   2.338  20.223  0.00  0.00    +0.000 C 
ATOM     16  H   UNL     1       2.943   3.156  21.849  0.00  0.00    +0.000 HD
ENDBRANCH   2  10
TORSDOF 1
ENDMDL
MODEL 9
REMARK VINA RESULT:      -5.9      2.593      5.378
REMARK  Name = 
REMARK  1 active torsions:
REMARK  status: ('A' for Active; 'I' for Inactive)
REMARK    1  A    between atoms: C_2  and  C_9
REMARK                            x       y       z     vdW  Elec       q    Type
REMARK                         _______ _______ _______ _____ _____    ______ ____
ROOT
ATOM      1  O   UNL     1       4.571   3.419  17.248  0.00  0.00    +0.000 OA
ATOM      2  C   UNL     1       4.642   4.482  17.859  0.00  0.00    +0.000 C 
ATOM      3  N   UNL     1       3.943   4.824  18.992  0.00  0.00    +0.000 N 
ATOM      4  C   UNL     1       3.036   3.991  19.582  0.00  0.00    +0.000 A 
ATOM      5  N   UNL     1       2.749   2.744  19.313  0.00  0.00    +0.000 NA
ATOM      6  C   UNL     1       1.726   2.321  20.135  0.00  0.00    +0.000 A 
ATOM      7  C   UNL     1       1.261   3.257  21.034  0.00  0.00    +0.000 A 
ATOM      8  S   UNL     1       2.153   4.713  20.857  0.00  0.00    +0.000 S 
ATOM      9  H   UNL     1       3.990   5.780  19.326  0.00  0.00    +0.000 HD
ENDROOT
BRANCH   2  10
ATOM     10  C   UNL     1       5.606   5.568  17.375  0.00  0.00    +0.000 C 
ATOM     11  C   UNL     1       5.247   6.102  15.982  0.00  0.00    +0.000 C 
ATOM     12  C   UNL     1       5.796   5.248  14.839  0.00  0.00    +0.000 C 
ATOM     13  C   UNL     1       7.256   4.860  15.061  0.00  0.00    +0.000 C 
ATOM     14  N   UNL     1       7.430   4.201  16.359  0.00  0.00    +0.000 NA
ATOM     15  C   UNL     1       7.065   5.114  17.456  0.00  0.00    +0.000 C 
ATOM     16  H   UNL     1       8.420   3.960  16.464  0.00  0.00    +0.000 HD
ENDBRANCH   2  10
TORSDOF 1
ENDMDL
