MODEL 1
REMARK VINA RESULT:      -7.4      0.000      0.000
REMARK  Name = 
REMARK  5 active torsions:
REMARK  status: ('A' for Active; 'I' for Inactive)
REMARK    1  A    between atoms: C_1  and  C_2
REMARK    2  A    between atoms: C_6  and  O_7
REMARK    3  A    between atoms: O_7  and  C_8
REMARK    4  A    between atoms: C_8  and  C_9
REMARK    5  A    between atoms: C_8  and  C_10
REMARK                            x       y       z     vdW  Elec       q    Type
REMARK                         _______ _______ _______ _____ _____    ______ ____
ROOT
ATOM      1  C   UNL     1       5.849   5.393  18.026  0.00  0.00    +0.000 C 
ATOM      2  C   UNL     1       6.854   5.425  19.172  0.00  0.00    +0.000 C 
ENDROOT
BRANCH   1   3
ATOM      3  C   UNL     1       6.608   5.640  16.716  0.00  0.00    +0.000 C 
ATOM      4  O   UNL     1       7.409   6.569  16.638  0.00  0.00    +0.000 OA
ATOM      5  N   UNL     1       6.318   4.717  15.741  0.00  0.00    +0.000 N 
ATOM      6  C   UNL     1       6.873   4.775  14.496  0.00  0.00    +0.000 A 
ATOM      7  N   UNL     1       7.876   5.499  14.071  0.00  0.00    +0.000 NA
ATOM      8  C   UNL     1       8.055   5.292  12.721  0.00  0.00    +0.000 A 
ATOM      9  C   UNL     1       7.173   4.408  12.136  0.00  0.00    +0.000 A 
ATOM     10  S   UNL     1       6.121   3.771  13.335  0.00  0.00    +0.000 S 
ATOM     11  H   UNL     1       5.549   4.081  15.888  0.00  0.00    +0.000 HD
ENDBRANCH   1   3
BRANCH   1  12
ATOM     12  O   UNL     1       5.213   4.112  17.957  0.00  0.00    +0.000 OA
BRANCH  12  18
ATOM     13  C   UNL     1       2.014   2.989  21.606  0.00  0.00    +0.000 C 
ATOM     14  C   UNL     1       2.320   3.442  20.208  0.00  0.00    +0.000 A 
ATOM     15  C   UNL     1       1.290   3.678  19.292  0.00  0.00    +0.000 A 
ATOM     16  C   UNL     1       1.592   4.062  17.985  0.00  0.00    +0.000 A 
ATOM     17  C   UNL     1       2.920   4.201  17.588  0.00  0.00    +0.000 A 
ATOM     18  C   UNL     1       3.964   3.966  18.490  0.00  0.00    +0.000 A 
ATOM     19  C   UNL     1       3.655   3.598  19.801  0.00  0.00    +0.000 A 
ENDBRANCH  12  18
ENDBRANCH   1  12
TORSDOF 3
ENDMDL
MODEL 2
REMARK VINA RESULT:      -7.2      1.033      1.056
REMARK  Name = 
REMARK  5 active torsions:
REMARK  status: ('A' for Active; 'I' for Inactive)
REMARK    1  A    between atoms: C_1  and  C_2
REMARK    2  A    between atoms: C_6  and  O_7
REMARK    3  A    between atoms: O_7  and  C_8
REMARK    4  A    between atoms: C_8  and  C_9
REMARK    5  A    between atoms: C_8  and  C_10
REMARK                            x       y       z     vdW  Elec       q    Type
REMARK                         _______ _______ _______ _____ _____    ______ ____
ROOT
ATOM      1  C   UNL     1       6.377   5.874  18.232  0.00  0.00    +0.000 C 
ATOM      2  C   UNL     1       7.539   5.816  19.217  0.00  0.00    +0.000 C 
ENDROOT
BRANCH   1   3
ATOM      3  C   UNL     1       6.956   5.949  16.813  0.00  0.00    +0.000 C 
ATOM      4  O   UNL     1       7.760   6.834  16.525  0.00  0.00    +0.000 OA
ATOM      5  N   UNL     1       6.516   4.937  15.995  0.00  0.00    +0.000 N 
ATOM      6  C   UNL     1       6.898   4.840  14.689  0.00  0.00    +0.000 A 
ATOM      7  N   UNL     1       7.848   5.476  14.055  0.00  0.00    +0.000 NA
ATOM      8  C   UNL     1       7.838   5.117  12.725  0.00  0.00    +0.000 A 
ATOM      9  C   UNL     1       6.865   4.208  12.366  0.00  0.00    +0.000 A 
ATOM     10  S   UNL     1       5.973   3.744  13.758  0.00  0.00    +0.000 S 
ATOM     11  H   UNL     1       5.760   4.350  16.314  0.00  0.00    +0.000 HD
ENDBRANCH   1   3
BRANCH   1  12
ATOM     12  O   UNL     1       5.572   4.695  18.340  0.00  0.00    +0.000 OA
BRANCH  12  18
ATOM     13  C   UNL     1       2.096   2.888  21.415  0.00  0.00    +0.000 C 
ATOM     14  C   UNL     1       2.645   3.967  20.528  0.00  0.00    +0.000 A 
ATOM     15  C   UNL     1       1.913   5.133  20.283  0.00  0.00    +0.000 A 
ATOM     16  C   UNL     1       2.421   6.110  19.426  0.00  0.00    +0.000 A 
ATOM     17  C   UNL     1       3.653   5.920  18.805  0.00  0.00    +0.000 A 
ATOM     18  C   UNL     1       4.399   4.759  19.036  0.00  0.00    +0.000 A 
ATOM     19  C   UNL     1       3.893   3.792  19.908  0.00  0.00    +0.000 A 
ENDBRANCH  12  18
ENDBRANCH   1  12
TORSDOF 3
ENDMDL
MODEL 3
REMARK VINA RESULT:      -7.0      1.154      1.559
REMARK  Name = 
REMARK  5 active torsions:
REMARK  status: ('A' for Active; 'I' for Inactive)
REMARK    1  A    between atoms: C_1  and  C_2
REMARK    2  A    between atoms: C_6  and  O_7
REMARK    3  A    between atoms: O_7  and  C_8
REMARK    4  A    between atoms: C_8  and  C_9
REMARK    5  A    between atoms: C_8  and  C_10
REMARK                            x       y       z     vdW  Elec       q    Type
REMARK                         _______ _______ _______ _____ _____    ______ ____
ROOT
ATOM      1  C   UNL     1       5.403   5.765  17.878  0.00  0.00    +0.000 C 
ATOM      2  C   UNL     1       5.749   4.446  18.557  0.00  0.00    +0.000 C 
ENDROOT
BRANCH   1   3
ATOM      3  C   UNL     1       6.256   5.889  16.609  0.00  0.00    +0.000 C 
ATOM      4  O   UNL     1       7.068   6.806  16.503  0.00  0.00    +0.000 OA
ATOM      5  N   UNL     1       6.028   4.880  15.704  0.00  0.00    +0.000 N 
ATOM      6  C   UNL     1       6.672   4.823  14.502  0.00  0.00    +0.000 A 
ATOM      7  N   UNL     1       7.708   5.502  14.085  0.00  0.00    +0.000 NA
ATOM      8  C   UNL     1       7.982   5.172  12.776  0.00  0.00    +0.000 A 
ATOM      9  C   UNL     1       7.136   4.239  12.213  0.00  0.00    +0.000 A 
ATOM     10  S   UNL     1       5.997   3.717  13.387  0.00  0.00    +0.000 S 
ATOM     11  H   UNL     1       5.245   4.262  15.853  0.00  0.00    +0.000 HD
ENDBRANCH   1   3
BRANCH   1  12
ATOM     12  O   UNL     1       4.019   5.787  17.508  0.00  0.00    +0.000 OA
BRANCH  12  18
ATOM     13  C   UNL     1       0.634   2.393  18.858  0.00  0.00    +0.000 C 
ATOM     14  C   UNL     1       1.432   3.638  19.112  0.00  0.00    +0.000 A 
ATOM     15  C   UNL     1       1.215   4.405  20.261  0.00  0.00    +0.000 A 
ATOM     16  C   UNL     1       1.938   5.581  20.464  0.00  0.00    +0.000 A 
ATOM     17  C   UNL     1       2.871   5.998  19.517  0.00  0.00    +0.000 A 
ATOM     18  C   UNL     1       3.100   5.245  18.360  0.00  0.00    +0.000 A 
ATOM     19  C   UNL     1       2.385   4.061  18.170  0.00  0.00    +0.000 A 
ENDBRANCH  12  18
ENDBRANCH   1  12
TORSDOF 3
ENDMDL
MODEL 4
REMARK VINA RESULT:      -7.0      0.811      1.685
REMARK  Name = 
REMARK  5 active torsions:
REMARK  status: ('A' for Active; 'I' for Inactive)
REMARK    1  A    between atoms: C_1  and  C_2
REMARK    2  A    between atoms: C_6  and  O_7
REMARK    3  A    between atoms: O_7  and  C_8
REMARK    4  A    between atoms: C_8  and  C_9
REMARK    5  A    between atoms: C_8  and  C_10
REMARK                            x       y       z     vdW  Elec       q    Type
REMARK                         _______ _______ _______ _____ _____    ______ ____
ROOT
ATOM      1  C   UNL     1       6.516   5.483  18.241  0.00  0.00    +0.000 C 
ATOM      2  C   UNL     1       7.628   5.836  19.221  0.00  0.00    +0.000 C 
ENDROOT
BRANCH   1   3
ATOM      3  C   UNL     1       7.043   5.710  16.818  0.00  0.00    +0.000 C 
ATOM      4  O   UNL     1       7.769   6.674  16.580  0.00  0.00    +0.000 OA
ATOM      5  N   UNL     1       6.652   4.734  15.934  0.00  0.00    +0.000 N 
ATOM      6  C   UNL     1       6.998   4.767  14.614  0.00  0.00    +0.000 A 
ATOM      7  N   UNL     1       7.879   5.520  14.009  0.00  0.00    +0.000 NA
ATOM      8  C   UNL     1       7.853   5.265  12.655  0.00  0.00    +0.000 A 
ATOM      9  C   UNL     1       6.938   4.315  12.251  0.00  0.00    +0.000 A 
ATOM     10  S   UNL     1       6.128   3.679  13.624  0.00  0.00    +0.000 S 
ATOM     11  H   UNL     1       5.952   4.069  16.224  0.00  0.00    +0.000 HD
ENDBRANCH   1   3
BRANCH   1  12
ATOM     12  O   UNL     1       6.146   4.106  18.381  0.00  0.00    +0.000 OA
BRANCH  12  18
ATOM     13  C   UNL     1       1.241   4.346  17.555  0.00  0.00    +0.000 C 
ATOM     14  C   UNL     1       2.430   3.848  18.324  0.00  0.00    +0.000 A 
ATOM     15  C   UNL     1       2.263   3.061  19.467  0.00  0.00    +0.000 A 
ATOM     16  C   UNL     1       3.377   2.637  20.193  0.00  0.00    +0.000 A 
ATOM     17  C   UNL     1       4.656   3.008  19.785  0.00  0.00    +0.000 A 
ATOM     18  C   UNL     1       4.843   3.797  18.646  0.00  0.00    +0.000 A 
ATOM     19  C   UNL     1       3.725   4.204  17.914  0.00  0.00    +0.000 A 
ENDBRANCH  12  18
ENDBRANCH   1  12
TORSDOF 3
ENDMDL
MODEL 5
REMARK VINA RESULT:      -7.0      2.299      6.500
REMARK  Name = 
REMARK  5 active torsions:
REMARK  status: ('A' for Active; 'I' for Inactive)
REMARK    1  A    between atoms: C_1  and  C_2
REMARK    2  A    between atoms: C_6  and  O_7
REMARK    3  A    between atoms: O_7  and  C_8
REMARK    4  A    between atoms: C_8  and  C_9
REMARK    5  A    between atoms: C_8  and  C_10
REMARK                            x       y       z     vdW  Elec       q    Type
REMARK                         _______ _______ _______ _____ _____    ______ ____
ROOT
ATOM      1  C   UNL     1       6.713   5.048  16.870  0.00  0.00    +0.000 C 
ATOM      2  C   UNL     1       7.348   6.344  17.360  0.00  0.00    +0.000 C 
ENDROOT
BRANCH   1   3
ATOM      3  C   UNL     1       5.887   4.455  18.019  0.00  0.00    +0.000 C 
ATOM      4  O   UNL     1       6.331   4.472  19.165  0.00  0.00    +0.000 OA
ATOM      5  N   UNL     1       4.660   3.985  17.616  0.00  0.00    +0.000 N 
ATOM      6  C   UNL     1       3.785   3.400  18.485  0.00  0.00    +0.000 A 
ATOM      7  N   UNL     1       3.811   3.372  19.792  0.00  0.00    +0.000 NA
ATOM      8  C   UNL     1       2.764   2.608  20.259  0.00  0.00    +0.000 A 
ATOM      9  C   UNL     1       1.955   2.059  19.287  0.00  0.00    +0.000 A 
ATOM     10  S   UNL     1       2.493   2.568  17.738  0.00  0.00    +0.000 S 
ATOM     11  H   UNL     1       4.469   3.913  16.629  0.00  0.00    +0.000 HD
ENDBRANCH   1   3
BRANCH   1  12
ATOM     12  O   UNL     1       5.843   5.307  15.762  0.00  0.00    +0.000 OA
BRANCH  12  18
ATOM     13  C   UNL     1       5.306   2.462  11.710  0.00  0.00    +0.000 C 
ATOM     14  C   UNL     1       6.026   3.515  12.500  0.00  0.00    +0.000 A 
ATOM     15  C   UNL     1       7.218   4.074  12.027  0.00  0.00    +0.000 A 
ATOM     16  C   UNL     1       7.896   5.024  12.792  0.00  0.00    +0.000 A 
ATOM     17  C   UNL     1       7.391   5.409  14.032  0.00  0.00    +0.000 A 
ATOM     18  C   UNL     1       6.202   4.859  14.523  0.00  0.00    +0.000 A 
ATOM     19  C   UNL     1       5.520   3.921  13.746  0.00  0.00    +0.000 A 
ENDBRANCH  12  18
ENDBRANCH   1  12
TORSDOF 3
ENDMDL
MODEL 6
REMARK VINA RESULT:      -6.8      1.308      1.394
REMARK  Name = 
REMARK  5 active torsions:
REMARK  status: ('A' for Active; 'I' for Inactive)
REMARK    1  A    between atoms: C_1  and  C_2
REMARK    2  A    between atoms: C_6  and  O_7
REMARK    3  A    between atoms: O_7  and  C_8
REMARK    4  A    between atoms: C_8  and  C_9
REMARK    5  A    between atoms: C_8  and  C_10
REMARK                            x       y       z     vdW  Elec       q    Type
REMARK                         _______ _______ _______ _____ _____    ______ ____
ROOT
ATOM      1  C   UNL     1       4.156   5.834  17.144  0.00  0.00    +0.000 C 
ATOM      2  C   UNL     1       3.887   7.231  17.691  0.00  0.00    +0.000 C 
ENDROOT
BRANCH   1   3
ATOM      3  C   UNL     1       5.328   5.923  16.158  0.00  0.00    +0.000 C 
ATOM      4  O   UNL     1       6.153   6.829  16.268  0.00  0.00    +0.000 OA
ATOM      5  N   UNL     1       5.343   4.901  15.241  0.00  0.00    +0.000 N 
ATOM      6  C   UNL     1       6.292   4.813  14.265  0.00  0.00    +0.000 A 
ATOM      7  N   UNL     1       7.415   5.472  14.141  0.00  0.00    +0.000 NA
ATOM      8  C   UNL     1       8.034   5.114  12.964  0.00  0.00    +0.000 A 
ATOM      9  C   UNL     1       7.361   4.181  12.203  0.00  0.00    +0.000 A 
ATOM     10  S   UNL     1       5.933   3.694  13.023  0.00  0.00    +0.000 S 
ATOM     11  H   UNL     1       4.539   4.295  15.177  0.00  0.00    +0.000 HD
ENDBRANCH   1   3
BRANCH   1  12
ATOM     12  O   UNL     1       4.513   4.943  18.207  0.00  0.00    +0.000 OA
BRANCH  12  18
ATOM     13  C   UNL     1       1.662   2.754  21.653  0.00  0.00    +0.000 C 
ATOM     14  C   UNL     1       2.163   2.893  20.246  0.00  0.00    +0.000 A 
ATOM     15  C   UNL     1       1.761   1.995  19.251  0.00  0.00    +0.000 A 
ATOM     16  C   UNL     1       2.266   2.114  17.956  0.00  0.00    +0.000 A 
ATOM     17  C   UNL     1       3.179   3.122  17.655  0.00  0.00    +0.000 A 
ATOM     18  C   UNL     1       3.595   4.028  18.636  0.00  0.00    +0.000 A 
ATOM     19  C   UNL     1       3.074   3.913  19.927  0.00  0.00    +0.000 A 
ENDBRANCH  12  18
ENDBRANCH   1  12
TORSDOF 3
ENDMDL
MODEL 7
REMARK VINA RESULT:      -6.7      5.316      6.787
REMARK  Name = 
REMARK  5 active torsions:
REMARK  status: ('A' for Active; 'I' for Inactive)
REMARK    1  A    between atoms: C_1  and  C_2
REMARK    2  A    between atoms: C_6  and  O_7
REMARK    3  A    between atoms: O_7  and  C_8
REMARK    4  A    between atoms: C_8  and  C_9
REMARK    5  A    between atoms: C_8  and  C_10
REMARK                            x       y       z     vdW  Elec       q    Type
REMARK                         _______ _______ _______ _____ _____    ______ ____
ROOT
ATOM      1  C   UNL     1       2.942   6.821  18.338  0.00  0.00    +0.000 C 
ATOM      2  C   UNL     1       4.148   6.972  17.419  0.00  0.00    +0.000 C 
ENDROOT
BRANCH   1   3
ATOM      3  C   UNL     1       2.232   8.179  18.423  0.00  0.00    +0.000 C 
ATOM      4  O   UNL     1       2.230   8.931  17.450  0.00  0.00    +0.000 OA
ATOM      5  N   UNL     1       1.613   8.391  19.631  0.00  0.00    +0.000 N 
ATOM      6  C   UNL     1       0.946   9.548  19.913  0.00  0.00    +0.000 A 
ATOM      7  N   UNL     1       0.581  10.510  19.107  0.00  0.00    +0.000 NA
ATOM      8  C   UNL     1      -0.009  11.522  19.832  0.00  0.00    +0.000 A 
ATOM      9  C   UNL     1      -0.079  11.310  21.193  0.00  0.00    +0.000 A 
ATOM     10  S   UNL     1       0.565   9.762  21.566  0.00  0.00    +0.000 S 
ATOM     11  H   UNL     1       1.798   7.753  20.389  0.00  0.00    +0.000 HD
ENDBRANCH   1   3
BRANCH   1  12
ATOM     12  O   UNL     1       2.028   5.855  17.806  0.00  0.00    +0.000 OA
BRANCH  12  18
ATOM     13  C   UNL     1       1.429   2.671  21.588  0.00  0.00    +0.000 C 
ATOM     14  C   UNL     1       1.711   2.973  20.145  0.00  0.00    +0.000 A 
ATOM     15  C   UNL     1       2.046   1.949  19.253  0.00  0.00    +0.000 A 
ATOM     16  C   UNL     1       2.343   2.250  17.923  0.00  0.00    +0.000 A 
ATOM     17  C   UNL     1       2.316   3.572  17.486  0.00  0.00    +0.000 A 
ATOM     18  C   UNL     1       1.986   4.610  18.364  0.00  0.00    +0.000 A 
ATOM     19  C   UNL     1       1.674   4.300  19.690  0.00  0.00    +0.000 A 
ENDBRANCH  12  18
ENDBRANCH   1  12
TORSDOF 3
ENDMDL
MODEL 8
REMARK VINA RESULT:      -6.7      2.735      6.860
REMARK  Name = 
REMARK  5 active torsions:
REMARK  status: ('A' for Active; 'I' for Inactive)
REMARK    1  A    between atoms: C_1  and  C_2
REMARK    2  A    between atoms: C_6  and  O_7
REMARK    3  A    between atoms: O_7  and  C_8
REMARK    4  A    between atoms: C_8  and  C_9
REMARK    5  A    between atoms: C_8  and  C_10
REMARK                            x       y       z     vdW  Elec       q    Type
REMARK                         _______ _______ _______ _____ _____    ______ ____
ROOT
ATOM      1  C   UNL     1       6.334   4.377  16.800  0.00  0.00    +0.000 C 
ATOM      2  C   UNL     1       7.613   4.583  17.604  0.00  0.00    +0.000 C 
ENDROOT
BRANCH   1   3
ATOM      3  C   UNL     1       5.139   4.600  17.736  0.00  0.00    +0.000 C 
ATOM      4  O   UNL     1       4.521   5.662  17.698  0.00  0.00    +0.000 OA
ATOM      5  N   UNL     1       4.859   3.510  18.524  0.00  0.00    +0.000 N 
ATOM      6  C   UNL     1       3.848   3.516  19.440  0.00  0.00    +0.000 A 
ATOM      7  N   UNL     1       2.874   4.374  19.591  0.00  0.00    +0.000 NA
ATOM      8  C   UNL     1       2.117   4.027  20.688  0.00  0.00    +0.000 A 
ATOM      9  C   UNL     1       2.537   2.900  21.362  0.00  0.00    +0.000 A 
ATOM     10  S   UNL     1       3.892   2.221  20.554  0.00  0.00    +0.000 S 
ATOM     11  H   UNL     1       5.520   2.749  18.551  0.00  0.00    +0.000 HD
ENDBRANCH   1   3
BRANCH   1  12
ATOM     12  O   UNL     1       6.263   5.323  15.727  0.00  0.00    +0.000 OA
BRANCH  12  18
ATOM     13  C   UNL     1       5.330   2.458  11.761  0.00  0.00    +0.000 C 
ATOM     14  C   UNL     1       6.102   3.540  12.459  0.00  0.00    +0.000 A 
ATOM     15  C   UNL     1       7.201   4.146  11.842  0.00  0.00    +0.000 A 
ATOM     16  C   UNL     1       7.931   5.124  12.519  0.00  0.00    +0.000 A 
ATOM     17  C   UNL     1       7.573   5.488  13.815  0.00  0.00    +0.000 A 
ATOM     18  C   UNL     1       6.480   4.890  14.450  0.00  0.00    +0.000 A 
ATOM     19  C   UNL     1       5.742   3.925  13.761  0.00  0.00    +0.000 A 
ENDBRANCH  12  18
ENDBRANCH   1  12
TORSDOF 3
ENDMDL
MODEL 9
REMARK VINA RESULT:      -6.6      4.737      7.186
REMARK  Name = 
REMARK  5 active torsions:
REMARK  status: ('A' for Active; 'I' for Inactive)
REMARK    1  A    between atoms: C_1  and  C_2
REMARK    2  A    between atoms: C_6  and  O_7
REMARK    3  A    between atoms: O_7  and  C_8
REMARK    4  A    between atoms: C_8  and  C_9
REMARK    5  A    between atoms: C_8  and  C_10
REMARK                            x       y       z     vdW  Elec       q    Type
REMARK                         _______ _______ _______ _____ _____    ______ ____
ROOT
ATOM      1  C   UNL     1       2.985   5.133  19.616  0.00  0.00    +0.000 C 
ATOM      2  C   UNL     1       2.216   4.498  20.769  0.00  0.00    +0.000 C 
ENDROOT
BRANCH   1   3
ATOM      3  C   UNL     1       2.423   6.541  19.383  0.00  0.00    +0.000 C 
ATOM      4  O   UNL     1       2.399   7.012  18.248  0.00  0.00    +0.000 OA
ATOM      5  N   UNL     1       1.948   7.130  20.530  0.00  0.00    +0.000 N 
ATOM      6  C   UNL     1       1.428   8.392  20.538  0.00  0.00    +0.000 A 
ATOM      7  N   UNL     1       1.081   9.150  19.531  0.00  0.00    +0.000 NA
ATOM      8  C   UNL     1       0.666  10.377  19.998  0.00  0.00    +0.000 A 
ATOM      9  C   UNL     1       0.709  10.534  21.367  0.00  0.00    +0.000 A 
ATOM     10  S   UNL     1       1.232   9.069  22.095  0.00  0.00    +0.000 S 
ATOM     11  H   UNL     1       2.143   6.691  21.417  0.00  0.00    +0.000 HD
ENDBRANCH   1   3
BRANCH   1  12
ATOM     12  O   UNL     1       4.376   5.239  19.943  0.00  0.00    +0.000 OA
BRANCH  12  18
ATOM     13  C   UNL     1       5.864   3.778  15.421  0.00  0.00    +0.000 C 
ATOM     14  C   UNL     1       6.126   4.390  16.765  0.00  0.00    +0.000 A 
ATOM     15  C   UNL     1       7.420   4.769  17.138  0.00  0.00    +0.000 A 
ATOM     16  C   UNL     1       7.654   5.302  18.406  0.00  0.00    +0.000 A 
ATOM     17  C   UNL     1       6.601   5.446  19.307  0.00  0.00    +0.000 A 
ATOM     18  C   UNL     1       5.301   5.069  18.953  0.00  0.00    +0.000 A 
ATOM     19  C   UNL     1       5.070   4.552  17.677  0.00  0.00    +0.000 A 
ENDBRANCH  12  18
ENDBRANCH   1  12
TORSDOF 3
ENDMDL
