MODEL 1
REMARK VINA RESULT:      -8.1      0.000      0.000
REMARK  Name = 
REMARK  3 active torsions:
REMARK  status: ('A' for Active; 'I' for Inactive)
REMARK    1  A    between atoms: C_2  and  C_3
REMARK    2  A    between atoms: C_3  and  N_4
REMARK    3  A    between atoms: N_21  and  C_22
REMARK                            x       y       z     vdW  Elec       q    Type
REMARK                         _______ _______ _______ _____ _____    ______ ____
ROOT
ATOM      1  N   UNL     1       4.884   6.066  18.270  0.00  0.00    +0.000 N 
ATOM      2  C   UNL     1       3.655   6.838  18.272  0.00  0.00    +0.000 A 
ATOM      3  C   UNL     1       3.681   8.148  17.736  0.00  0.00    +0.000 A 
ATOM      4  C   UNL     1       2.592   9.013  17.832  0.00  0.00    +0.000 A 
ATOM      5  C   UNL     1       1.465   8.586  18.492  0.00  0.00    +0.000 A 
ATOM      6  F   UNL     1       0.414   9.407  18.617  0.00  0.00    +0.000 F 
ATOM      7  C   UNL     1       1.415   7.319  19.064  0.00  0.00    +0.000 A 
ATOM      8  C   UNL     1       2.504   6.414  18.996  0.00  0.00    +0.000 A 
ATOM      9  C   UNL     1       2.421   5.089  19.686  0.00  0.00    +0.000 A 
ATOM     10  C   UNL     1       1.303   4.688  20.450  0.00  0.00    +0.000 A 
ATOM     11  C   UNL     1       1.206   3.423  21.052  0.00  0.00    +0.000 A 
ATOM     12  C   UNL     1       2.238   2.507  20.925  0.00  0.00    +0.000 A 
ATOM     13  C   UNL     1       3.363   2.866  20.200  0.00  0.00    +0.000 A 
ATOM     14  C   UNL     1       3.434   4.134  19.598  0.00  0.00    +0.000 A 
ATOM     15  S   UNL     1       4.818   4.411  18.580  0.00  0.00    +0.000 S 
ATOM     16  O   UNL     1       4.539   3.735  17.329  0.00  0.00    +0.000 OA
ATOM     17  O   UNL     1       6.010   4.074  19.331  0.00  0.00    +0.000 OA
ENDROOT
BRANCH   1  18
ATOM     18  C   UNL     1       6.012   6.427  17.356  0.00  0.00    +0.000 C 
BRANCH  18  20
ATOM     19  O   UNL     1       5.088   6.865  15.192  0.00  0.00    +0.000 OA
ATOM     20  C   UNL     1       5.813   6.137  15.869  0.00  0.00    +0.000 C 
ATOM     21  N   UNL     1       6.498   5.037  15.393  0.00  0.00    +0.000 N 
ATOM     22  H   UNL     1       6.912   4.412  16.086  0.00  0.00    +0.000 HD
BRANCH  21  23
ATOM     23  C   UNL     1       6.495   4.523  14.084  0.00  0.00    +0.000 A 
ATOM     24  C   UNL     1       5.564   3.609  13.609  0.00  0.00    +0.000 A 
ATOM     25  C   UNL     1       5.679   3.126  12.305  0.00  0.00    +0.000 A 
ATOM     26  C   UNL     1       6.722   3.583  11.517  0.00  0.00    +0.000 A 
ATOM     27  N   UNL     1       7.626   4.496  11.927  0.00  0.00    +0.000 NA
ATOM     28  C   UNL     1       7.486   4.949  13.196  0.00  0.00    +0.000 A 
ENDBRANCH  21  23
ENDBRANCH  18  20
ENDBRANCH   1  18
TORSDOF 3
ENDMDL
MODEL 2
REMARK VINA RESULT:      -8.0      1.034      1.034
REMARK  Name = 
REMARK  3 active torsions:
REMARK  status: ('A' for Active; 'I' for Inactive)
REMARK    1  A    between atoms: C_2  and  C_3
REMARK    2  A    between atoms: C_3  and  N_4
REMARK    3  A    between atoms: N_21  and  C_22
REMARK                            x       y       z     vdW  Elec       q    Type
REMARK                         _______ _______ _______ _____ _____    ______ ____
ROOT
ATOM      1  N   UNL     1       5.116   5.681  18.416  0.00  0.00    +0.000 N 
ATOM      2  C   UNL     1       3.947   6.492  18.129  0.00  0.00    +0.000 A 
ATOM      3  C   UNL     1       4.142   7.816  17.667  0.00  0.00    +0.000 A 
ATOM      4  C   UNL     1       3.087   8.713  17.510  0.00  0.00    +0.000 A 
ATOM      5  C   UNL     1       1.817   8.304  17.841  0.00  0.00    +0.000 A 
ATOM      6  F   UNL     1       0.790   9.155  17.720  0.00  0.00    +0.000 F 
ATOM      7  C   UNL     1       1.590   7.023  18.333  0.00  0.00    +0.000 A 
ATOM      8  C   UNL     1       2.638   6.085  18.516  0.00  0.00    +0.000 A 
ATOM      9  C   UNL     1       2.346   4.744  19.112  0.00  0.00    +0.000 A 
ATOM     10  C   UNL     1       1.059   4.358  19.546  0.00  0.00    +0.000 A 
ATOM     11  C   UNL     1       0.779   3.080  20.055  0.00  0.00    +0.000 A 
ATOM     12  C   UNL     1       1.786   2.134  20.166  0.00  0.00    +0.000 A 
ATOM     13  C   UNL     1       3.069   2.477  19.769  0.00  0.00    +0.000 A 
ATOM     14  C   UNL     1       3.324   3.759  19.253  0.00  0.00    +0.000 A 
ATOM     15  S   UNL     1       4.931   4.020  18.637  0.00  0.00    +0.000 S 
ATOM     16  O   UNL     1       4.970   3.391  17.333  0.00  0.00    +0.000 OA
ATOM     17  O   UNL     1       5.879   3.623  19.658  0.00  0.00    +0.000 OA
ENDROOT
BRANCH   1  18
ATOM     18  C   UNL     1       6.450   6.031  17.838  0.00  0.00    +0.000 C 
BRANCH  18  20
ATOM     19  O   UNL     1       7.887   4.489  16.704  0.00  0.00    +0.000 OA
ATOM     20  C   UNL     1       6.906   5.227  16.622  0.00  0.00    +0.000 C 
ATOM     21  N   UNL     1       6.141   5.406  15.485  0.00  0.00    +0.000 N 
ATOM     22  H   UNL     1       5.475   6.178  15.491  0.00  0.00    +0.000 HD
BRANCH  21  23
ATOM     23  C   UNL     1       6.329   4.816  14.223  0.00  0.00    +0.000 A 
ATOM     24  C   UNL     1       5.497   3.840  13.689  0.00  0.00    +0.000 A 
ATOM     25  C   UNL     1       5.799   3.285  12.445  0.00  0.00    +0.000 A 
ATOM     26  C   UNL     1       6.924   3.732  11.774  0.00  0.00    +0.000 A 
ATOM     27  N   UNL     1       7.739   4.701  12.240  0.00  0.00    +0.000 NA
ATOM     28  C   UNL     1       7.418   5.224  13.448  0.00  0.00    +0.000 A 
ENDBRANCH  21  23
ENDBRANCH  18  20
ENDBRANCH   1  18
TORSDOF 3
ENDMDL
MODEL 3
REMARK VINA RESULT:      -7.8      3.976      6.255
REMARK  Name = 
REMARK  3 active torsions:
REMARK  status: ('A' for Active; 'I' for Inactive)
REMARK    1  A    between atoms: C_2  and  C_3
REMARK    2  A    between atoms: C_3  and  N_4
REMARK    3  A    between atoms: N_21  and  C_22
REMARK                            x       y       z     vdW  Elec       q    Type
REMARK                         _______ _______ _______ _____ _____    ______ ____
ROOT
ATOM      1  N   UNL     1       6.416   5.649  17.681  0.00  0.00    +0.000 N 
ATOM      2  C   UNL     1       6.291   4.955  16.412  0.00  0.00    +0.000 A 
ATOM      3  C   UNL     1       7.222   5.250  15.388  0.00  0.00    +0.000 A 
ATOM      4  C   UNL     1       7.090   4.747  14.095  0.00  0.00    +0.000 A 
ATOM      5  C   UNL     1       6.003   3.958  13.800  0.00  0.00    +0.000 A 
ATOM      6  F   UNL     1       5.843   3.481  12.558  0.00  0.00    +0.000 F 
ATOM      7  C   UNL     1       5.047   3.677  14.770  0.00  0.00    +0.000 A 
ATOM      8  C   UNL     1       5.141   4.177  16.093  0.00  0.00    +0.000 A 
ATOM      9  C   UNL     1       4.049   3.898  17.078  0.00  0.00    +0.000 A 
ATOM     10  C   UNL     1       2.884   3.173  16.749  0.00  0.00    +0.000 A 
ATOM     11  C   UNL     1       1.886   2.867  17.690  0.00  0.00    +0.000 A 
ATOM     12  C   UNL     1       2.010   3.291  19.004  0.00  0.00    +0.000 A 
ATOM     13  C   UNL     1       3.130   4.022  19.365  0.00  0.00    +0.000 A 
ATOM     14  C   UNL     1       4.120   4.308  18.410  0.00  0.00    +0.000 A 
ATOM     15  S   UNL     1       5.553   5.088  19.015  0.00  0.00    +0.000 S 
ATOM     16  O   UNL     1       6.340   4.050  19.649  0.00  0.00    +0.000 OA
ATOM     17  O   UNL     1       5.149   6.253  19.776  0.00  0.00    +0.000 OA
ENDROOT
BRANCH   1  18
ATOM     18  C   UNL     1       7.704   6.301  18.071  0.00  0.00    +0.000 C 
BRANCH  18  20
ATOM     19  O   UNL     1       7.087   8.392  17.084  0.00  0.00    +0.000 OA
ATOM     20  C   UNL     1       7.780   7.819  17.924  0.00  0.00    +0.000 C 
ATOM     21  N   UNL     1       8.658   8.445  18.787  0.00  0.00    +0.000 N 
ATOM     22  H   UNL     1       9.307   7.850  19.302  0.00  0.00    +0.000 HD
BRANCH  21  23
ATOM     23  C   UNL     1       8.948   9.819  18.870  0.00  0.00    +0.000 A 
ATOM     24  C   UNL     1       8.900  10.692  17.791  0.00  0.00    +0.000 A 
ATOM     25  C   UNL     1       9.252  12.029  17.973  0.00  0.00    +0.000 A 
ATOM     26  C   UNL     1       9.634  12.450  19.235  0.00  0.00    +0.000 A 
ATOM     27  N   UNL     1       9.660  11.644  20.317  0.00  0.00    +0.000 NA
ATOM     28  C   UNL     1       9.310  10.353  20.111  0.00  0.00    +0.000 A 
ENDBRANCH  21  23
ENDBRANCH  18  20
ENDBRANCH   1  18
TORSDOF 3
ENDMDL
MODEL 4
REMARK VINA RESULT:      -7.4      3.042      4.745
REMARK  Name = 
REMARK  3 active torsions:
REMARK  status: ('A' for Active; 'I' for Inactive)
REMARK    1  A    between atoms: C_2  and  C_3
REMARK    2  A    between atoms: C_3  and  N_4
REMARK    3  A    between atoms: N_21  and  C_22
REMARK                            x       y       z     vdW  Elec       q    Type
REMARK                         _______ _______ _______ _____ _____    ______ ____
ROOT
ATOM      1  N   UNL     1       5.284   6.066  17.764  0.00  0.00    +0.000 N 
ATOM      2  C   UNL     1       4.016   6.773  17.731  0.00  0.00    +0.000 A 
ATOM      3  C   UNL     1       4.016   8.139  17.364  0.00  0.00    +0.000 A 
ATOM      4  C   UNL     1       2.873   8.933  17.450  0.00  0.00    +0.000 A 
ATOM      5  C   UNL     1       1.714   8.372  17.932  0.00  0.00    +0.000 A 
ATOM      6  F   UNL     1       0.609   9.121  18.044  0.00  0.00    +0.000 F 
ATOM      7  C   UNL     1       1.685   7.043  18.337  0.00  0.00    +0.000 A 
ATOM      8  C   UNL     1       2.828   6.206  18.274  0.00  0.00    +0.000 A 
ATOM      9  C   UNL     1       2.756   4.801  18.785  0.00  0.00    +0.000 A 
ATOM     10  C   UNL     1       1.595   4.255  19.373  0.00  0.00    +0.000 A 
ATOM     11  C   UNL     1       1.515   2.920  19.803  0.00  0.00    +0.000 A 
ATOM     12  C   UNL     1       2.608   2.077  19.675  0.00  0.00    +0.000 A 
ATOM     13  C   UNL     1       3.775   2.578  19.120  0.00  0.00    +0.000 A 
ATOM     14  C   UNL     1       3.829   3.914  18.688  0.00  0.00    +0.000 A 
ATOM     15  S   UNL     1       5.287   4.383  17.861  0.00  0.00    +0.000 S 
ATOM     16  O   UNL     1       5.173   3.860  16.515  0.00  0.00    +0.000 OA
ATOM     17  O   UNL     1       6.417   4.011  18.687  0.00  0.00    +0.000 OA
ENDROOT
BRANCH   1  18
ATOM     18  C   UNL     1       6.472   6.593  17.024  0.00  0.00    +0.000 C 
BRANCH  18  20
ATOM     19  O   UNL     1       8.167   6.894  18.687  0.00  0.00    +0.000 OA
ATOM     20  C   UNL     1       7.468   7.428  17.826  0.00  0.00    +0.000 C 
ATOM     21  N   UNL     1       7.501   8.769  17.499  0.00  0.00    +0.000 N 
ATOM     22  H   UNL     1       6.749   9.122  16.906  0.00  0.00    +0.000 HD
BRANCH  21  23
ATOM     23  C   UNL     1       8.300   9.774  18.074  0.00  0.00    +0.000 A 
ATOM     24  C   UNL     1       9.133   9.576  19.168  0.00  0.00    +0.000 A 
ATOM     25  C   UNL     1       9.848  10.653  19.691  0.00  0.00    +0.000 A 
ATOM     26  C   UNL     1       9.709  11.895  19.095  0.00  0.00    +0.000 A 
ATOM     27  N   UNL     1       8.938  12.124  18.011  0.00  0.00    +0.000 NA
ATOM     28  C   UNL     1       8.260  11.058  17.523  0.00  0.00    +0.000 A 
ENDBRANCH  21  23
ENDBRANCH  18  20
ENDBRANCH   1  18
TORSDOF 3
ENDMDL
MODEL 5
REMARK VINA RESULT:      -7.2      1.952      3.855
REMARK  Name = 
REMARK  3 active torsions:
REMARK  status: ('A' for Active; 'I' for Inactive)
REMARK    1  A    between atoms: C_2  and  C_3
REMARK    2  A    between atoms: C_3  and  N_4
REMARK    3  A    between atoms: N_21  and  C_22
REMARK                            x       y       z     vdW  Elec       q    Type
REMARK                         _______ _______ _______ _____ _____    ______ ____
ROOT
ATOM      1  N   UNL     1       4.558   4.605  18.141  0.00  0.00    +0.000 N 
ATOM      2  C   UNL     1       3.746   4.314  19.309  0.00  0.00    +0.000 A 
ATOM      3  C   UNL     1       3.807   3.014  19.864  0.00  0.00    +0.000 A 
ATOM      4  C   UNL     1       2.956   2.601  20.888  0.00  0.00    +0.000 A 
ATOM      5  C   UNL     1       2.007   3.481  21.353  0.00  0.00    +0.000 A 
ATOM      6  F   UNL     1       1.163   3.100  22.321  0.00  0.00    +0.000 F 
ATOM      7  C   UNL     1       1.892   4.754  20.806  0.00  0.00    +0.000 A 
ATOM      8  C   UNL     1       2.733   5.207  19.759  0.00  0.00    +0.000 A 
ATOM      9  C   UNL     1       2.521   6.564  19.162  0.00  0.00    +0.000 A 
ATOM     10  C   UNL     1       1.483   7.430  19.570  0.00  0.00    +0.000 A 
ATOM     11  C   UNL     1       1.320   8.722  19.045  0.00  0.00    +0.000 A 
ATOM     12  C   UNL     1       2.186   9.198  18.073  0.00  0.00    +0.000 A 
ATOM     13  C   UNL     1       3.208   8.373  17.630  0.00  0.00    +0.000 A 
ATOM     14  C   UNL     1       3.358   7.087  18.177  0.00  0.00    +0.000 A 
ATOM     15  S   UNL     1       4.769   6.207  17.663  0.00  0.00    +0.000 S 
ATOM     16  O   UNL     1       5.880   6.753  18.416  0.00  0.00    +0.000 OA
ATOM     17  O   UNL     1       4.807   6.214  16.215  0.00  0.00    +0.000 OA
ENDROOT
BRANCH   1  18
ATOM     18  C   UNL     1       5.737   3.751  17.798  0.00  0.00    +0.000 C 
BRANCH  18  20
ATOM     19  O   UNL     1       7.628   4.696  16.676  0.00  0.00    +0.000 OA
ATOM     20  C   UNL     1       6.534   4.145  16.556  0.00  0.00    +0.000 C 
ATOM     21  N   UNL     1       5.933   3.831  15.353  0.00  0.00    +0.000 N 
ATOM     22  H   UNL     1       4.953   3.548  15.383  0.00  0.00    +0.000 HD
BRANCH  21  23
ATOM     23  C   UNL     1       6.419   4.084  14.058  0.00  0.00    +0.000 A 
ATOM     24  C   UNL     1       6.090   3.327  12.941  0.00  0.00    +0.000 A 
ATOM     25  C   UNL     1       6.665   3.634  11.708  0.00  0.00    +0.000 A 
ATOM     26  C   UNL     1       7.549   4.697  11.634  0.00  0.00    +0.000 A 
ATOM     27  N   UNL     1       7.870   5.479  12.686  0.00  0.00    +0.000 NA
ATOM     28  C   UNL     1       7.292   5.159  13.868  0.00  0.00    +0.000 A 
ENDBRANCH  21  23
ENDBRANCH  18  20
ENDBRANCH   1  18
TORSDOF 3
ENDMDL
MODEL 6
REMARK VINA RESULT:      -7.1      6.194      9.062
REMARK  Name = 
REMARK  3 active torsions:
REMARK  status: ('A' for Active; 'I' for Inactive)
REMARK    1  A    between atoms: C_2  and  C_3
REMARK    2  A    between atoms: C_3  and  N_4
REMARK    3  A    between atoms: N_21  and  C_22
REMARK                            x       y       z     vdW  Elec       q    Type
REMARK                         _______ _______ _______ _____ _____    ______ ____
ROOT
ATOM      1  N   UNL     1      -0.859  11.433  20.233  0.00  0.00    +0.000 N 
ATOM      2  C   UNL     1      -1.673  12.163  21.189  0.00  0.00    +0.000 A 
ATOM      3  C   UNL     1      -1.164  12.360  22.495  0.00  0.00    +0.000 A 
ATOM      4  C   UNL     1      -1.932  12.915  23.517  0.00  0.00    +0.000 A 
ATOM      5  C   UNL     1      -3.237  13.257  23.252  0.00  0.00    +0.000 A 
ATOM      6  F   UNL     1      -4.002  13.771  24.224  0.00  0.00    +0.000 F 
ATOM      7  C   UNL     1      -3.784  13.043  21.991  0.00  0.00    +0.000 A 
ATOM      8  C   UNL     1      -3.038  12.473  20.929  0.00  0.00    +0.000 A 
ATOM      9  C   UNL     1      -3.696  12.205  19.612  0.00  0.00    +0.000 A 
ATOM     10  C   UNL     1      -5.063  12.462  19.368  0.00  0.00    +0.000 A 
ATOM     11  C   UNL     1      -5.664  12.258  18.115  0.00  0.00    +0.000 A 
ATOM     12  C   UNL     1      -4.920  11.771  17.052  0.00  0.00    +0.000 A 
ATOM     13  C   UNL     1      -3.579  11.487  17.253  0.00  0.00    +0.000 A 
ATOM     14  C   UNL     1      -2.996  11.708  18.512  0.00  0.00    +0.000 A 
ATOM     15  S   UNL     1      -1.274  11.471  18.600  0.00  0.00    +0.000 S 
ATOM     16  O   UNL     1      -0.674  12.654  18.017  0.00  0.00    +0.000 OA
ATOM     17  O   UNL     1      -0.966  10.164  18.056  0.00  0.00    +0.000 OA
ENDROOT
BRANCH   1  18
ATOM     18  C   UNL     1       0.614  11.283  20.441  0.00  0.00    +0.000 C 
BRANCH  18  20
ATOM     19  O   UNL     1       1.302   9.575  21.970  0.00  0.00    +0.000 OA
ATOM     20  C   UNL     1       1.121   9.886  20.793  0.00  0.00    +0.000 C 
ATOM     21  N   UNL     1       1.341   9.055  19.712  0.00  0.00    +0.000 N 
ATOM     22  H   UNL     1       1.333   9.486  18.787  0.00  0.00    +0.000 HD
BRANCH  21  23
ATOM     23  C   UNL     1       1.817   7.732  19.727  0.00  0.00    +0.000 A 
ATOM     24  C   UNL     1       1.446   6.783  20.671  0.00  0.00    +0.000 A 
ATOM     25  C   UNL     1       2.015   5.510  20.624  0.00  0.00    +0.000 A 
ATOM     26  C   UNL     1       2.933   5.228  19.627  0.00  0.00    +0.000 A 
ATOM     27  N   UNL     1       3.294   6.109  18.671  0.00  0.00    +0.000 NA
ATOM     28  C   UNL     1       2.722   7.335  18.740  0.00  0.00    +0.000 A 
ENDBRANCH  21  23
ENDBRANCH  18  20
ENDBRANCH   1  18
TORSDOF 3
ENDMDL
MODEL 7
REMARK VINA RESULT:      -7.0      7.594      9.734
REMARK  Name = 
REMARK  3 active torsions:
REMARK  status: ('A' for Active; 'I' for Inactive)
REMARK    1  A    between atoms: C_2  and  C_3
REMARK    2  A    between atoms: C_3  and  N_4
REMARK    3  A    between atoms: N_21  and  C_22
REMARK                            x       y       z     vdW  Elec       q    Type
REMARK                         _______ _______ _______ _____ _____    ______ ____
ROOT
ATOM      1  N   UNL     1       9.544  11.864  19.662  0.00  0.00    +0.000 N 
ATOM      2  C   UNL     1       9.153  12.369  20.966  0.00  0.00    +0.000 A 
ATOM      3  C   UNL     1       8.657  11.451  21.922  0.00  0.00    +0.000 A 
ATOM      4  C   UNL     1       8.120  11.864  23.141  0.00  0.00    +0.000 A 
ATOM      5  C   UNL     1       8.047  13.211  23.409  0.00  0.00    +0.000 A 
ATOM      6  F   UNL     1       7.515  13.633  24.563  0.00  0.00    +0.000 F 
ATOM      7  C   UNL     1       8.490  14.144  22.478  0.00  0.00    +0.000 A 
ATOM      8  C   UNL     1       9.033  13.764  21.224  0.00  0.00    +0.000 A 
ATOM      9  C   UNL     1       9.433  14.812  20.233  0.00  0.00    +0.000 A 
ATOM     10  C   UNL     1       9.266  16.194  20.466  0.00  0.00    +0.000 A 
ATOM     11  C   UNL     1       9.691  17.176  19.556  0.00  0.00    +0.000 A 
ATOM     12  C   UNL     1      10.291  16.811  18.361  0.00  0.00    +0.000 A 
ATOM     13  C   UNL     1      10.457  15.463  18.084  0.00  0.00    +0.000 A 
ATOM     14  C   UNL     1      10.034  14.498  19.014  0.00  0.00    +0.000 A 
ATOM     15  S   UNL     1      10.442  12.850  18.632  0.00  0.00    +0.000 S 
ATOM     16  O   UNL     1      11.841  12.692  18.973  0.00  0.00    +0.000 OA
ATOM     17  O   UNL     1       9.993  12.571  17.283  0.00  0.00    +0.000 OA
ENDROOT
BRANCH   1  18
ATOM     18  C   UNL     1       9.846  10.413  19.464  0.00  0.00    +0.000 C 
BRANCH  18  20
ATOM     19  O   UNL     1       8.004  10.138  17.961  0.00  0.00    +0.000 OA
ATOM     20  C   UNL     1       8.798   9.586  18.721  0.00  0.00    +0.000 C 
ATOM     21  N   UNL     1       8.837   8.229  18.978  0.00  0.00    +0.000 N 
ATOM     22  H   UNL     1       9.413   7.921  19.762  0.00  0.00    +0.000 HD
BRANCH  21  23
ATOM     23  C   UNL     1       7.994   7.232  18.456  0.00  0.00    +0.000 A 
ATOM     24  C   UNL     1       7.234   7.380  17.303  0.00  0.00    +0.000 A 
ATOM     25  C   UNL     1       6.393   6.345  16.896  0.00  0.00    +0.000 A 
ATOM     26  C   UNL     1       6.347   5.189  17.657  0.00  0.00    +0.000 A 
ATOM     27  N   UNL     1       7.094   4.990  18.763  0.00  0.00    +0.000 NA
ATOM     28  C   UNL     1       7.904   6.011  19.130  0.00  0.00    +0.000 A 
ENDBRANCH  21  23
ENDBRANCH  18  20
ENDBRANCH   1  18
TORSDOF 3
ENDMDL
MODEL 8
REMARK VINA RESULT:      -6.8      9.286     11.590
REMARK  Name = 
REMARK  3 active torsions:
REMARK  status: ('A' for Active; 'I' for Inactive)
REMARK    1  A    between atoms: C_2  and  C_3
REMARK    2  A    between atoms: C_3  and  N_4
REMARK    3  A    between atoms: N_21  and  C_22
REMARK                            x       y       z     vdW  Elec       q    Type
REMARK                         _______ _______ _______ _____ _____    ______ ____
ROOT
ATOM      1  N   UNL     1      -2.676  12.586  20.008  0.00  0.00    +0.000 N 
ATOM      2  C   UNL     1      -2.835  11.624  18.932  0.00  0.00    +0.000 A 
ATOM      3  C   UNL     1      -1.689  10.933  18.472  0.00  0.00    +0.000 A 
ATOM      4  C   UNL     1      -1.719  10.106  17.350  0.00  0.00    +0.000 A 
ATOM      5  C   UNL     1      -2.897   9.981  16.653  0.00  0.00    +0.000 A 
ATOM      6  F   UNL     1      -2.945   9.210  15.558  0.00  0.00    +0.000 F 
ATOM      7  C   UNL     1      -4.035  10.674  17.052  0.00  0.00    +0.000 A 
ATOM      8  C   UNL     1      -4.042  11.531  18.182  0.00  0.00    +0.000 A 
ATOM      9  C   UNL     1      -5.276  12.303  18.528  0.00  0.00    +0.000 A 
ATOM     10  C   UNL     1      -6.456  12.254  17.755  0.00  0.00    +0.000 A 
ATOM     11  C   UNL     1      -7.630  12.938  18.112  0.00  0.00    +0.000 A 
ATOM     12  C   UNL     1      -7.664  13.718  19.258  0.00  0.00    +0.000 A 
ATOM     13  C   UNL     1      -6.520  13.811  20.035  0.00  0.00    +0.000 A 
ATOM     14  C   UNL     1      -5.361  13.108  19.664  0.00  0.00    +0.000 A 
ATOM     15  S   UNL     1      -4.044  13.169  20.800  0.00  0.00    +0.000 S 
ATOM     16  O   UNL     1      -4.379  12.233  21.855  0.00  0.00    +0.000 OA
ATOM     17  O   UNL     1      -3.786  14.557  21.123  0.00  0.00    +0.000 OA
ENDROOT
BRANCH   1  18
ATOM     18  C   UNL     1      -1.479  12.540  20.903  0.00  0.00    +0.000 C 
BRANCH  18  20
ATOM     19  O   UNL     1       0.033  14.202  21.728  0.00  0.00    +0.000 OA
ATOM     20  C   UNL     1      -0.451  13.659  20.736  0.00  0.00    +0.000 C 
ATOM     21  N   UNL     1      -0.141  13.976  19.428  0.00  0.00    +0.000 N 
ATOM     22  H   UNL     1      -0.742  13.587  18.701  0.00  0.00    +0.000 HD
BRANCH  21  23
ATOM     23  C   UNL     1       0.750  14.963  18.971  0.00  0.00    +0.000 A 
ATOM     24  C   UNL     1       0.430  16.310  18.864  0.00  0.00    +0.000 A 
ATOM     25  C   UNL     1       1.373  17.202  18.354  0.00  0.00    +0.000 A 
ATOM     26  C   UNL     1       2.612  16.714  17.974  0.00  0.00    +0.000 A 
ATOM     27  N   UNL     1       2.976  15.420  18.095  0.00  0.00    +0.000 NA
ATOM     28  C   UNL     1       2.041  14.579  18.597  0.00  0.00    +0.000 A 
ENDBRANCH  21  23
ENDBRANCH  18  20
ENDBRANCH   1  18
TORSDOF 3
ENDMDL
MODEL 9
REMARK VINA RESULT:      -6.8      5.138      7.252
REMARK  Name = 
REMARK  3 active torsions:
REMARK  status: ('A' for Active; 'I' for Inactive)
REMARK    1  A    between atoms: C_2  and  C_3
REMARK    2  A    between atoms: C_3  and  N_4
REMARK    3  A    between atoms: N_21  and  C_22
REMARK                            x       y       z     vdW  Elec       q    Type
REMARK                         _______ _______ _______ _____ _____    ______ ____
ROOT
ATOM      1  N   UNL     1       0.950  10.679  19.348  0.00  0.00    +0.000 N 
ATOM      2  C   UNL     1       1.492  12.012  19.154  0.00  0.00    +0.000 A 
ATOM      3  C   UNL     1       2.511  12.191  18.189  0.00  0.00    +0.000 A 
ATOM      4  C   UNL     1       3.192  13.399  18.040  0.00  0.00    +0.000 A 
ATOM      5  C   UNL     1       2.878  14.442  18.879  0.00  0.00    +0.000 A 
ATOM      6  F   UNL     1       3.533  15.605  18.770  0.00  0.00    +0.000 F 
ATOM      7  C   UNL     1       1.908  14.292  19.864  0.00  0.00    +0.000 A 
ATOM      8  C   UNL     1       1.200  13.078  20.052  0.00  0.00    +0.000 A 
ATOM      9  C   UNL     1       0.214  12.952  21.170  0.00  0.00    +0.000 A 
ATOM     10  C   UNL     1      -0.037  13.989  22.095  0.00  0.00    +0.000 A 
ATOM     11  C   UNL     1      -1.002  13.887  23.111  0.00  0.00    +0.000 A 
ATOM     12  C   UNL     1      -1.749  12.728  23.252  0.00  0.00    +0.000 A 
ATOM     13  C   UNL     1      -1.521  11.677  22.377  0.00  0.00    +0.000 A 
ATOM     14  C   UNL     1      -0.558  11.806  21.362  0.00  0.00    +0.000 A 
ATOM     15  S   UNL     1      -0.475  10.489  20.227  0.00  0.00    +0.000 S 
ATOM     16  O   UNL     1      -1.587  10.672  19.317  0.00  0.00    +0.000 OA
ATOM     17  O   UNL     1      -0.349   9.254  20.973  0.00  0.00    +0.000 OA
ENDROOT
BRANCH   1  18
ATOM     18  C   UNL     1       1.112   9.628  18.297  0.00  0.00    +0.000 C 
BRANCH  18  20
ATOM     19  O   UNL     1       2.075   8.045  19.812  0.00  0.00    +0.000 OA
ATOM     20  C   UNL     1       1.999   8.434  18.648  0.00  0.00    +0.000 C 
ATOM     21  N   UNL     1       2.665   7.869  17.578  0.00  0.00    +0.000 N 
ATOM     22  H   UNL     1       2.667   8.393  16.703  0.00  0.00    +0.000 HD
BRANCH  21  23
ATOM     23  C   UNL     1       3.554   6.779  17.599  0.00  0.00    +0.000 A 
ATOM     24  C   UNL     1       3.174   5.470  17.866  0.00  0.00    +0.000 A 
ATOM     25  C   UNL     1       4.143   4.469  17.908  0.00  0.00    +0.000 A 
ATOM     26  C   UNL     1       5.464   4.812  17.675  0.00  0.00    +0.000 A 
ATOM     27  N   UNL     1       5.871   6.064  17.378  0.00  0.00    +0.000 NA
ATOM     28  C   UNL     1       4.907   7.014  17.339  0.00  0.00    +0.000 A 
ENDBRANCH  21  23
ENDBRANCH  18  20
ENDBRANCH   1  18
TORSDOF 3
ENDMDL
