MODEL 1
REMARK VINA RESULT:      -7.7      0.000      0.000
REMARK  Name = 
REMARK  7 active torsions:
REMARK  status: ('A' for Active; 'I' for Inactive)
REMARK    1  A    between atoms: C_1  and  C_2
REMARK    2  A    between atoms: C_6  and  N_7
REMARK    3  A    between atoms: C_11  and  C_12
REMARK    4  A    between atoms: C_15  and  C_16
REMARK    5  A    between atoms: C_16  and  N_17
REMARK    6  A    between atoms: C_21  and  C_22
REMARK    7  A    between atoms: N_23  and  C_24
REMARK                            x       y       z     vdW  Elec       q    Type
REMARK                         _______ _______ _______ _____ _____    ______ ____
ROOT
ATOM      1  N   UNL     1       4.182   4.844  18.779  0.00  0.00    +0.000 N 
ATOM      2  C   UNL     1       3.769   3.793  19.702  0.00  0.00    +0.000 C 
ATOM      3  C   UNL     1       2.241   3.741  19.626  0.00  0.00    +0.000 C 
ATOM      4  C   UNL     1       1.621   5.098  19.975  0.00  0.00    +0.000 C 
ATOM      5  C   UNL     1       2.249   6.279  19.196  0.00  0.00    +0.000 C 
ATOM      6  C   UNL     1       3.792   6.196  19.189  0.00  0.00    +0.000 C 
ENDROOT
BRANCH   1  12
ATOM      7  C   UNL     1       5.971   4.021  14.410  0.00  0.00    +0.000 C 
ATOM      8  C   UNL     1       6.186   4.289  15.867  0.00  0.00    +0.000 A 
ATOM      9  N   UNL     1       7.453   4.417  16.294  0.00  0.00    +0.000 NA
ATOM     10  C   UNL     1       7.605   4.655  17.603  0.00  0.00    +0.000 A 
ATOM     11  C   UNL     1       6.552   4.747  18.484  0.00  0.00    +0.000 A 
ATOM     12  C   UNL     1       5.276   4.617  17.966  0.00  0.00    +0.000 A 
ATOM     13  N   UNL     1       5.094   4.390  16.652  0.00  0.00    +0.000 NA
ENDBRANCH   1  12
BRANCH   5  14
ATOM     14  C   UNL     1       1.789   7.580  19.791  0.00  0.00    +0.000 A 
ATOM     15  N   UNL     1       1.395   7.744  21.035  0.00  0.00    +0.000 NA
ATOM     16  N   UNL     1       0.988   9.037  21.190  0.00  0.00    +0.000 NA
ATOM     17  C   UNL     1       1.112   9.661  20.037  0.00  0.00    +0.000 A 
ATOM     18  N   UNL     1       1.685   8.789  19.137  0.00  0.00    +0.000 N 
ATOM     19  C   UNL     1       2.147   9.065  17.802  0.00  0.00    +0.000 C 
BRANCH  17  20
ATOM     20  C   UNL     1       0.766  11.090  19.817  0.00  0.00    +0.000 C 
BRANCH  20  21
ATOM     21  N   UNL     1      -0.670  11.347  19.773  0.00  0.00    +0.000 N 
ATOM     22  C   UNL     1      -1.435  11.276  18.632  0.00  0.00    +0.000 A 
ATOM     23  C   UNL     1      -2.648  11.820  18.972  0.00  0.00    +0.000 A 
ATOM     24  N   UNL     1      -2.657  12.193  20.285  0.00  0.00    +0.000 NA
ATOM     25  C   UNL     1      -1.459  11.909  20.757  0.00  0.00    +0.000 A 
ATOM     26  C   UNL     1      -1.014  12.176  22.150  0.00  0.00    +0.000 C 
ENDBRANCH  20  21
ENDBRANCH  17  20
ENDBRANCH   5  14
TORSDOF 4
ENDMDL
MODEL 2
REMARK VINA RESULT:      -7.3      1.059      1.576
REMARK  Name = 
REMARK  7 active torsions:
REMARK  status: ('A' for Active; 'I' for Inactive)
REMARK    1  A    between atoms: C_1  and  C_2
REMARK    2  A    between atoms: C_6  and  N_7
REMARK    3  A    between atoms: C_11  and  C_12
REMARK    4  A    between atoms: C_15  and  C_16
REMARK    5  A    between atoms: C_16  and  N_17
REMARK    6  A    between atoms: C_21  and  C_22
REMARK    7  A    between atoms: N_23  and  C_24
REMARK                            x       y       z     vdW  Elec       q    Type
REMARK                         _______ _______ _______ _____ _____    ______ ____
ROOT
ATOM      1  N   UNL     1       4.307   4.838  18.743  0.00  0.00    +0.000 N 
ATOM      2  C   UNL     1       3.948   3.819  19.723  0.00  0.00    +0.000 C 
ATOM      3  C   UNL     1       2.422   3.713  19.681  0.00  0.00    +0.000 C 
ATOM      4  C   UNL     1       1.762   5.063  19.980  0.00  0.00    +0.000 C 
ATOM      5  C   UNL     1       2.334   6.226  19.133  0.00  0.00    +0.000 C 
ATOM      6  C   UNL     1       3.878   6.194  19.098  0.00  0.00    +0.000 C 
ENDROOT
BRANCH   1  12
ATOM      7  C   UNL     1       6.050   4.030  14.354  0.00  0.00    +0.000 C 
ATOM      8  C   UNL     1       6.280   4.288  15.810  0.00  0.00    +0.000 A 
ATOM      9  N   UNL     1       7.552   4.407  16.226  0.00  0.00    +0.000 NA
ATOM     10  C   UNL     1       7.717   4.638  17.534  0.00  0.00    +0.000 A 
ATOM     11  C   UNL     1       6.673   4.731  18.425  0.00  0.00    +0.000 A 
ATOM     12  C   UNL     1       5.391   4.610  17.919  0.00  0.00    +0.000 A 
ATOM     13  N   UNL     1       5.196   4.391  16.605  0.00  0.00    +0.000 NA
ENDBRANCH   1  12
BRANCH   5  14
ATOM     14  C   UNL     1       1.840   7.538  19.676  0.00  0.00    +0.000 A 
ATOM     15  N   UNL     1       1.509   7.760  20.930  0.00  0.00    +0.000 NA
ATOM     16  N   UNL     1       1.044   9.039  21.031  0.00  0.00    +0.000 NA
ATOM     17  C   UNL     1       1.071   9.594  19.837  0.00  0.00    +0.000 A 
ATOM     18  N   UNL     1       1.637   8.697  18.959  0.00  0.00    +0.000 N 
ATOM     19  C   UNL     1       2.008   8.911  17.584  0.00  0.00    +0.000 C 
BRANCH  17  20
ATOM     20  C   UNL     1       0.639  10.989  19.553  0.00  0.00    +0.000 C 
BRANCH  20  21
ATOM     21  N   UNL     1       0.367  11.776  20.752  0.00  0.00    +0.000 N 
ATOM     22  C   UNL     1      -0.770  11.657  21.516  0.00  0.00    +0.000 A 
ATOM     23  C   UNL     1      -0.743  12.723  22.379  0.00  0.00    +0.000 A 
ATOM     24  N   UNL     1       0.384  13.469  22.187  0.00  0.00    +0.000 NA
ATOM     25  C   UNL     1       1.044  12.894  21.200  0.00  0.00    +0.000 A 
ATOM     26  C   UNL     1       2.325  13.391  20.637  0.00  0.00    +0.000 C 
ENDBRANCH  20  21
ENDBRANCH  17  20
ENDBRANCH   5  14
TORSDOF 4
ENDMDL
MODEL 3
REMARK VINA RESULT:      -7.3      0.556      1.235
REMARK  Name = 
REMARK  7 active torsions:
REMARK  status: ('A' for Active; 'I' for Inactive)
REMARK    1  A    between atoms: C_1  and  C_2
REMARK    2  A    between atoms: C_6  and  N_7
REMARK    3  A    between atoms: C_11  and  C_12
REMARK    4  A    between atoms: C_15  and  C_16
REMARK    5  A    between atoms: C_16  and  N_17
REMARK    6  A    between atoms: C_21  and  C_22
REMARK    7  A    between atoms: N_23  and  C_24
REMARK                            x       y       z     vdW  Elec       q    Type
REMARK                         _______ _______ _______ _____ _____    ______ ____
ROOT
ATOM      1  N   UNL     1       4.181   4.963  18.824  0.00  0.00    +0.000 N 
ATOM      2  C   UNL     1       3.794   3.976  19.826  0.00  0.00    +0.000 C 
ATOM      3  C   UNL     1       2.266   3.906  19.781  0.00  0.00    +0.000 C 
ATOM      4  C   UNL     1       1.639   5.278  20.047  0.00  0.00    +0.000 C 
ATOM      5  C   UNL     1       2.242   6.408  19.177  0.00  0.00    +0.000 C 
ATOM      6  C   UNL     1       3.785   6.337  19.147  0.00  0.00    +0.000 C 
ENDROOT
BRANCH   1  12
ATOM      7  C   UNL     1       5.917   4.021  14.458  0.00  0.00    +0.000 C 
ATOM      8  C   UNL     1       6.149   4.302  15.910  0.00  0.00    +0.000 A 
ATOM      9  N   UNL     1       7.422   4.395  16.328  0.00  0.00    +0.000 NA
ATOM     10  C   UNL     1       7.588   4.647  17.633  0.00  0.00    +0.000 A 
ATOM     11  C   UNL     1       6.544   4.785  18.518  0.00  0.00    +0.000 A 
ATOM     12  C   UNL     1       5.262   4.689  18.008  0.00  0.00    +0.000 A 
ATOM     13  N   UNL     1       5.065   4.450  16.699  0.00  0.00    +0.000 NA
ENDBRANCH   1  12
BRANCH   5  14
ATOM     14  C   UNL     1       1.779   7.743  19.688  0.00  0.00    +0.000 A 
ATOM     15  N   UNL     1       1.314   7.969  20.897  0.00  0.00    +0.000 NA
ATOM     16  N   UNL     1       0.931   9.276  20.974  0.00  0.00    +0.000 NA
ATOM     17  C   UNL     1       1.143   9.847  19.806  0.00  0.00    +0.000 A 
ATOM     18  N   UNL     1       1.748   8.925  18.980  0.00  0.00    +0.000 N 
ATOM     19  C   UNL     1       2.299   9.134  17.667  0.00  0.00    +0.000 C 
BRANCH  17  20
ATOM     20  C   UNL     1       0.849  11.274  19.507  0.00  0.00    +0.000 C 
BRANCH  20  21
ATOM     21  N   UNL     1      -0.576  11.589  19.486  0.00  0.00    +0.000 N 
ATOM     22  C   UNL     1      -1.215  12.350  20.435  0.00  0.00    +0.000 A 
ATOM     23  C   UNL     1      -2.556  12.196  20.185  0.00  0.00    +0.000 A 
ATOM     24  N   UNL     1      -2.752  11.392  19.100  0.00  0.00    +0.000 NA
ATOM     25  C   UNL     1      -1.554  11.026  18.689  0.00  0.00    +0.000 A 
ATOM     26  C   UNL     1      -1.294  10.119  17.541  0.00  0.00    +0.000 C 
ENDBRANCH  20  21
ENDBRANCH  17  20
ENDBRANCH   5  14
TORSDOF 4
ENDMDL
MODEL 4
REMARK VINA RESULT:      -7.3      2.466      8.575
REMARK  Name = 
REMARK  7 active torsions:
REMARK  status: ('A' for Active; 'I' for Inactive)
REMARK    1  A    between atoms: C_1  and  C_2
REMARK    2  A    between atoms: C_6  and  N_7
REMARK    3  A    between atoms: C_11  and  C_12
REMARK    4  A    between atoms: C_15  and  C_16
REMARK    5  A    between atoms: C_16  and  N_17
REMARK    6  A    between atoms: C_21  and  C_22
REMARK    7  A    between atoms: N_23  and  C_24
REMARK                            x       y       z     vdW  Elec       q    Type
REMARK                         _______ _______ _______ _____ _____    ______ ____
ROOT
ATOM      1  N   UNL     1      -1.114  10.850  18.341  0.00  0.00    +0.000 N 
ATOM      2  C   UNL     1      -0.980  11.494  19.643  0.00  0.00    +0.000 C 
ATOM      3  C   UNL     1       0.455  12.020  19.707  0.00  0.00    +0.000 C 
ATOM      4  C   UNL     1       1.470  10.890  19.512  0.00  0.00    +0.000 C 
ATOM      5  C   UNL     1       1.180  10.010  18.272  0.00  0.00    +0.000 C 
ATOM      6  C   UNL     1      -0.316   9.631  18.186  0.00  0.00    +0.000 C 
ENDROOT
BRANCH   1  12
ATOM      7  C   UNL     1      -3.631  10.194  14.316  0.00  0.00    +0.000 C 
ATOM      8  C   UNL     1      -3.545  10.709  15.719  0.00  0.00    +0.000 A 
ATOM      9  N   UNL     1      -4.654  11.249  16.251  0.00  0.00    +0.000 NA
ATOM     10  C   UNL     1      -4.537  11.698  17.507  0.00  0.00    +0.000 A 
ATOM     11  C   UNL     1      -3.366  11.643  18.226  0.00  0.00    +0.000 A 
ATOM     12  C   UNL     1      -2.270  11.060  17.614  0.00  0.00    +0.000 A 
ATOM     13  N   UNL     1      -2.363  10.588  16.357  0.00  0.00    +0.000 NA
ENDBRANCH   1  12
BRANCH   5  14
ATOM     14  C   UNL     1       2.041   8.779  18.310  0.00  0.00    +0.000 A 
ATOM     15  N   UNL     1       2.848   8.392  17.346  0.00  0.00    +0.000 NA
ATOM     16  N   UNL     1       3.408   7.202  17.707  0.00  0.00    +0.000 NA
ATOM     17  C   UNL     1       2.930   6.849  18.883  0.00  0.00    +0.000 A 
ATOM     18  N   UNL     1       2.111   7.859  19.334  0.00  0.00    +0.000 N 
ATOM     19  C   UNL     1       1.487   7.990  20.625  0.00  0.00    +0.000 C 
BRANCH  17  20
ATOM     20  C   UNL     1       3.313   5.604  19.602  0.00  0.00    +0.000 C 
BRANCH  20  21
ATOM     21  N   UNL     1       2.310   4.547  19.521  0.00  0.00    +0.000 N 
ATOM     22  C   UNL     1       1.441   4.224  20.537  0.00  0.00    +0.000 A 
ATOM     23  C   UNL     1       0.854   3.044  20.156  0.00  0.00    +0.000 A 
ATOM     24  N   UNL     1       1.314   2.654  18.931  0.00  0.00    +0.000 NA
ATOM     25  C   UNL     1       2.195   3.563  18.560  0.00  0.00    +0.000 A 
ATOM     26  C   UNL     1       2.969   3.521  17.292  0.00  0.00    +0.000 C 
ENDBRANCH  20  21
ENDBRANCH  17  20
ENDBRANCH   5  14
TORSDOF 4
ENDMDL
MODEL 5
REMARK VINA RESULT:      -7.2      1.464      2.229
REMARK  Name = 
REMARK  7 active torsions:
REMARK  status: ('A' for Active; 'I' for Inactive)
REMARK    1  A    between atoms: C_1  and  C_2
REMARK    2  A    between atoms: C_6  and  N_7
REMARK    3  A    between atoms: C_11  and  C_12
REMARK    4  A    between atoms: C_15  and  C_16
REMARK    5  A    between atoms: C_16  and  N_17
REMARK    6  A    between atoms: C_21  and  C_22
REMARK    7  A    between atoms: N_23  and  C_24
REMARK                            x       y       z     vdW  Elec       q    Type
REMARK                         _______ _______ _______ _____ _____    ______ ____
ROOT
ATOM      1  N   UNL     1       4.226   5.092  18.946  0.00  0.00    +0.000 N 
ATOM      2  C   UNL     1       3.964   4.134  20.014  0.00  0.00    +0.000 C 
ATOM      3  C   UNL     1       2.443   3.980  20.079  0.00  0.00    +0.000 C 
ATOM      4  C   UNL     1       1.758   5.327  20.328  0.00  0.00    +0.000 C 
ATOM      5  C   UNL     1       2.235   6.445  19.369  0.00  0.00    +0.000 C 
ATOM      6  C   UNL     1       3.774   6.456  19.235  0.00  0.00    +0.000 C 
ENDROOT
BRANCH   1  12
ATOM      7  C   UNL     1       5.750   4.366  14.462  0.00  0.00    +0.000 C 
ATOM      8  C   UNL     1       6.050   4.554  15.916  0.00  0.00    +0.000 A 
ATOM      9  N   UNL     1       7.342   4.589  16.284  0.00  0.00    +0.000 NA
ATOM     10  C   UNL     1       7.570   4.758  17.592  0.00  0.00    +0.000 A 
ATOM     11  C   UNL     1       6.568   4.871  18.528  0.00  0.00    +0.000 A 
ATOM     12  C   UNL     1       5.263   4.839  18.070  0.00  0.00    +0.000 A 
ATOM     13  N   UNL     1       5.006   4.684  16.758  0.00  0.00    +0.000 NA
ENDBRANCH   1  12
BRANCH   5  14
ATOM     14  C   UNL     1       1.732   7.776  19.852  0.00  0.00    +0.000 A 
ATOM     15  N   UNL     1       1.517   8.090  21.112  0.00  0.00    +0.000 NA
ATOM     16  N   UNL     1       1.001   9.352  21.158  0.00  0.00    +0.000 NA
ATOM     17  C   UNL     1       0.879   9.804  19.927  0.00  0.00    +0.000 A 
ATOM     18  N   UNL     1       1.398   8.859  19.069  0.00  0.00    +0.000 N 
ATOM     19  C   UNL     1       1.618   8.971  17.650  0.00  0.00    +0.000 C 
BRANCH  17  20
ATOM     20  C   UNL     1       0.349  11.149  19.578  0.00  0.00    +0.000 C 
BRANCH  20  21
ATOM     21  N   UNL     1       1.187  12.250  20.045  0.00  0.00    +0.000 N 
ATOM     22  C   UNL     1       0.966  12.952  21.206  0.00  0.00    +0.000 A 
ATOM     23  C   UNL     1       1.809  14.033  21.145  0.00  0.00    +0.000 A 
ATOM     24  N   UNL     1       2.554  13.997  20.002  0.00  0.00    +0.000 NA
ATOM     25  C   UNL     1       2.168  12.922  19.342  0.00  0.00    +0.000 A 
ATOM     26  C   UNL     1       2.701  12.505  18.020  0.00  0.00    +0.000 C 
ENDBRANCH  20  21
ENDBRANCH  17  20
ENDBRANCH   5  14
TORSDOF 4
ENDMDL
MODEL 6
REMARK VINA RESULT:      -7.2      2.442      9.064
REMARK  Name = 
REMARK  7 active torsions:
REMARK  status: ('A' for Active; 'I' for Inactive)
REMARK    1  A    between atoms: C_1  and  C_2
REMARK    2  A    between atoms: C_6  and  N_7
REMARK    3  A    between atoms: C_11  and  C_12
REMARK    4  A    between atoms: C_15  and  C_16
REMARK    5  A    between atoms: C_16  and  N_17
REMARK    6  A    between atoms: C_21  and  C_22
REMARK    7  A    between atoms: N_23  and  C_24
REMARK                            x       y       z     vdW  Elec       q    Type
REMARK                         _______ _______ _______ _____ _____    ______ ____
ROOT
ATOM      1  N   UNL     1      -1.581  11.167  18.824  0.00  0.00    +0.000 N 
ATOM      2  C   UNL     1      -1.286  11.895  20.053  0.00  0.00    +0.000 C 
ATOM      3  C   UNL     1       0.129  12.453  19.884  0.00  0.00    +0.000 C 
ATOM      4  C   UNL     1       1.140  11.334  19.615  0.00  0.00    +0.000 C 
ATOM      5  C   UNL     1       0.705  10.372  18.484  0.00  0.00    +0.000 C 
ATOM      6  C   UNL     1      -0.776   9.957  18.632  0.00  0.00    +0.000 C 
ENDROOT
BRANCH   1  12
ATOM      7  C   UNL     1      -6.115  12.680  19.163  0.00  0.00    +0.000 C 
ATOM      8  C   UNL     1      -5.007  12.083  18.352  0.00  0.00    +0.000 A 
ATOM      9  N   UNL     1      -5.255  11.822  17.058  0.00  0.00    +0.000 NA
ATOM     10  C   UNL     1      -4.240  11.290  16.366  0.00  0.00    +0.000 A 
ATOM     11  C   UNL     1      -3.016  10.997  16.921  0.00  0.00    +0.000 A 
ATOM     12  C   UNL     1      -2.832  11.307  18.257  0.00  0.00    +0.000 A 
ATOM     13  N   UNL     1      -3.832  11.855  18.972  0.00  0.00    +0.000 NA
ENDBRANCH   1  12
BRANCH   5  14
ATOM     14  C   UNL     1       1.598   9.164  18.474  0.00  0.00    +0.000 A 
ATOM     15  N   UNL     1       2.348   8.787  17.460  0.00  0.00    +0.000 NA
ATOM     16  N   UNL     1       2.962   7.615  17.793  0.00  0.00    +0.000 NA
ATOM     17  C   UNL     1       2.575   7.263  19.002  0.00  0.00    +0.000 A 
ATOM     18  N   UNL     1       1.762   8.257  19.499  0.00  0.00    +0.000 N 
ATOM     19  C   UNL     1       1.225   8.385  20.829  0.00  0.00    +0.000 C 
BRANCH  17  20
ATOM     20  C   UNL     1       3.038   6.036  19.704  0.00  0.00    +0.000 C 
BRANCH  20  21
ATOM     21  N   UNL     1       2.150   4.890  19.533  0.00  0.00    +0.000 N 
ATOM     22  C   UNL     1       1.230   4.477  20.468  0.00  0.00    +0.000 A 
ATOM     23  C   UNL     1       0.793   3.251  20.033  0.00  0.00    +0.000 A 
ATOM     24  N   UNL     1       1.393   2.919  18.853  0.00  0.00    +0.000 NA
ATOM     25  C   UNL     1       2.213   3.910  18.563  0.00  0.00    +0.000 A 
ATOM     26  C   UNL     1       3.096   3.954  17.369  0.00  0.00    +0.000 C 
ENDBRANCH  20  21
ENDBRANCH  17  20
ENDBRANCH   5  14
TORSDOF 4
ENDMDL
MODEL 7
REMARK VINA RESULT:      -7.2      1.718      8.562
REMARK  Name = 
REMARK  7 active torsions:
REMARK  status: ('A' for Active; 'I' for Inactive)
REMARK    1  A    between atoms: C_1  and  C_2
REMARK    2  A    between atoms: C_6  and  N_7
REMARK    3  A    between atoms: C_11  and  C_12
REMARK    4  A    between atoms: C_15  and  C_16
REMARK    5  A    between atoms: C_16  and  N_17
REMARK    6  A    between atoms: C_21  and  C_22
REMARK    7  A    between atoms: N_23  and  C_24
REMARK                            x       y       z     vdW  Elec       q    Type
REMARK                         _______ _______ _______ _____ _____    ______ ____
ROOT
ATOM      1  N   UNL     1       0.724   9.774  19.861  0.00  0.00    +0.000 N 
ATOM      2  C   UNL     1       0.026   9.368  21.076  0.00  0.00    +0.000 C 
ATOM      3  C   UNL     1       1.062   8.639  21.934  0.00  0.00    +0.000 C 
ATOM      4  C   UNL     1       1.663   7.446  21.185  0.00  0.00    +0.000 C 
ATOM      5  C   UNL     1       2.163   7.801  19.764  0.00  0.00    +0.000 C 
ATOM      6  C   UNL     1       1.131   8.660  18.999  0.00  0.00    +0.000 C 
ENDROOT
BRANCH   1  12
ATOM      7  C   UNL     1       2.438  13.970  18.307  0.00  0.00    +0.000 C 
ATOM      8  C   UNL     1       1.280  13.049  18.533  0.00  0.00    +0.000 A 
ATOM      9  N   UNL     1       0.071  13.458  18.115  0.00  0.00    +0.000 NA
ATOM     10  C   UNL     1      -0.940  12.608  18.335  0.00  0.00    +0.000 A 
ATOM     11  C   UNL     1      -0.786  11.395  18.965  0.00  0.00    +0.000 A 
ATOM     12  C   UNL     1       0.492  11.038  19.355  0.00  0.00    +0.000 A 
ATOM     13  N   UNL     1       1.528  11.868  19.134  0.00  0.00    +0.000 NA
ENDBRANCH   1  12
BRANCH   5  14
ATOM     14  C   UNL     1       2.474   6.542  19.006  0.00  0.00    +0.000 A 
ATOM     15  N   UNL     1       1.965   5.357  19.268  0.00  0.00    +0.000 NA
ATOM     16  N   UNL     1       2.529   4.449  18.420  0.00  0.00    +0.000 NA
ATOM     17  C   UNL     1       3.400   5.072  17.653  0.00  0.00    +0.000 A 
ATOM     18  N   UNL     1       3.344   6.417  17.945  0.00  0.00    +0.000 N 
ATOM     19  C   UNL     1       4.000   7.503  17.263  0.00  0.00    +0.000 C 
BRANCH  17  20
ATOM     20  C   UNL     1       4.213   4.407  16.600  0.00  0.00    +0.000 C 
BRANCH  20  21
ATOM     21  N   UNL     1       5.643   4.378  16.893  0.00  0.00    +0.000 N 
ATOM     22  C   UNL     1       6.181   4.568  18.143  0.00  0.00    +0.000 A 
ATOM     23  C   UNL     1       7.532   4.709  17.942  0.00  0.00    +0.000 A 
ATOM     24  N   UNL     1       7.835   4.582  16.618  0.00  0.00    +0.000 NA
ATOM     25  C   UNL     1       6.690   4.388  15.992  0.00  0.00    +0.000 A 
ATOM     26  C   UNL     1       6.546   4.225  14.523  0.00  0.00    +0.000 C 
ENDBRANCH  20  21
ENDBRANCH  17  20
ENDBRANCH   5  14
TORSDOF 4
ENDMDL
MODEL 8
REMARK VINA RESULT:      -7.2      0.652      1.340
REMARK  Name = 
REMARK  7 active torsions:
REMARK  status: ('A' for Active; 'I' for Inactive)
REMARK    1  A    between atoms: C_1  and  C_2
REMARK    2  A    between atoms: C_6  and  N_7
REMARK    3  A    between atoms: C_11  and  C_12
REMARK    4  A    between atoms: C_15  and  C_16
REMARK    5  A    between atoms: C_16  and  N_17
REMARK    6  A    between atoms: C_21  and  C_22
REMARK    7  A    between atoms: N_23  and  C_24
REMARK                            x       y       z     vdW  Elec       q    Type
REMARK                         _______ _______ _______ _____ _____    ______ ____
ROOT
ATOM      1  N   UNL     1       4.248   4.699  18.739  0.00  0.00    +0.000 N 
ATOM      2  C   UNL     1       3.784   3.594  19.570  0.00  0.00    +0.000 C 
ATOM      3  C   UNL     1       2.261   3.566  19.422  0.00  0.00    +0.000 C 
ATOM      4  C   UNL     1       1.638   4.903  19.834  0.00  0.00    +0.000 C 
ATOM      5  C   UNL     1       2.311   6.127  19.166  0.00  0.00    +0.000 C 
ATOM      6  C   UNL     1       3.852   6.025  19.222  0.00  0.00    +0.000 C 
ENDROOT
BRANCH   1  12
ATOM      7  C   UNL     1       6.207   3.945  14.431  0.00  0.00    +0.000 C 
ATOM      8  C   UNL     1       6.365   4.221  15.894  0.00  0.00    +0.000 A 
ATOM      9  N   UNL     1       7.611   4.398  16.362  0.00  0.00    +0.000 NA
ATOM     10  C   UNL     1       7.711   4.643  17.674  0.00  0.00    +0.000 A 
ATOM     11  C   UNL     1       6.628   4.694  18.521  0.00  0.00    +0.000 A 
ATOM     12  C   UNL     1       5.375   4.515  17.962  0.00  0.00    +0.000 A 
ATOM     13  N   UNL     1       5.245   4.281  16.643  0.00  0.00    +0.000 NA
ENDBRANCH   1  12
BRANCH   5  14
ATOM     14  C   UNL     1       1.835   7.390  19.825  0.00  0.00    +0.000 A 
ATOM     15  N   UNL     1       1.523   7.506  21.098  0.00  0.00    +0.000 NA
ATOM     16  N   UNL     1       1.071   8.775  21.316  0.00  0.00    +0.000 NA
ATOM     17  C   UNL     1       1.085   9.431  20.174  0.00  0.00    +0.000 A 
ATOM     18  N   UNL     1       1.632   8.608  19.214  0.00  0.00    +0.000 N 
ATOM     19  C   UNL     1       1.986   8.937  17.857  0.00  0.00    +0.000 C 
BRANCH  17  20
ATOM     20  C   UNL     1       0.661  10.847  20.017  0.00  0.00    +0.000 C 
BRANCH  20  21
ATOM     21  N   UNL     1      -0.279  11.297  21.039  0.00  0.00    +0.000 N 
ATOM     22  C   UNL     1      -0.203  10.948  22.367  0.00  0.00    +0.000 A 
ATOM     23  C   UNL     1      -1.386  11.366  22.923  0.00  0.00    +0.000 A 
ATOM     24  N   UNL     1      -2.166  11.980  21.986  0.00  0.00    +0.000 NA
ATOM     25  C   UNL     1      -1.492  11.929  20.853  0.00  0.00    +0.000 A 
ATOM     26  C   UNL     1      -1.981  12.459  19.554  0.00  0.00    +0.000 C 
ENDBRANCH  20  21
ENDBRANCH  17  20
ENDBRANCH   5  14
TORSDOF 4
ENDMDL
MODEL 9
REMARK VINA RESULT:      -7.1      2.180      9.158
REMARK  Name = 
REMARK  7 active torsions:
REMARK  status: ('A' for Active; 'I' for Inactive)
REMARK    1  A    between atoms: C_1  and  C_2
REMARK    2  A    between atoms: C_6  and  N_7
REMARK    3  A    between atoms: C_11  and  C_12
REMARK    4  A    between atoms: C_15  and  C_16
REMARK    5  A    between atoms: C_16  and  N_17
REMARK    6  A    between atoms: C_21  and  C_22
REMARK    7  A    between atoms: N_23  and  C_24
REMARK                            x       y       z     vdW  Elec       q    Type
REMARK                         _______ _______ _______ _____ _____    ______ ____
ROOT
ATOM      1  N   UNL     1       0.064  12.537  19.746  0.00  0.00    +0.000 N 
ATOM      2  C   UNL     1      -0.704  12.856  18.548  0.00  0.00    +0.000 C 
ATOM      3  C   UNL     1      -1.538  11.612  18.237  0.00  0.00    +0.000 C 
ATOM      4  C   UNL     1      -0.650  10.379  18.046  0.00  0.00    +0.000 C 
ATOM      5  C   UNL     1       0.376  10.178  19.188  0.00  0.00    +0.000 C 
ATOM      6  C   UNL     1       1.084  11.503  19.552  0.00  0.00    +0.000 C 
ENDROOT
BRANCH   1  12
ATOM      7  C   UNL     1      -1.434  14.362  23.916  0.00  0.00    +0.000 C 
ATOM      8  C   UNL     1      -0.466  14.367  22.774  0.00  0.00    +0.000 A 
ATOM      9  N   UNL     1       0.554  15.240  22.829  0.00  0.00    +0.000 NA
ATOM     10  C   UNL     1       1.397  15.215  21.790  0.00  0.00    +0.000 A 
ATOM     11  C   UNL     1       1.246  14.376  20.710  0.00  0.00    +0.000 A 
ATOM     12  C   UNL     1       0.179  13.496  20.733  0.00  0.00    +0.000 A 
ATOM     13  N   UNL     1      -0.677  13.491  21.772  0.00  0.00    +0.000 NA
ENDBRANCH   1  12
BRANCH   5  14
ATOM     14  C   UNL     1       1.377   9.130  18.791  0.00  0.00    +0.000 A 
ATOM     15  N   UNL     1       2.011   9.089  17.639  0.00  0.00    +0.000 NA
ATOM     16  N   UNL     1       2.782   7.963  17.613  0.00  0.00    +0.000 NA
ATOM     17  C   UNL     1       2.606   7.304  18.739  0.00  0.00    +0.000 A 
ATOM     18  N   UNL     1       1.773   8.048  19.546  0.00  0.00    +0.000 N 
ATOM     19  C   UNL     1       1.418   7.806  20.921  0.00  0.00    +0.000 C 
BRANCH  17  20
ATOM     20  C   UNL     1       3.284   6.023  19.074  0.00  0.00    +0.000 C 
BRANCH  20  21
ATOM     21  N   UNL     1       2.638   4.848  18.499  0.00  0.00    +0.000 N 
ATOM     22  C   UNL     1       1.532   4.232  19.036  0.00  0.00    +0.000 A 
ATOM     23  C   UNL     1       1.402   3.051  18.349  0.00  0.00    +0.000 A 
ATOM     24  N   UNL     1       2.372   2.942  17.395  0.00  0.00    +0.000 NA
ATOM     25  C   UNL     1       3.116   4.026  17.497  0.00  0.00    +0.000 A 
ATOM     26  C   UNL     1       4.312   4.313  16.663  0.00  0.00    +0.000 C 
ENDBRANCH  20  21
ENDBRANCH  17  20
ENDBRANCH   5  14
TORSDOF 4
ENDMDL
