MODEL 1
REMARK VINA RESULT:      -6.5      0.000      0.000
REMARK  Name = 
REMARK  6 active torsions:
REMARK  status: ('A' for Active; 'I' for Inactive)
REMARK    1  A    between atoms: C_1  and  C_2
REMARK    2  A    between atoms: C_2  and  C_3
REMARK    3  A    between atoms: C_2  and  C_4
REMARK    4  A    between atoms: C_2  and  N_5
REMARK    5  A    between atoms: N_8  and  C_9
REMARK    6  A    between atoms: C_19  and  C_20
REMARK                            x       y       z     vdW  Elec       q    Type
REMARK                         _______ _______ _______ _____ _____    ______ ____
ROOT
ATOM      1  C   UNL     1      -0.427  12.112  18.583  0.00  0.00    +0.000 A 
ATOM      2  N   UNL     1      -0.760  13.399  18.268  0.00  0.00    +0.000 NA
ATOM      3  C   UNL     1      -0.191  14.426  18.887  0.00  0.00    +0.000 A 
ATOM      4  N   UNL     1      -0.485  15.664  18.509  0.00  0.00    +0.000 NA
ATOM      5  C   UNL     1       0.062  16.678  19.182  0.00  0.00    +0.000 A 
ATOM      6  N   UNL     1      -0.151  17.957  18.724  0.00  0.00    +0.000 N 
ATOM      7  N   UNL     1       0.811  16.546  20.276  0.00  0.00    +0.000 NA
ATOM      8  C   UNL     1       1.114  15.291  20.631  0.00  0.00    +0.000 A 
ATOM      9  C   UNL     1       0.693  14.184  19.929  0.00  0.00    +0.000 A 
ATOM     10  C   UNL     1       1.078  12.862  20.221  0.00  0.00    +0.000 A 
ATOM     11  C   UNL     1       0.508  11.757  19.569  0.00  0.00    +0.000 A 
ATOM     12  H   UNL     1      -0.959  18.003  18.120  0.00  0.00    +0.000 HD
ATOM     13  H   UNL     1      -0.079  18.627  19.476  0.00  0.00    +0.000 HD
ENDROOT
BRANCH  11  14
ATOM     14  C   UNL     1       0.819  10.359  20.059  0.00  0.00    +0.000 A 
ATOM     15  C   UNL     1       0.380   9.855  21.312  0.00  0.00    +0.000 A 
ATOM     16 CL   UNL     1      -0.655  10.733  22.393  0.00  0.00    +0.000 Cl
ATOM     17  C   UNL     1       0.677   8.551  21.743  0.00  0.00    +0.000 A 
ATOM     18  C   UNL     1       1.291   7.647  20.890  0.00  0.00    +0.000 A 
ATOM     19  C   UNL     1       1.694   8.069  19.631  0.00  0.00    +0.000 A 
ATOM     20 CL   UNL     1       2.329   6.853  18.572  0.00  0.00    +0.000 Cl
ATOM     21  C   UNL     1       1.542   9.421  19.249  0.00  0.00    +0.000 A 
ATOM     22 CL   UNL     1       2.338   9.915  17.769  0.00  0.00    +0.000 Cl
ENDBRANCH  11  14
BRANCH   1  26
ATOM     23  N   UNL     1      -3.214  11.833  18.289  0.00  0.00    +0.000 N 
ATOM     24  C   UNL     1      -2.403  10.999  17.584  0.00  0.00    +0.000 C 
ATOM     25  O   UNL     1      -2.787  10.086  16.860  0.00  0.00    +0.000 OA
ATOM     26  N   UNL     1      -1.074  11.127  17.835  0.00  0.00    +0.000 N 
ATOM     27  H   UNL     1      -2.781  12.733  18.478  0.00  0.00    +0.000 HD
ATOM     28  H   UNL     1      -0.523  10.392  17.419  0.00  0.00    +0.000 HD
BRANCH  23  30
ATOM     29  C   UNL     1      -5.161  10.345  18.595  0.00  0.00    +0.000 C 
ATOM     30  C   UNL     1      -4.674  11.774  18.295  0.00  0.00    +0.000 C 
ATOM     31  C   UNL     1      -5.237  12.267  16.957  0.00  0.00    +0.000 C 
ATOM     32  C   UNL     1      -5.172  12.695  19.421  0.00  0.00    +0.000 C 
ENDBRANCH  23  30
ENDBRANCH   1  26
TORSDOF 3
ENDMDL
MODEL 2
REMARK VINA RESULT:      -6.4      3.481      4.136
REMARK  Name = 
REMARK  6 active torsions:
REMARK  status: ('A' for Active; 'I' for Inactive)
REMARK    1  A    between atoms: C_1  and  C_2
REMARK    2  A    between atoms: C_2  and  C_3
REMARK    3  A    between atoms: C_2  and  C_4
REMARK    4  A    between atoms: C_2  and  N_5
REMARK    5  A    between atoms: N_8  and  C_9
REMARK    6  A    between atoms: C_19  and  C_20
REMARK                            x       y       z     vdW  Elec       q    Type
REMARK                         _______ _______ _______ _____ _____    ______ ____
ROOT
ATOM      1  C   UNL     1      -2.856  12.966  20.705  0.00  0.00    +0.000 A 
ATOM      2  N   UNL     1      -3.718  13.766  21.400  0.00  0.00    +0.000 NA
ATOM      3  C   UNL     1      -3.379  14.281  22.576  0.00  0.00    +0.000 A 
ATOM      4  N   UNL     1      -4.211  15.111  23.193  0.00  0.00    +0.000 NA
ATOM      5  C   UNL     1      -3.868  15.573  24.396  0.00  0.00    +0.000 A 
ATOM      6  N   UNL     1      -4.674  16.517  24.987  0.00  0.00    +0.000 N 
ATOM      7  N   UNL     1      -2.790  15.188  25.077  0.00  0.00    +0.000 NA
ATOM      8  C   UNL     1      -1.952  14.367  24.433  0.00  0.00    +0.000 A 
ATOM      9  C   UNL     1      -2.162  13.930  23.144  0.00  0.00    +0.000 A 
ATOM     10  C   UNL     1      -1.251  13.149  22.409  0.00  0.00    +0.000 A 
ATOM     11  C   UNL     1      -1.574  12.608  21.154  0.00  0.00    +0.000 A 
ATOM     12  H   UNL     1      -5.600  16.516  24.586  0.00  0.00    +0.000 HD
ATOM     13  H   UNL     1      -4.590  16.486  25.993  0.00  0.00    +0.000 HD
ENDROOT
BRANCH  11  14
ATOM     14  C   UNL     1      -0.630  11.621  20.502  0.00  0.00    +0.000 A 
ATOM     15  C   UNL     1      -0.053  11.821  19.219  0.00  0.00    +0.000 A 
ATOM     16 CL   UNL     1      -0.274  13.263  18.280  0.00  0.00    +0.000 Cl
ATOM     17  C   UNL     1       0.826  10.892  18.638  0.00  0.00    +0.000 A 
ATOM     18  C   UNL     1       1.287   9.805  19.363  0.00  0.00    +0.000 A 
ATOM     19  C   UNL     1       0.800   9.589  20.645  0.00  0.00    +0.000 A 
ATOM     20 CL   UNL     1       1.521   8.292  21.540  0.00  0.00    +0.000 Cl
ATOM     21  C   UNL     1      -0.204  10.429  21.178  0.00  0.00    +0.000 A 
ATOM     22 CL   UNL     1      -0.956   9.907  22.672  0.00  0.00    +0.000 Cl
ENDBRANCH  11  14
BRANCH   1  26
ATOM     23  N   UNL     1      -5.495  12.170  20.130  0.00  0.00    +0.000 N 
ATOM     24  C   UNL     1      -4.596  12.210  19.111  0.00  0.00    +0.000 C 
ATOM     25  O   UNL     1      -4.825  11.872  17.954  0.00  0.00    +0.000 OA
ATOM     26  N   UNL     1      -3.321  12.518  19.468  0.00  0.00    +0.000 N 
ATOM     27  H   UNL     1      -5.283  12.839  20.866  0.00  0.00    +0.000 HD
ATOM     28  H   UNL     1      -2.660  12.381  18.719  0.00  0.00    +0.000 HD
BRANCH  23  30
ATOM     29  C   UNL     1      -6.940  10.277  19.477  0.00  0.00    +0.000 C 
ATOM     30  C   UNL     1      -6.880  11.719  20.009  0.00  0.00    +0.000 C 
ATOM     31  C   UNL     1      -7.673  12.664  19.098  0.00  0.00    +0.000 C 
ATOM     32  C   UNL     1      -7.500  11.736  21.416  0.00  0.00    +0.000 C 
ENDBRANCH  23  30
ENDBRANCH   1  26
TORSDOF 3
ENDMDL
MODEL 3
REMARK VINA RESULT:      -6.4      1.849      2.362
REMARK  Name = 
REMARK  6 active torsions:
REMARK  status: ('A' for Active; 'I' for Inactive)
REMARK    1  A    between atoms: C_1  and  C_2
REMARK    2  A    between atoms: C_2  and  C_3
REMARK    3  A    between atoms: C_2  and  C_4
REMARK    4  A    between atoms: C_2  and  N_5
REMARK    5  A    between atoms: N_8  and  C_9
REMARK    6  A    between atoms: C_19  and  C_20
REMARK                            x       y       z     vdW  Elec       q    Type
REMARK                         _______ _______ _______ _____ _____    ______ ____
ROOT
ATOM      1  C   UNL     1      -1.321  13.703  19.960  0.00  0.00    +0.000 A 
ATOM      2  N   UNL     1      -1.244  14.898  19.302  0.00  0.00    +0.000 NA
ATOM      3  C   UNL     1      -0.071  15.444  19.008  0.00  0.00    +0.000 A 
ATOM      4  N   UNL     1      -0.029  16.570  18.306  0.00  0.00    +0.000 NA
ATOM      5  C   UNL     1       1.160  17.124  18.068  0.00  0.00    +0.000 A 
ATOM      6  N   UNL     1       1.215  18.228  17.249  0.00  0.00    +0.000 N 
ATOM      7  N   UNL     1       2.315  16.686  18.566  0.00  0.00    +0.000 NA
ATOM      8  C   UNL     1       2.258  15.538  19.255  0.00  0.00    +0.000 A 
ATOM      9  C   UNL     1       1.093  14.831  19.451  0.00  0.00    +0.000 A 
ATOM     10  C   UNL     1       1.020  13.576  20.083  0.00  0.00    +0.000 A 
ATOM     11  C   UNL     1      -0.207  12.964  20.389  0.00  0.00    +0.000 A 
ATOM     12  H   UNL     1       0.316  18.682  17.181  0.00  0.00    +0.000 HD
ATOM     13  H   UNL     1       2.022  18.796  17.462  0.00  0.00    +0.000 HD
ENDROOT
BRANCH  11  14
ATOM     14  C   UNL     1      -0.224  11.711  21.238  0.00  0.00    +0.000 A 
ATOM     15  C   UNL     1      -0.768  11.663  22.549  0.00  0.00    +0.000 A 
ATOM     16 CL   UNL     1      -1.576  12.999  23.305  0.00  0.00    +0.000 Cl
ATOM     17  C   UNL     1      -0.777  10.485  23.316  0.00  0.00    +0.000 A 
ATOM     18  C   UNL     1      -0.384   9.277  22.761  0.00  0.00    +0.000 A 
ATOM     19  C   UNL     1       0.106   9.255  21.463  0.00  0.00    +0.000 A 
ATOM     20 CL   UNL     1       0.448   7.695  20.790  0.00  0.00    +0.000 Cl
ATOM     21  C   UNL     1       0.267  10.458  20.740  0.00  0.00    +0.000 A 
ATOM     22 CL   UNL     1       1.157  10.359  19.234  0.00  0.00    +0.000 Cl
ENDBRANCH  11  14
BRANCH   1  26
ATOM     23  N   UNL     1      -2.754  11.991  18.243  0.00  0.00    +0.000 N 
ATOM     24  C   UNL     1      -3.314  12.327  19.436  0.00  0.00    +0.000 C 
ATOM     25  O   UNL     1      -4.432  11.986  19.812  0.00  0.00    +0.000 OA
ATOM     26  N   UNL     1      -2.613  13.223  20.179  0.00  0.00    +0.000 N 
ATOM     27  H   UNL     1      -1.737  11.995  18.274  0.00  0.00    +0.000 HD
ATOM     28  H   UNL     1      -3.132  13.566  20.972  0.00  0.00    +0.000 HD
BRANCH  23  30
ATOM     29  C   UNL     1      -2.565  11.171  15.921  0.00  0.00    +0.000 C 
ATOM     30  C   UNL     1      -3.393  11.168  17.219  0.00  0.00    +0.000 C 
ATOM     31  C   UNL     1      -4.821  11.658  16.950  0.00  0.00    +0.000 C 
ATOM     32  C   UNL     1      -3.447   9.725  17.748  0.00  0.00    +0.000 C 
ENDBRANCH  23  30
ENDBRANCH   1  26
TORSDOF 3
ENDMDL
MODEL 4
REMARK VINA RESULT:      -6.4      3.772      5.848
REMARK  Name = 
REMARK  6 active torsions:
REMARK  status: ('A' for Active; 'I' for Inactive)
REMARK    1  A    between atoms: C_1  and  C_2
REMARK    2  A    between atoms: C_2  and  C_3
REMARK    3  A    between atoms: C_2  and  C_4
REMARK    4  A    between atoms: C_2  and  N_5
REMARK    5  A    between atoms: N_8  and  C_9
REMARK    6  A    between atoms: C_19  and  C_20
REMARK                            x       y       z     vdW  Elec       q    Type
REMARK                         _______ _______ _______ _____ _____    ______ ____
ROOT
ATOM      1  C   UNL     1      -1.538  13.204  20.347  0.00  0.00    +0.000 A 
ATOM      2  N   UNL     1      -2.364  12.477  21.155  0.00  0.00    +0.000 NA
ATOM      3  C   UNL     1      -2.790  12.962  22.315  0.00  0.00    +0.000 A 
ATOM      4  N   UNL     1      -3.648  12.258  23.045  0.00  0.00    +0.000 NA
ATOM      5  C   UNL     1      -4.021  12.746  24.229  0.00  0.00    +0.000 A 
ATOM      6  N   UNL     1      -4.991  12.075  24.936  0.00  0.00    +0.000 N 
ATOM      7  N   UNL     1      -3.521  13.847  24.787  0.00  0.00    +0.000 NA
ATOM      8  C   UNL     1      -2.672  14.554  24.030  0.00  0.00    +0.000 A 
ATOM      9  C   UNL     1      -2.320  14.193  22.749  0.00  0.00    +0.000 A 
ATOM     10  C   UNL     1      -1.511  14.967  21.897  0.00  0.00    +0.000 A 
ATOM     11  C   UNL     1      -1.061  14.489  20.655  0.00  0.00    +0.000 A 
ATOM     12  H   UNL     1      -5.081  11.119  24.625  0.00  0.00    +0.000 HD
ATOM     13  H   UNL     1      -4.902  12.249  25.927  0.00  0.00    +0.000 HD
ENDROOT
BRANCH  11  14
ATOM     14  C   UNL     1      -0.041  15.288  19.874  0.00  0.00    +0.000 A 
ATOM     15  C   UNL     1       1.334  14.937  19.796  0.00  0.00    +0.000 A 
ATOM     16 CL   UNL     1       1.999  13.496  20.497  0.00  0.00    +0.000 Cl
ATOM     17  C   UNL     1       2.261  15.692  19.058  0.00  0.00    +0.000 A 
ATOM     18  C   UNL     1       1.839  16.736  18.249  0.00  0.00    +0.000 A 
ATOM     19  C   UNL     1       0.497  17.089  18.243  0.00  0.00    +0.000 A 
ATOM     20 CL   UNL     1       0.022  18.309  17.108  0.00  0.00    +0.000 Cl
ATOM     21  C   UNL     1      -0.417  16.437  19.102  0.00  0.00    +0.000 A 
ATOM     22 CL   UNL     1      -2.015  17.143  19.233  0.00  0.00    +0.000 Cl
ENDBRANCH  11  14
BRANCH   1  26
ATOM     23  N   UNL     1      -3.296  11.818  18.637  0.00  0.00    +0.000 N 
ATOM     24  C   UNL     1      -2.008  11.995  18.237  0.00  0.00    +0.000 C 
ATOM     25  O   UNL     1      -1.524  11.548  17.201  0.00  0.00    +0.000 OA
ATOM     26  N   UNL     1      -1.191  12.593  19.141  0.00  0.00    +0.000 N 
ATOM     27  H   UNL     1      -3.618  12.560  19.254  0.00  0.00    +0.000 HD
ATOM     28  H   UNL     1      -0.219  12.561  18.874  0.00  0.00    +0.000 HD
BRANCH  23  30
ATOM     29  C   UNL     1      -4.524  11.678  16.500  0.00  0.00    +0.000 C 
ATOM     30  C   UNL     1      -4.309  11.070  17.897  0.00  0.00    +0.000 C 
ATOM     31  C   UNL     1      -5.628  11.034  18.680  0.00  0.00    +0.000 C 
ATOM     32  C   UNL     1      -3.790   9.634  17.719  0.00  0.00    +0.000 C 
ENDBRANCH  23  30
ENDBRANCH   1  26
TORSDOF 3
ENDMDL
MODEL 5
REMARK VINA RESULT:      -6.3      3.647      5.656
REMARK  Name = 
REMARK  6 active torsions:
REMARK  status: ('A' for Active; 'I' for Inactive)
REMARK    1  A    between atoms: C_1  and  C_2
REMARK    2  A    between atoms: C_2  and  C_3
REMARK    3  A    between atoms: C_2  and  C_4
REMARK    4  A    between atoms: C_2  and  N_5
REMARK    5  A    between atoms: N_8  and  C_9
REMARK    6  A    between atoms: C_19  and  C_20
REMARK                            x       y       z     vdW  Elec       q    Type
REMARK                         _______ _______ _______ _____ _____    ______ ____
ROOT
ATOM      1  C   UNL     1      -0.613  13.789  22.116  0.00  0.00    +0.000 A 
ATOM      2  N   UNL     1      -1.264  14.782  22.790  0.00  0.00    +0.000 NA
ATOM      3  C   UNL     1      -2.552  14.675  23.092  0.00  0.00    +0.000 A 
ATOM      4  N   UNL     1      -3.138  15.627  23.809  0.00  0.00    +0.000 NA
ATOM      5  C   UNL     1      -4.445  15.520  24.056  0.00  0.00    +0.000 A 
ATOM      6  N   UNL     1      -5.031  16.443  24.889  0.00  0.00    +0.000 N 
ATOM      7  N   UNL     1      -5.237  14.574  23.552  0.00  0.00    +0.000 NA
ATOM      8  C   UNL     1      -4.626  13.612  22.848  0.00  0.00    +0.000 A 
ATOM      9  C   UNL     1      -3.266  13.574  22.641  0.00  0.00    +0.000 A 
ATOM     10  C   UNL     1      -2.587  12.525  21.992  0.00  0.00    +0.000 A 
ATOM     11  C   UNL     1      -1.221  12.602  21.677  0.00  0.00    +0.000 A 
ATOM     12  H   UNL     1      -4.472  17.280  24.963  0.00  0.00    +0.000 HD
ATOM     13  H   UNL     1      -6.015  16.542  24.685  0.00  0.00    +0.000 HD
ENDROOT
BRANCH  11  14
ATOM     14  C   UNL     1      -0.595  11.530  20.811  0.00  0.00    +0.000 A 
ATOM     15  C   UNL     1      -0.405  11.668  19.410  0.00  0.00    +0.000 A 
ATOM     16 CL   UNL     1      -0.769  13.119  18.530  0.00  0.00    +0.000 Cl
ATOM     17  C   UNL     1       0.184  10.661  18.628  0.00  0.00    +0.000 A 
ATOM     18  C   UNL     1       0.744   9.541  19.223  0.00  0.00    +0.000 A 
ATOM     19  C   UNL     1       0.637   9.378  20.597  0.00  0.00    +0.000 A 
ATOM     20 CL   UNL     1       1.477   8.027  21.285  0.00  0.00    +0.000 Cl
ATOM     21  C   UNL     1      -0.092  10.308  21.372  0.00  0.00    +0.000 A 
ATOM     22 CL   UNL     1      -0.414   9.866  23.036  0.00  0.00    +0.000 Cl
ENDBRANCH  11  14
BRANCH   1  26
ATOM     23  N   UNL     1       0.472  15.682  20.335  0.00  0.00    +0.000 N 
ATOM     24  C   UNL     1       1.325  14.967  21.117  0.00  0.00    +0.000 C 
ATOM     25  O   UNL     1       2.550  15.038  21.075  0.00  0.00    +0.000 OA
ATOM     26  N   UNL     1       0.746  14.011  21.890  0.00  0.00    +0.000 N 
ATOM     27  H   UNL     1      -0.439  15.810  20.767  0.00  0.00    +0.000 HD
ATOM     28  H   UNL     1       1.419  13.401  22.329  0.00  0.00    +0.000 HD
BRANCH  23  30
ATOM     29  C   UNL     1       1.937  16.047  18.382  0.00  0.00    +0.000 C 
ATOM     30  C   UNL     1       0.879  16.651  19.321  0.00  0.00    +0.000 C 
ATOM     31  C   UNL     1       1.410  17.929  19.982  0.00  0.00    +0.000 C 
ATOM     32  C   UNL     1      -0.363  16.997  18.482  0.00  0.00    +0.000 C 
ENDBRANCH  23  30
ENDBRANCH   1  26
TORSDOF 3
ENDMDL
MODEL 6
REMARK VINA RESULT:      -6.3      1.751      2.893
REMARK  Name = 
REMARK  6 active torsions:
REMARK  status: ('A' for Active; 'I' for Inactive)
REMARK    1  A    between atoms: C_1  and  C_2
REMARK    2  A    between atoms: C_2  and  C_3
REMARK    3  A    between atoms: C_2  and  C_4
REMARK    4  A    between atoms: C_2  and  N_5
REMARK    5  A    between atoms: N_8  and  C_9
REMARK    6  A    between atoms: C_19  and  C_20
REMARK                            x       y       z     vdW  Elec       q    Type
REMARK                         _______ _______ _______ _____ _____    ______ ____
ROOT
ATOM      1  C   UNL     1      -0.683  13.130  19.061  0.00  0.00    +0.000 A 
ATOM      2  N   UNL     1      -0.760  14.435  18.667  0.00  0.00    +0.000 NA
ATOM      3  C   UNL     1       0.289  15.243  18.761  0.00  0.00    +0.000 A 
ATOM      4  N   UNL     1       0.202  16.486  18.304  0.00  0.00    +0.000 NA
ATOM      5  C   UNL     1       1.254  17.292  18.456  0.00  0.00    +0.000 A 
ATOM      6  N   UNL     1       1.207  18.543  17.887  0.00  0.00    +0.000 N 
ATOM      7  N   UNL     1       2.361  16.975  19.125  0.00  0.00    +0.000 NA
ATOM      8  C   UNL     1       2.441  15.712  19.561  0.00  0.00    +0.000 A 
ATOM      9  C   UNL     1       1.456  14.774  19.347  0.00  0.00    +0.000 A 
ATOM     10  C   UNL     1       1.556  13.417  19.706  0.00  0.00    +0.000 A 
ATOM     11  C   UNL     1       0.469  12.534  19.600  0.00  0.00    +0.000 A 
ATOM     12  H   UNL     1       0.257  18.825  17.692  0.00  0.00    +0.000 HD
ATOM     13  H   UNL     1       1.805  19.189  18.382  0.00  0.00    +0.000 HD
ENDROOT
BRANCH  11  14
ATOM     14  C   UNL     1       0.581  11.141  20.180  0.00  0.00    +0.000 A 
ATOM     15  C   UNL     1       1.159  10.047  19.482  0.00  0.00    +0.000 A 
ATOM     16 CL   UNL     1       1.902  10.188  17.921  0.00  0.00    +0.000 Cl
ATOM     17  C   UNL     1       1.257   8.763  20.045  0.00  0.00    +0.000 A 
ATOM     18  C   UNL     1       0.925   8.547  21.374  0.00  0.00    +0.000 A 
ATOM     19  C   UNL     1       0.406   9.594  22.122  0.00  0.00    +0.000 A 
ATOM     20 CL   UNL     1       0.143   9.286  23.807  0.00  0.00    +0.000 Cl
ATOM     21  C   UNL     1       0.156  10.847  21.519  0.00  0.00    +0.000 A 
ATOM     22 CL   UNL     1      -0.762  12.005  22.461  0.00  0.00    +0.000 Cl
ENDBRANCH  11  14
BRANCH   1  26
ATOM     23  N   UNL     1      -3.155  13.594  20.328  0.00  0.00    +0.000 N 
ATOM     24  C   UNL     1      -3.083  12.612  19.389  0.00  0.00    +0.000 C 
ATOM     25  O   UNL     1      -4.005  11.862  19.080  0.00  0.00    +0.000 OA
ATOM     26  N   UNL     1      -1.846  12.380  18.879  0.00  0.00    +0.000 N 
ATOM     27  H   UNL     1      -2.486  14.342  20.162  0.00  0.00    +0.000 HD
ATOM     28  H   UNL     1      -1.804  11.547  18.312  0.00  0.00    +0.000 HD
BRANCH  23  30
ATOM     29  C   UNL     1      -4.712  12.746  22.046  0.00  0.00    +0.000 C 
ATOM     30  C   UNL     1      -4.342  13.915  21.116  0.00  0.00    +0.000 C 
ATOM     31  C   UNL     1      -5.518  14.266  20.197  0.00  0.00    +0.000 C 
ATOM     32  C   UNL     1      -4.005  15.134  21.991  0.00  0.00    +0.000 C 
ENDBRANCH  23  30
ENDBRANCH   1  26
TORSDOF 3
ENDMDL
MODEL 7
REMARK VINA RESULT:      -6.2      3.523      5.436
REMARK  Name = 
REMARK  6 active torsions:
REMARK  status: ('A' for Active; 'I' for Inactive)
REMARK    1  A    between atoms: C_1  and  C_2
REMARK    2  A    between atoms: C_2  and  C_3
REMARK    3  A    between atoms: C_2  and  C_4
REMARK    4  A    between atoms: C_2  and  N_5
REMARK    5  A    between atoms: N_8  and  C_9
REMARK    6  A    between atoms: C_19  and  C_20
REMARK                            x       y       z     vdW  Elec       q    Type
REMARK                         _______ _______ _______ _____ _____    ______ ____
ROOT
ATOM      1  C   UNL     1       0.343  13.095  21.705  0.00  0.00    +0.000 A 
ATOM      2  N   UNL     1      -0.153  13.990  22.609  0.00  0.00    +0.000 NA
ATOM      3  C   UNL     1      -1.306  13.770  23.229  0.00  0.00    +0.000 A 
ATOM      4  N   UNL     1      -1.727  14.625  24.153  0.00  0.00    +0.000 NA
ATOM      5  C   UNL     1      -2.913  14.408  24.724  0.00  0.00    +0.000 A 
ATOM      6  N   UNL     1      -3.301  15.227  25.758  0.00  0.00    +0.000 N 
ATOM      7  N   UNL     1      -3.761  13.445  24.367  0.00  0.00    +0.000 NA
ATOM      8  C   UNL     1      -3.313  12.580  23.448  0.00  0.00    +0.000 A 
ATOM      9  C   UNL     1      -2.057  12.654  22.888  0.00  0.00    +0.000 A 
ATOM     10  C   UNL     1      -1.525  11.704  21.997  0.00  0.00    +0.000 A 
ATOM     11  C   UNL     1      -0.298  11.900  21.341  0.00  0.00    +0.000 A 
ATOM     12  H   UNL     1      -2.786  16.095  25.755  0.00  0.00    +0.000 HD
ATOM     13  H   UNL     1      -4.307  15.268  25.829  0.00  0.00    +0.000 HD
ENDROOT
BRANCH  11  14
ATOM     14  C   UNL     1       0.127  10.938  20.253  0.00  0.00    +0.000 A 
ATOM     15  C   UNL     1      -0.020  11.212  18.866  0.00  0.00    +0.000 A 
ATOM     16 CL   UNL     1      -0.606  12.721  18.241  0.00  0.00    +0.000 Cl
ATOM     17  C   UNL     1       0.388  10.305  17.874  0.00  0.00    +0.000 A 
ATOM     18  C   UNL     1       1.092   9.159  18.210  0.00  0.00    +0.000 A 
ATOM     19  C   UNL     1       1.314   8.867  19.549  0.00  0.00    +0.000 A 
ATOM     20 CL   UNL     1       2.316   7.495  19.887  0.00  0.00    +0.000 Cl
ATOM     21  C   UNL     1       0.770   9.692  20.559  0.00  0.00    +0.000 A 
ATOM     22 CL   UNL     1       0.854   9.087  22.201  0.00  0.00    +0.000 Cl
ENDBRANCH  11  14
BRANCH   1  26
ATOM     23  N   UNL     1       0.881  15.369  20.133  0.00  0.00    +0.000 N 
ATOM     24  C   UNL     1       1.917  14.553  20.465  0.00  0.00    +0.000 C 
ATOM     25  O   UNL     1       3.076  14.695  20.088  0.00  0.00    +0.000 OA
ATOM     26  N   UNL     1       1.579  13.429  21.149  0.00  0.00    +0.000 N 
ATOM     27  H   UNL     1       0.137  15.358  20.826  0.00  0.00    +0.000 HD
ATOM     28  H   UNL     1       2.344  12.778  21.236  0.00  0.00    +0.000 HD
BRANCH  23  30
ATOM     29  C   UNL     1       1.991  16.307  18.137  0.00  0.00    +0.000 C 
ATOM     30  C   UNL     1       0.983  16.548  19.275  0.00  0.00    +0.000 C 
ATOM     31  C   UNL     1       1.383  17.778  20.099  0.00  0.00    +0.000 C 
ATOM     32  C   UNL     1      -0.400  16.788  18.647  0.00  0.00    +0.000 C 
ENDBRANCH  23  30
ENDBRANCH   1  26
TORSDOF 3
ENDMDL
MODEL 8
REMARK VINA RESULT:      -6.2      7.987      9.922
REMARK  Name = 
REMARK  6 active torsions:
REMARK  status: ('A' for Active; 'I' for Inactive)
REMARK    1  A    between atoms: C_1  and  C_2
REMARK    2  A    between atoms: C_2  and  C_3
REMARK    3  A    between atoms: C_2  and  C_4
REMARK    4  A    between atoms: C_2  and  N_5
REMARK    5  A    between atoms: N_8  and  C_9
REMARK    6  A    between atoms: C_19  and  C_20
REMARK                            x       y       z     vdW  Elec       q    Type
REMARK                         _______ _______ _______ _____ _____    ______ ____
ROOT
ATOM      1  C   UNL     1       7.828  14.189  20.651  0.00  0.00    +0.000 A 
ATOM      2  N   UNL     1       6.930  14.155  21.679  0.00  0.00    +0.000 NA
ATOM      3  C   UNL     1       7.093  13.328  22.705  0.00  0.00    +0.000 A 
ATOM      4  N   UNL     1       6.240  13.369  23.722  0.00  0.00    +0.000 NA
ATOM      5  C   UNL     1       6.398  12.493  24.716  0.00  0.00    +0.000 A 
ATOM      6  N   UNL     1       5.586  12.605  25.820  0.00  0.00    +0.000 N 
ATOM      7  N   UNL     1       7.293  11.507  24.723  0.00  0.00    +0.000 NA
ATOM      8  C   UNL     1       8.157  11.492  23.700  0.00  0.00    +0.000 A 
ATOM      9  C   UNL     1       8.148  12.427  22.689  0.00  0.00    +0.000 A 
ATOM     10  C   UNL     1       9.104  12.495  21.658  0.00  0.00    +0.000 A 
ATOM     11  C   UNL     1       8.968  13.373  20.570  0.00  0.00    +0.000 A 
ATOM     12  H   UNL     1       4.753  13.136  25.614  0.00  0.00    +0.000 HD
ATOM     13  H   UNL     1       5.481  11.714  26.284  0.00  0.00    +0.000 HD
ENDROOT
BRANCH  11  14
ATOM     14  C   UNL     1       9.923  13.264  19.401  0.00  0.00    +0.000 A 
ATOM     15  C   UNL     1      10.029  12.107  18.583  0.00  0.00    +0.000 A 
ATOM     16 CL   UNL     1       9.008  10.714  18.752  0.00  0.00    +0.000 Cl
ATOM     17  C   UNL     1      10.919  12.033  17.499  0.00  0.00    +0.000 A 
ATOM     18  C   UNL     1      11.630  13.150  17.090  0.00  0.00    +0.000 A 
ATOM     19  C   UNL     1      11.525  14.326  17.819  0.00  0.00    +0.000 A 
ATOM     20 CL   UNL     1      12.333  15.715  17.172  0.00  0.00    +0.000 Cl
ATOM     21  C   UNL     1      10.754  14.364  19.003  0.00  0.00    +0.000 A 
ATOM     22 CL   UNL     1      10.916  15.795  20.002  0.00  0.00    +0.000 Cl
ENDBRANCH  11  14
BRANCH   1  26
ATOM     23  N   UNL     1       5.269  14.926  19.733  0.00  0.00    +0.000 N 
ATOM     24  C   UNL     1       6.350  15.585  19.236  0.00  0.00    +0.000 C 
ATOM     25  O   UNL     1       6.309  16.451  18.367  0.00  0.00    +0.000 OA
ATOM     26  N   UNL     1       7.558  15.126  19.652  0.00  0.00    +0.000 N 
ATOM     27  H   UNL     1       5.424  14.580  20.677  0.00  0.00    +0.000 HD
ATOM     28  H   UNL     1       8.329  15.530  19.143  0.00  0.00    +0.000 HD
BRANCH  23  30
ATOM     29  C   UNL     1       3.733  14.914  17.801  0.00  0.00    +0.000 C 
ATOM     30  C   UNL     1       3.887  15.145  19.314  0.00  0.00    +0.000 C 
ATOM     31  C   UNL     1       3.429  16.558  19.695  0.00  0.00    +0.000 C 
ATOM     32  C   UNL     1       3.010  14.116  20.047  0.00  0.00    +0.000 C 
ENDBRANCH  23  30
ENDBRANCH   1  26
TORSDOF 3
ENDMDL
MODEL 9
REMARK VINA RESULT:      -6.2      3.643      4.413
REMARK  Name = 
REMARK  6 active torsions:
REMARK  status: ('A' for Active; 'I' for Inactive)
REMARK    1  A    between atoms: C_1  and  C_2
REMARK    2  A    between atoms: C_2  and  C_3
REMARK    3  A    between atoms: C_2  and  C_4
REMARK    4  A    between atoms: C_2  and  N_5
REMARK    5  A    between atoms: N_8  and  C_9
REMARK    6  A    between atoms: C_19  and  C_20
REMARK                            x       y       z     vdW  Elec       q    Type
REMARK                         _______ _______ _______ _____ _____    ______ ____
ROOT
ATOM      1  C   UNL     1      -2.881  13.445  21.132  0.00  0.00    +0.000 A 
ATOM      2  N   UNL     1      -3.635  14.329  21.850  0.00  0.00    +0.000 NA
ATOM      3  C   UNL     1      -3.166  14.887  22.960  0.00  0.00    +0.000 A 
ATOM      4  N   UNL     1      -3.896  15.795  23.596  0.00  0.00    +0.000 NA
ATOM      5  C   UNL     1      -3.423  16.302  24.736  0.00  0.00    +0.000 A 
ATOM      6  N   UNL     1      -4.124  17.321  25.338  0.00  0.00    +0.000 N 
ATOM      7  N   UNL     1      -2.310  15.895  25.344  0.00  0.00    +0.000 NA
ATOM      8  C   UNL     1      -1.576  14.993  24.679  0.00  0.00    +0.000 A 
ATOM      9  C   UNL     1      -1.924  14.500  23.441  0.00  0.00    +0.000 A 
ATOM     10  C   UNL     1      -1.123  13.630  22.677  0.00  0.00    +0.000 A 
ATOM     11  C   UNL     1      -1.585  13.040  21.489  0.00  0.00    +0.000 A 
ATOM     12  H   UNL     1      -5.081  17.351  25.019  0.00  0.00    +0.000 HD
ATOM     13  H   UNL     1      -3.951  17.340  26.333  0.00  0.00    +0.000 HD
ENDROOT
BRANCH  11  14
ATOM     14  C   UNL     1      -0.754  11.967  20.818  0.00  0.00    +0.000 A 
ATOM     15  C   UNL     1      -0.241  12.087  19.499  0.00  0.00    +0.000 A 
ATOM     16 CL   UNL     1      -0.410  13.515  18.527  0.00  0.00    +0.000 Cl
ATOM     17  C   UNL     1       0.533  11.079  18.899  0.00  0.00    +0.000 A 
ATOM     18  C   UNL     1       0.954   9.981  19.633  0.00  0.00    +0.000 A 
ATOM     19  C   UNL     1       0.528   9.838  20.946  0.00  0.00    +0.000 A 
ATOM     20 CL   UNL     1       1.204   8.517  21.841  0.00  0.00    +0.000 Cl
ATOM     21  C   UNL     1      -0.379  10.766  21.507  0.00  0.00    +0.000 A 
ATOM     22 CL   UNL     1      -1.078  10.344  23.056  0.00  0.00    +0.000 Cl
ENDBRANCH  11  14
BRANCH   1  26
ATOM     23  N   UNL     1      -5.565  12.633  20.876  0.00  0.00    +0.000 N 
ATOM     24  C   UNL     1      -4.783  12.639  19.764  0.00  0.00    +0.000 C 
ATOM     25  O   UNL     1      -5.136  12.265  18.649  0.00  0.00    +0.000 OA
ATOM     26  N   UNL     1      -3.478  12.957  19.969  0.00  0.00    +0.000 N 
ATOM     27  H   UNL     1      -5.276  13.326  21.562  0.00  0.00    +0.000 HD
ATOM     28  H   UNL     1      -2.902  12.797  19.157  0.00  0.00    +0.000 HD
BRANCH  23  30
ATOM     29  C   UNL     1      -7.479  12.176  22.368  0.00  0.00    +0.000 C 
ATOM     30  C   UNL     1      -6.954  12.180  20.921  0.00  0.00    +0.000 C 
ATOM     31  C   UNL     1      -7.084  10.785  20.296  0.00  0.00    +0.000 C 
ATOM     32  C   UNL     1      -7.796  13.177  20.108  0.00  0.00    +0.000 C 
ENDBRANCH  23  30
ENDBRANCH   1  26
TORSDOF 3
ENDMDL
