MODEL 1
REMARK VINA RESULT:      -7.8      0.000      0.000
REMARK  Name = 
REMARK  2 active torsions:
REMARK  status: ('A' for Active; 'I' for Inactive)
REMARK    1  A    between atoms: C_2  and  C_13
REMARK    2  A    between atoms: N_3  and  C_4
REMARK                            x       y       z     vdW  Elec       q    Type
REMARK                         _______ _______ _______ _____ _____    ______ ____
ROOT
ATOM      1  O   UNL     1       5.847   3.877  18.999  0.00  0.00    +0.000 OA
ATOM      2  C   UNL     1       4.710   4.004  18.554  0.00  0.00    +0.000 C 
ATOM      3  N   UNL     1       4.385   4.236  17.232  0.00  0.00    +0.000 N 
ATOM      4  H   UNL     1       3.416   4.426  17.015  0.00  0.00    +0.000 HD
ENDROOT
BRANCH   3   5
ATOM      5  C   UNL     1       5.311   4.444  16.181  0.00  0.00    +0.000 A 
ATOM      6  C   UNL     1       6.398   5.330  16.286  0.00  0.00    +0.000 A 
ATOM      7  C   UNL     1       7.249   5.572  15.206  0.00  0.00    +0.000 A 
ATOM      8  C   UNL     1       7.006   4.906  14.021  0.00  0.00    +0.000 A 
ATOM      9  C   UNL     1       5.949   4.000  13.908  0.00  0.00    +0.000 A 
ATOM     10  C   UNL     1       5.101   3.750  14.980  0.00  0.00    +0.000 A 
ATOM     11  C   UNL     1       5.857   3.479  12.508  0.00  0.00    +0.000 C 
ATOM     12  C   UNL     1       7.257   3.816  11.969  0.00  0.00    +0.000 C 
ATOM     13  C   UNL     1       7.724   5.070  12.720  0.00  0.00    +0.000 C 
ENDBRANCH   3   5
BRANCH   2  14
ATOM     14  C   UNL     1       3.595   3.908  19.548  0.00  0.00    +0.000 A 
ATOM     15  C   UNL     1       3.545   2.694  20.265  0.00  0.00    +0.000 A 
ATOM     16  C   UNL     1       2.632   2.496  21.299  0.00  0.00    +0.000 A 
ATOM     17  C   UNL     1       1.748   3.511  21.636  0.00  0.00    +0.000 A 
ATOM     18  C   UNL     1       1.767   4.713  20.927  0.00  0.00    +0.000 A 
ATOM     19  C   UNL     1       2.686   4.921  19.884  0.00  0.00    +0.000 A 
ATOM     20 BR   UNL     1       2.623   6.634  19.065  0.00  0.00    +0.000 Br
ENDBRANCH   2  14
TORSDOF 2
ENDMDL
MODEL 2
REMARK VINA RESULT:      -7.7      1.551      1.871
REMARK  Name = 
REMARK  2 active torsions:
REMARK  status: ('A' for Active; 'I' for Inactive)
REMARK    1  A    between atoms: C_2  and  C_13
REMARK    2  A    between atoms: N_3  and  C_4
REMARK                            x       y       z     vdW  Elec       q    Type
REMARK                         _______ _______ _______ _____ _____    ______ ____
ROOT
ATOM      1  O   UNL     1       3.559   5.689  17.413  0.00  0.00    +0.000 OA
ATOM      2  C   UNL     1       4.004   4.672  17.938  0.00  0.00    +0.000 C 
ATOM      3  N   UNL     1       5.098   3.954  17.497  0.00  0.00    +0.000 N 
ATOM      4  H   UNL     1       5.298   3.076  17.957  0.00  0.00    +0.000 HD
ENDROOT
BRANCH   3   5
ATOM      5  C   UNL     1       5.843   4.226  16.324  0.00  0.00    +0.000 A 
ATOM      6  C   UNL     1       6.936   5.110  16.301  0.00  0.00    +0.000 A 
ATOM      7  C   UNL     1       7.601   5.418  15.113  0.00  0.00    +0.000 A 
ATOM      8  C   UNL     1       7.168   4.819  13.947  0.00  0.00    +0.000 A 
ATOM      9  C   UNL     1       6.102   3.915  13.955  0.00  0.00    +0.000 A 
ATOM     10  C   UNL     1       5.438   3.600  15.134  0.00  0.00    +0.000 A 
ATOM     11  C   UNL     1       5.784   3.474  12.561  0.00  0.00    +0.000 C 
ATOM     12  C   UNL     1       7.079   3.849  11.823  0.00  0.00    +0.000 C 
ATOM     13  C   UNL     1       7.666   5.061  12.559  0.00  0.00    +0.000 C 
ENDBRANCH   3   5
BRANCH   2  14
ATOM     14  C   UNL     1       3.277   4.178  19.148  0.00  0.00    +0.000 A 
ATOM     15  C   UNL     1       2.767   5.191  19.986  0.00  0.00    +0.000 A 
ATOM     16  C   UNL     1       1.975   4.892  21.094  0.00  0.00    +0.000 A 
ATOM     17  C   UNL     1       1.680   3.568  21.386  0.00  0.00    +0.000 A 
ATOM     18  C   UNL     1       2.190   2.548  20.581  0.00  0.00    +0.000 A 
ATOM     19  C   UNL     1       2.988   2.843  19.462  0.00  0.00    +0.000 A 
ATOM     20 BR   UNL     1       3.547   1.344  18.437  0.00  0.00    +0.000 Br
ENDBRANCH   2  14
TORSDOF 2
ENDMDL
MODEL 3
REMARK VINA RESULT:      -7.5      1.154      1.160
REMARK  Name = 
REMARK  2 active torsions:
REMARK  status: ('A' for Active; 'I' for Inactive)
REMARK    1  A    between atoms: C_2  and  C_13
REMARK    2  A    between atoms: N_3  and  C_4
REMARK                            x       y       z     vdW  Elec       q    Type
REMARK                         _______ _______ _______ _____ _____    ______ ____
ROOT
ATOM      1  O   UNL     1       3.523   5.898  17.466  0.00  0.00    +0.000 OA
ATOM      2  C   UNL     1       3.648   4.718  17.782  0.00  0.00    +0.000 C 
ATOM      3  N   UNL     1       4.565   3.835  17.247  0.00  0.00    +0.000 N 
ATOM      4  H   UNL     1       4.494   2.864  17.519  0.00  0.00    +0.000 HD
ENDROOT
BRANCH   3   5
ATOM      5  C   UNL     1       5.464   4.122  16.190  0.00  0.00    +0.000 A 
ATOM      6  C   UNL     1       6.614   4.913  16.360  0.00  0.00    +0.000 A 
ATOM      7  C   UNL     1       7.438   5.242  15.283  0.00  0.00    +0.000 A 
ATOM      8  C   UNL     1       7.106   4.760  14.033  0.00  0.00    +0.000 A 
ATOM      9  C   UNL     1       5.983   3.948  13.851  0.00  0.00    +0.000 A 
ATOM     10  C   UNL     1       5.160   3.611  14.919  0.00  0.00    +0.000 A 
ATOM     11  C   UNL     1       5.803   3.627  12.400  0.00  0.00    +0.000 C 
ATOM     12  C   UNL     1       7.202   3.942  11.846  0.00  0.00    +0.000 C 
ATOM     13  C   UNL     1       7.784   5.050  12.734  0.00  0.00    +0.000 C 
ENDBRANCH   3   5
BRANCH   2  14
ATOM     14  C   UNL     1       2.707   4.210  18.828  0.00  0.00    +0.000 A 
ATOM     15  C   UNL     1       2.539   2.809  18.842  0.00  0.00    +0.000 A 
ATOM     16  C   UNL     1       1.779   2.176  19.825  0.00  0.00    +0.000 A 
ATOM     17  C   UNL     1       1.169   2.935  20.813  0.00  0.00    +0.000 A 
ATOM     18  C   UNL     1       1.307   4.324  20.807  0.00  0.00    +0.000 A 
ATOM     19  C   UNL     1       2.072   4.969  19.820  0.00  0.00    +0.000 A 
ATOM     20 BR   UNL     1       2.209   6.856  19.993  0.00  0.00    +0.000 Br
ENDBRANCH   2  14
TORSDOF 2
ENDMDL
MODEL 4
REMARK VINA RESULT:      -7.2      1.646      1.925
REMARK  Name = 
REMARK  2 active torsions:
REMARK  status: ('A' for Active; 'I' for Inactive)
REMARK    1  A    between atoms: C_2  and  C_13
REMARK    2  A    between atoms: N_3  and  C_4
REMARK                            x       y       z     vdW  Elec       q    Type
REMARK                         _______ _______ _______ _____ _____    ______ ____
ROOT
ATOM      1  O   UNL     1       4.016   2.069  17.455  0.00  0.00    +0.000 OA
ATOM      2  C   UNL     1       3.907   3.168  17.991  0.00  0.00    +0.000 C 
ATOM      3  N   UNL     1       4.489   4.340  17.549  0.00  0.00    +0.000 N 
ATOM      4  H   UNL     1       4.406   5.155  18.141  0.00  0.00    +0.000 HD
ENDROOT
BRANCH   3   5
ATOM      5  C   UNL     1       5.371   4.455  16.448  0.00  0.00    +0.000 A 
ATOM      6  C   UNL     1       6.618   5.101  16.533  0.00  0.00    +0.000 A 
ATOM      7  C   UNL     1       7.431   5.268  15.411  0.00  0.00    +0.000 A 
ATOM      8  C   UNL     1       6.988   4.769  14.202  0.00  0.00    +0.000 A 
ATOM      9  C   UNL     1       5.766   4.099  14.105  0.00  0.00    +0.000 A 
ATOM     10  C   UNL     1       4.953   3.924  15.218  0.00  0.00    +0.000 A 
ATOM     11  C   UNL     1       5.486   3.731  12.681  0.00  0.00    +0.000 C 
ATOM     12  C   UNL     1       6.889   3.837  12.062  0.00  0.00    +0.000 C 
ATOM     13  C   UNL     1       7.643   4.905  12.865  0.00  0.00    +0.000 C 
ENDBRANCH   3   5
BRANCH   2  14
ATOM     14  C   UNL     1       3.079   3.218  19.237  0.00  0.00    +0.000 A 
ATOM     15  C   UNL     1       1.854   3.905  19.105  0.00  0.00    +0.000 A 
ATOM     16  C   UNL     1       0.925   3.945  20.145  0.00  0.00    +0.000 A 
ATOM     17  C   UNL     1       1.207   3.299  21.340  0.00  0.00    +0.000 A 
ATOM     18  C   UNL     1       2.422   2.629  21.498  0.00  0.00    +0.000 A 
ATOM     19  C   UNL     1       3.362   2.584  20.454  0.00  0.00    +0.000 A 
ATOM     20 BR   UNL     1       4.934   1.578  20.811  0.00  0.00    +0.000 Br
ENDBRANCH   2  14
TORSDOF 2
ENDMDL
MODEL 5
REMARK VINA RESULT:      -7.2      4.468      8.511
REMARK  Name = 
REMARK  2 active torsions:
REMARK  status: ('A' for Active; 'I' for Inactive)
REMARK    1  A    between atoms: C_2  and  C_13
REMARK    2  A    between atoms: N_3  and  C_4
REMARK                            x       y       z     vdW  Elec       q    Type
REMARK                         _______ _______ _______ _____ _____    ______ ____
ROOT
ATOM      1  O   UNL     1       2.478   8.309  17.184  0.00  0.00    +0.000 OA
ATOM      2  C   UNL     1       2.773   7.496  18.056  0.00  0.00    +0.000 C 
ATOM      3  N   UNL     1       2.326   7.519  19.362  0.00  0.00    +0.000 N 
ATOM      4  H   UNL     1       2.728   6.851  20.006  0.00  0.00    +0.000 HD
ENDROOT
BRANCH   3   5
ATOM      5  C   UNL     1       1.513   8.527  19.935  0.00  0.00    +0.000 A 
ATOM      6  C   UNL     1       1.127   9.686  19.237  0.00  0.00    +0.000 A 
ATOM      7  C   UNL     1       0.390  10.698  19.854  0.00  0.00    +0.000 A 
ATOM      8  C   UNL     1       0.032  10.532  21.177  0.00  0.00    +0.000 A 
ATOM      9  C   UNL     1       0.381   9.375  21.878  0.00  0.00    +0.000 A 
ATOM     10  C   UNL     1       1.110   8.360  21.269  0.00  0.00    +0.000 A 
ATOM     11  C   UNL     1      -0.056   9.479  23.305  0.00  0.00    +0.000 C 
ATOM     12  C   UNL     1      -1.103  10.601  23.219  0.00  0.00    +0.000 C 
ATOM     13  C   UNL     1      -0.674  11.510  22.059  0.00  0.00    +0.000 C 
ENDBRANCH   3   5
BRANCH   2  14
ATOM     14  C   UNL     1       3.710   6.402  17.650  0.00  0.00    +0.000 A 
ATOM     15  C   UNL     1       5.038   6.817  17.418  0.00  0.00    +0.000 A 
ATOM     16  C   UNL     1       6.050   5.900  17.138  0.00  0.00    +0.000 A 
ATOM     17  C   UNL     1       5.751   4.546  17.083  0.00  0.00    +0.000 A 
ATOM     18  C   UNL     1       4.440   4.115  17.291  0.00  0.00    +0.000 A 
ATOM     19  C   UNL     1       3.415   5.034  17.575  0.00  0.00    +0.000 A 
ATOM     20 BR   UNL     1       1.701   4.277  17.895  0.00  0.00    +0.000 Br
ENDBRANCH   2  14
TORSDOF 2
ENDMDL
MODEL 6
REMARK VINA RESULT:      -7.2      3.507      7.553
REMARK  Name = 
REMARK  2 active torsions:
REMARK  status: ('A' for Active; 'I' for Inactive)
REMARK    1  A    between atoms: C_2  and  C_13
REMARK    2  A    between atoms: N_3  and  C_4
REMARK                            x       y       z     vdW  Elec       q    Type
REMARK                         _______ _______ _______ _____ _____    ______ ____
ROOT
ATOM      1  O   UNL     1       2.804   5.042  17.735  0.00  0.00    +0.000 OA
ATOM      2  C   UNL     1       3.735   5.810  17.510  0.00  0.00    +0.000 C 
ATOM      3  N   UNL     1       3.756   7.158  17.810  0.00  0.00    +0.000 N 
ATOM      4  H   UNL     1       4.543   7.699  17.477  0.00  0.00    +0.000 HD
ENDROOT
BRANCH   3   5
ATOM      5  C   UNL     1       2.679   7.896  18.357  0.00  0.00    +0.000 A 
ATOM      6  C   UNL     1       1.966   8.863  17.625  0.00  0.00    +0.000 A 
ATOM      7  C   UNL     1       0.961   9.630  18.215  0.00  0.00    +0.000 A 
ATOM      8  C   UNL     1       0.666   9.409  19.546  0.00  0.00    +0.000 A 
ATOM      9  C   UNL     1       1.343   8.432  20.280  0.00  0.00    +0.000 A 
ATOM     10  C   UNL     1       2.342   7.661  19.699  0.00  0.00    +0.000 A 
ATOM     11  C   UNL     1       0.892   8.449  21.708  0.00  0.00    +0.000 C 
ATOM     12  C   UNL     1      -0.442   9.204  21.593  0.00  0.00    +0.000 C 
ATOM     13  C   UNL     1      -0.302  10.161  20.402  0.00  0.00    +0.000 C 
ENDBRANCH   3   5
BRANCH   2  14
ATOM     14  C   UNL     1       4.935   5.217  16.841  0.00  0.00    +0.000 A 
ATOM     15  C   UNL     1       4.766   4.932  15.470  0.00  0.00    +0.000 A 
ATOM     16  C   UNL     1       5.824   4.477  14.684  0.00  0.00    +0.000 A 
ATOM     17  C   UNL     1       7.075   4.297  15.258  0.00  0.00    +0.000 A 
ATOM     18  C   UNL     1       7.260   4.556  16.617  0.00  0.00    +0.000 A 
ATOM     19  C   UNL     1       6.198   5.015  17.415  0.00  0.00    +0.000 A 
ATOM     20 BR   UNL     1       6.633   5.379  19.228  0.00  0.00    +0.000 Br
ENDBRANCH   2  14
TORSDOF 2
ENDMDL
MODEL 7
REMARK VINA RESULT:      -7.1      4.304      5.659
REMARK  Name = 
REMARK  2 active torsions:
REMARK  status: ('A' for Active; 'I' for Inactive)
REMARK    1  A    between atoms: C_2  and  C_13
REMARK    2  A    between atoms: N_3  and  C_4
REMARK                            x       y       z     vdW  Elec       q    Type
REMARK                         _______ _______ _______ _____ _____    ______ ____
ROOT
ATOM      1  O   UNL     1       1.210   9.082  18.089  0.00  0.00    +0.000 OA
ATOM      2  C   UNL     1       1.379   8.683  19.238  0.00  0.00    +0.000 C 
ATOM      3  N   UNL     1       2.111   7.572  19.604  0.00  0.00    +0.000 N 
ATOM      4  H   UNL     1       2.084   7.293  20.575  0.00  0.00    +0.000 HD
ENDROOT
BRANCH   3   5
ATOM      5  C   UNL     1       2.728   6.662  18.711  0.00  0.00    +0.000 A 
ATOM      6  C   UNL     1       2.365   5.305  18.632  0.00  0.00    +0.000 A 
ATOM      7  C   UNL     1       3.044   4.416  17.798  0.00  0.00    +0.000 A 
ATOM      8  C   UNL     1       4.085   4.903  17.032  0.00  0.00    +0.000 A 
ATOM      9  C   UNL     1       4.440   6.253  17.075  0.00  0.00    +0.000 A 
ATOM     10  C   UNL     1       3.765   7.146  17.899  0.00  0.00    +0.000 A 
ATOM     11  C   UNL     1       5.640   6.504  16.217  0.00  0.00    +0.000 C 
ATOM     12  C   UNL     1       5.632   5.258  15.317  0.00  0.00    +0.000 C 
ATOM     13  C   UNL     1       5.000   4.127  16.141  0.00  0.00    +0.000 C 
ENDBRANCH   3   5
BRANCH   2  14
ATOM     14  C   UNL     1       0.712   9.477  20.318  0.00  0.00    +0.000 A 
ATOM     15  C   UNL     1       0.155   8.705  21.359  0.00  0.00    +0.000 A 
ATOM     16  C   UNL     1      -0.404   9.301  22.489  0.00  0.00    +0.000 A 
ATOM     17  C   UNL     1      -0.418  10.685  22.597  0.00  0.00    +0.000 A 
ATOM     18  C   UNL     1       0.110  11.467  21.569  0.00  0.00    +0.000 A 
ATOM     19  C   UNL     1       0.677  10.873  20.428  0.00  0.00    +0.000 A 
ATOM     20 BR   UNL     1       1.408  12.079  19.154  0.00  0.00    +0.000 Br
ENDBRANCH   2  14
TORSDOF 2
ENDMDL
MODEL 8
REMARK VINA RESULT:      -7.1      4.469      8.444
REMARK  Name = 
REMARK  2 active torsions:
REMARK  status: ('A' for Active; 'I' for Inactive)
REMARK    1  A    between atoms: C_2  and  C_13
REMARK    2  A    between atoms: N_3  and  C_4
REMARK                            x       y       z     vdW  Elec       q    Type
REMARK                         _______ _______ _______ _____ _____    ______ ____
ROOT
ATOM      1  O   UNL     1       2.414   6.345  20.089  0.00  0.00    +0.000 OA
ATOM      2  C   UNL     1       2.594   6.853  18.986  0.00  0.00    +0.000 C 
ATOM      3  N   UNL     1       2.152   8.100  18.593  0.00  0.00    +0.000 N 
ATOM      4  H   UNL     1       2.276   8.357  17.623  0.00  0.00    +0.000 HD
ENDROOT
BRANCH   3   5
ATOM      5  C   UNL     1       1.350   8.971  19.371  0.00  0.00    +0.000 A 
ATOM      6  C   UNL     1       0.800  10.161  18.861  0.00  0.00    +0.000 A 
ATOM      7  C   UNL     1       0.080  11.038  19.673  0.00  0.00    +0.000 A 
ATOM      8  C   UNL     1      -0.096  10.705  21.001  0.00  0.00    +0.000 A 
ATOM      9  C   UNL     1       0.419   9.513  21.518  0.00  0.00    +0.000 A 
ATOM     10  C   UNL     1       1.133   8.632  20.715  0.00  0.00    +0.000 A 
ATOM     11  C   UNL     1       0.160   9.430  22.990  0.00  0.00    +0.000 C 
ATOM     12  C   UNL     1      -0.965  10.464  23.157  0.00  0.00    +0.000 C 
ATOM     13  C   UNL     1      -0.751  11.523  22.067  0.00  0.00    +0.000 C 
ENDBRANCH   3   5
BRANCH   2  14
ATOM     14  C   UNL     1       3.349   6.027  17.992  0.00  0.00    +0.000 A 
ATOM     15  C   UNL     1       4.493   6.651  17.452  0.00  0.00    +0.000 A 
ATOM     16  C   UNL     1       5.358   5.971  16.596  0.00  0.00    +0.000 A 
ATOM     17  C   UNL     1       5.093   4.651  16.261  0.00  0.00    +0.000 A 
ATOM     18  C   UNL     1       3.956   4.020  16.770  0.00  0.00    +0.000 A 
ATOM     19  C   UNL     1       3.080   4.699  17.634  0.00  0.00    +0.000 A 
ATOM     20 BR   UNL     1       1.617   3.676  18.286  0.00  0.00    +0.000 Br
ENDBRANCH   2  14
TORSDOF 2
ENDMDL
MODEL 9
REMARK VINA RESULT:      -7.0      5.312      8.108
REMARK  Name = 
REMARK  2 active torsions:
REMARK  status: ('A' for Active; 'I' for Inactive)
REMARK    1  A    between atoms: C_2  and  C_13
REMARK    2  A    between atoms: N_3  and  C_4
REMARK                            x       y       z     vdW  Elec       q    Type
REMARK                         _______ _______ _______ _____ _____    ______ ____
ROOT
ATOM      1  O   UNL     1       2.256   7.274  19.531  0.00  0.00    +0.000 OA
ATOM      2  C   UNL     1       2.585   7.479  18.365  0.00  0.00    +0.000 C 
ATOM      3  N   UNL     1       2.174   8.544  17.589  0.00  0.00    +0.000 N 
ATOM      4  H   UNL     1       2.434   8.538  16.612  0.00  0.00    +0.000 HD
ENDROOT
BRANCH   3   5
ATOM      5  C   UNL     1       1.245   9.538  17.981  0.00  0.00    +0.000 A 
ATOM      6  C   UNL     1       1.615  10.688  18.701  0.00  0.00    +0.000 A 
ATOM      7  C   UNL     1       0.665  11.611  19.141  0.00  0.00    +0.000 A 
ATOM      8  C   UNL     1      -0.662  11.377  18.842  0.00  0.00    +0.000 A 
ATOM      9  C   UNL     1      -1.046  10.254  18.102  0.00  0.00    +0.000 A 
ATOM     10  C   UNL     1      -0.105   9.334  17.656  0.00  0.00    +0.000 A 
ATOM     11  C   UNL     1      -2.536  10.194  17.984  0.00  0.00    +0.000 C 
ATOM     12  C   UNL     1      -2.924  11.643  18.320  0.00  0.00    +0.000 C 
ATOM     13  C   UNL     1      -1.849  12.173  19.278  0.00  0.00    +0.000 C 
ENDBRANCH   3   5
BRANCH   2  14
ATOM     14  C   UNL     1       3.498   6.467  17.748  0.00  0.00    +0.000 A 
ATOM     15  C   UNL     1       4.739   6.979  17.313  0.00  0.00    +0.000 A 
ATOM     16  C   UNL     1       5.738   6.143  16.816  0.00  0.00    +0.000 A 
ATOM     17  C   UNL     1       5.513   4.776  16.743  0.00  0.00    +0.000 A 
ATOM     18  C   UNL     1       4.286   4.250  17.150  0.00  0.00    +0.000 A 
ATOM     19  C   UNL     1       3.274   5.087  17.653  0.00  0.00    +0.000 A 
ATOM     20 BR   UNL     1       1.690   4.206  18.223  0.00  0.00    +0.000 Br
ENDBRANCH   2  14
TORSDOF 2
ENDMDL
