MODEL 1
REMARK VINA RESULT:      -7.7      0.000      0.000
REMARK  Name = 
REMARK  13 active torsions:
REMARK  status: ('A' for Active; 'I' for Inactive)
REMARK    1  A    between atoms: C_1  and  C_2
REMARK    2  A    between atoms: C_2  and  C_3
REMARK    3  A    between atoms: C_3  and  C_4
REMARK    4  A    between atoms: C_3  and  S_5
REMARK    5  A    between atoms: S_5  and  C_6
REMARK    6  A    between atoms: C_6  and  C_7
REMARK    7  A    between atoms: C_6  and  S_13
REMARK    8  A    between atoms: C_6  and  C_18
REMARK    9  A    between atoms: C_7  and  N_8
REMARK   10  A    between atoms: S_13  and  C_14
REMARK   11  A    between atoms: C_14  and  C_15
REMARK   12  A    between atoms: C_14  and  C_16
REMARK   13  A    between atoms: C_16  and  C_17
REMARK                            x       y       z     vdW  Elec       q    Type
REMARK                         _______ _______ _______ _____ _____    ______ ____
ROOT
ATOM      1  C   UNL     1       4.395   4.935  17.082  0.00  0.00    +0.000 C 
ENDROOT
BRANCH   1   2
ATOM      2  C   UNL     1       3.716   6.135  17.788  0.00  0.00    +0.000 A 
ATOM      3  C   UNL     1       3.541   7.367  17.118  0.00  0.00    +0.000 A 
ATOM      4  C   UNL     1       2.712   8.373  17.622  0.00  0.00    +0.000 A 
ATOM      5  C   UNL     1       2.108   8.228  18.870  0.00  0.00    +0.000 A 
ATOM      6  C   UNL     1       1.261   9.223  19.383  0.00  0.00    +0.000 A 
ATOM      7  C   UNL     1       0.695   9.081  20.651  0.00  0.00    +0.000 A 
ATOM      8  C   UNL     1       0.968   7.947  21.409  0.00  0.00    +0.000 A 
ATOM      9  C   UNL     1       1.789   6.940  20.897  0.00  0.00    +0.000 A 
ATOM     10  C   UNL     1       2.368   7.062  19.628  0.00  0.00    +0.000 A 
ATOM     11  C   UNL     1       3.161   6.033  19.077  0.00  0.00    +0.000 A 
ENDBRANCH   1   2
BRANCH   1  12
ATOM     12  S   UNL     1       5.088   5.609  15.362  0.00  0.00    +0.000 S 
BRANCH  12  13
ATOM     13  C   UNL     1       5.818   4.141  14.446  0.00  0.00    +0.000 C 
ATOM     14  C   UNL     1       7.302   4.507  14.268  0.00  0.00    +0.000 C 
BRANCH  13  16
ATOM     15  C   UNL     1       6.156   2.974  12.159  0.00  0.00    +0.000 C 
ATOM     16  C   UNL     1       5.223   3.779  13.069  0.00  0.00    +0.000 C 
ENDBRANCH  13  16
ENDBRANCH  12  13
ENDBRANCH   1  12
BRANCH   1  17
ATOM     17  C   UNL     1       3.487   3.715  16.754  0.00  0.00    +0.000 C 
BRANCH  17  18
ATOM     18  N   UNL     1       2.601   3.120  17.743  0.00  0.00    +0.000 N 
ATOM     19  C   UNL     1       3.001   2.115  18.591  0.00  0.00    +0.000 A 
ATOM     20  C   UNL     1       1.929   1.867  19.416  0.00  0.00    +0.000 A 
ATOM     21  N   UNL     1       0.874   2.660  19.067  0.00  0.00    +0.000 NA
ATOM     22  C   UNL     1       1.307   3.399  18.066  0.00  0.00    +0.000 A 
ENDBRANCH  17  18
ENDBRANCH   1  17
BRANCH   1  23
ATOM     23  S   UNL     1       5.994   4.464  18.080  0.00  0.00    +0.000 S 
BRANCH  23  24
ATOM     24  C   UNL     1       6.776   6.046  18.695  0.00  0.00    +0.000 C 
ATOM     25  C   UNL     1       7.949   5.817  19.653  0.00  0.00    +0.000 C 
BRANCH  24  26
ATOM     26  C   UNL     1       7.388   6.849  17.507  0.00  0.00    +0.000 C 
ATOM     27  C   UNL     1       7.898   8.250  17.800  0.00  0.00    +0.000 C 
ENDBRANCH  24  26
ENDBRANCH  23  24
ENDBRANCH   1  23
TORSDOF 9
ENDMDL
MODEL 2
REMARK VINA RESULT:      -7.4      1.875      4.680
REMARK  Name = 
REMARK  13 active torsions:
REMARK  status: ('A' for Active; 'I' for Inactive)
REMARK    1  A    between atoms: C_1  and  C_2
REMARK    2  A    between atoms: C_2  and  C_3
REMARK    3  A    between atoms: C_3  and  C_4
REMARK    4  A    between atoms: C_3  and  S_5
REMARK    5  A    between atoms: S_5  and  C_6
REMARK    6  A    between atoms: C_6  and  C_7
REMARK    7  A    between atoms: C_6  and  S_13
REMARK    8  A    between atoms: C_6  and  C_18
REMARK    9  A    between atoms: C_7  and  N_8
REMARK   10  A    between atoms: S_13  and  C_14
REMARK   11  A    between atoms: C_14  and  C_15
REMARK   12  A    between atoms: C_14  and  C_16
REMARK   13  A    between atoms: C_16  and  C_17
REMARK                            x       y       z     vdW  Elec       q    Type
REMARK                         _______ _______ _______ _____ _____    ______ ____
ROOT
ATOM      1  C   UNL     1       4.341   5.137  17.206  0.00  0.00    +0.000 C 
ENDROOT
BRANCH   1   2
ATOM      2  C   UNL     1       3.614   6.349  17.842  0.00  0.00    +0.000 A 
ATOM      3  C   UNL     1       3.407   7.537  17.107  0.00  0.00    +0.000 A 
ATOM      4  C   UNL     1       2.539   8.539  17.550  0.00  0.00    +0.000 A 
ATOM      5  C   UNL     1       1.927   8.440  18.799  0.00  0.00    +0.000 A 
ATOM      6  C   UNL     1       1.043   9.431  19.251  0.00  0.00    +0.000 A 
ATOM      7  C   UNL     1       0.467   9.336  20.520  0.00  0.00    +0.000 A 
ATOM      8  C   UNL     1       0.769   8.253  21.338  0.00  0.00    +0.000 A 
ATOM      9  C   UNL     1       1.629   7.248  20.887  0.00  0.00    +0.000 A 
ATOM     10  C   UNL     1       2.218   7.324  19.619  0.00  0.00    +0.000 A 
ATOM     11  C   UNL     1       3.050   6.295  19.129  0.00  0.00    +0.000 A 
ENDBRANCH   1   2
BRANCH   1  12
ATOM     12  S   UNL     1       3.000   3.701  17.030  0.00  0.00    +0.000 S 
BRANCH  12  13
ATOM     13  C   UNL     1       2.748   2.966  18.740  0.00  0.00    +0.000 C 
ATOM     14  C   UNL     1       3.415   1.581  18.658  0.00  0.00    +0.000 C 
BRANCH  13  16
ATOM     15  C   UNL     1       0.985   3.539  20.549  0.00  0.00    +0.000 C 
ATOM     16  C   UNL     1       1.301   2.795  19.247  0.00  0.00    +0.000 C 
ENDBRANCH  13  16
ENDBRANCH  12  13
ENDBRANCH   1  12
BRANCH   1  17
ATOM     17  C   UNL     1       5.535   4.542  18.008  0.00  0.00    +0.000 C 
BRANCH  17  18
ATOM     18  N   UNL     1       6.633   5.366  18.489  0.00  0.00    +0.000 N 
ATOM     19  C   UNL     1       7.257   5.145  19.694  0.00  0.00    +0.000 A 
ATOM     20  C   UNL     1       8.275   6.066  19.768  0.00  0.00    +0.000 A 
ATOM     21  N   UNL     1       8.262   6.871  18.664  0.00  0.00    +0.000 NA
ATOM     22  C   UNL     1       7.271   6.426  17.919  0.00  0.00    +0.000 A 
ENDBRANCH  17  18
ENDBRANCH   1  17
BRANCH   1  23
ATOM     23  S   UNL     1       4.790   5.588  15.370  0.00  0.00    +0.000 S 
BRANCH  23  24
ATOM     24  C   UNL     1       6.016   4.321  14.749  0.00  0.00    +0.000 C 
ATOM     25  C   UNL     1       5.604   3.668  13.427  0.00  0.00    +0.000 C 
BRANCH  24  26
ATOM     26  C   UNL     1       7.388   4.995  14.445  0.00  0.00    +0.000 C 
ATOM     27  C   UNL     1       7.766   5.184  12.985  0.00  0.00    +0.000 C 
ENDBRANCH  24  26
ENDBRANCH  23  24
ENDBRANCH   1  23
TORSDOF 9
ENDMDL
MODEL 3
REMARK VINA RESULT:      -7.1      1.912      4.839
REMARK  Name = 
REMARK  13 active torsions:
REMARK  status: ('A' for Active; 'I' for Inactive)
REMARK    1  A    between atoms: C_1  and  C_2
REMARK    2  A    between atoms: C_2  and  C_3
REMARK    3  A    between atoms: C_3  and  C_4
REMARK    4  A    between atoms: C_3  and  S_5
REMARK    5  A    between atoms: S_5  and  C_6
REMARK    6  A    between atoms: C_6  and  C_7
REMARK    7  A    between atoms: C_6  and  S_13
REMARK    8  A    between atoms: C_6  and  C_18
REMARK    9  A    between atoms: C_7  and  N_8
REMARK   10  A    between atoms: S_13  and  C_14
REMARK   11  A    between atoms: C_14  and  C_15
REMARK   12  A    between atoms: C_14  and  C_16
REMARK   13  A    between atoms: C_16  and  C_17
REMARK                            x       y       z     vdW  Elec       q    Type
REMARK                         _______ _______ _______ _____ _____    ______ ____
ROOT
ATOM      1  C   UNL     1       4.327   4.904  17.511  0.00  0.00    +0.000 C 
ENDROOT
BRANCH   1   2
ATOM      2  C   UNL     1       3.347   5.885  18.202  0.00  0.00    +0.000 A 
ATOM      3  C   UNL     1       2.857   5.626  19.502  0.00  0.00    +0.000 A 
ATOM      4  C   UNL     1       2.189   6.600  20.249  0.00  0.00    +0.000 A 
ATOM      5  C   UNL     1       1.891   7.839  19.684  0.00  0.00    +0.000 A 
ATOM      6  C   UNL     1       1.234   8.833  20.427  0.00  0.00    +0.000 A 
ATOM      7  C   UNL     1       0.908  10.055  19.835  0.00  0.00    +0.000 A 
ATOM      8  C   UNL     1       1.239  10.291  18.505  0.00  0.00    +0.000 A 
ATOM      9  C   UNL     1       1.915   9.318  17.765  0.00  0.00    +0.000 A 
ATOM     10  C   UNL     1       2.251   8.085  18.338  0.00  0.00    +0.000 A 
ATOM     11  C   UNL     1       2.976   7.111  17.619  0.00  0.00    +0.000 A 
ENDBRANCH   1   2
BRANCH   1  12
ATOM     12  S   UNL     1       3.313   3.251  17.150  0.00  0.00    +0.000 S 
BRANCH  12  13
ATOM     13  C   UNL     1       3.111   2.356  18.788  0.00  0.00    +0.000 C 
ATOM     14  C   UNL     1       4.042   1.136  18.670  0.00  0.00    +0.000 C 
BRANCH  13  16
ATOM     15  C   UNL     1       0.597   2.927  19.041  0.00  0.00    +0.000 C 
ATOM     16  C   UNL     1       1.699   1.871  19.178  0.00  0.00    +0.000 C 
ENDBRANCH  13  16
ENDBRANCH  12  13
ENDBRANCH   1  12
BRANCH   1  17
ATOM     17  C   UNL     1       5.587   4.489  18.327  0.00  0.00    +0.000 C 
BRANCH  17  18
ATOM     18  N   UNL     1       6.662   5.425  18.621  0.00  0.00    +0.000 N 
ATOM     19  C   UNL     1       7.448   5.325  19.744  0.00  0.00    +0.000 A 
ATOM     20  C   UNL     1       8.385   6.326  19.641  0.00  0.00    +0.000 A 
ATOM     21  N   UNL     1       8.165   7.060  18.509  0.00  0.00    +0.000 NA
ATOM     22  C   UNL     1       7.131   6.496  17.921  0.00  0.00    +0.000 A 
ENDBRANCH  17  18
ENDBRANCH   1  17
BRANCH   1  23
ATOM     23  S   UNL     1       4.742   5.596  15.744  0.00  0.00    +0.000 S 
BRANCH  23  24
ATOM     24  C   UNL     1       5.834   4.350  14.879  0.00  0.00    +0.000 C 
ATOM     25  C   UNL     1       5.296   3.908  13.515  0.00  0.00    +0.000 C 
BRANCH  24  26
ATOM     26  C   UNL     1       7.230   4.971  14.569  0.00  0.00    +0.000 C 
ATOM     27  C   UNL     1       7.631   5.095  13.109  0.00  0.00    +0.000 C 
ENDBRANCH  24  26
ENDBRANCH  23  24
ENDBRANCH   1  23
TORSDOF 9
ENDMDL
MODEL 4
REMARK VINA RESULT:      -7.0      1.945      4.542
REMARK  Name = 
REMARK  13 active torsions:
REMARK  status: ('A' for Active; 'I' for Inactive)
REMARK    1  A    between atoms: C_1  and  C_2
REMARK    2  A    between atoms: C_2  and  C_3
REMARK    3  A    between atoms: C_3  and  C_4
REMARK    4  A    between atoms: C_3  and  S_5
REMARK    5  A    between atoms: S_5  and  C_6
REMARK    6  A    between atoms: C_6  and  C_7
REMARK    7  A    between atoms: C_6  and  S_13
REMARK    8  A    between atoms: C_6  and  C_18
REMARK    9  A    between atoms: C_7  and  N_8
REMARK   10  A    between atoms: S_13  and  C_14
REMARK   11  A    between atoms: C_14  and  C_15
REMARK   12  A    between atoms: C_14  and  C_16
REMARK   13  A    between atoms: C_16  and  C_17
REMARK                            x       y       z     vdW  Elec       q    Type
REMARK                         _______ _______ _______ _____ _____    ______ ____
ROOT
ATOM      1  C   UNL     1       3.861   6.032  17.828  0.00  0.00    +0.000 C 
ENDROOT
BRANCH   1   2
ATOM      2  C   UNL     1       3.045   7.220  18.399  0.00  0.00    +0.000 A 
ATOM      3  C   UNL     1       2.812   8.378  17.624  0.00  0.00    +0.000 A 
ATOM      4  C   UNL     1       1.875   9.344  18.002  0.00  0.00    +0.000 A 
ATOM      5  C   UNL     1       1.213   9.243  19.224  0.00  0.00    +0.000 A 
ATOM      6  C   UNL     1       0.259  10.198  19.611  0.00  0.00    +0.000 A 
ATOM      7  C   UNL     1      -0.368  10.104  20.854  0.00  0.00    +0.000 A 
ATOM      8  C   UNL     1      -0.049   9.058  21.714  0.00  0.00    +0.000 A 
ATOM      9  C   UNL     1       0.880   8.089  21.328  0.00  0.00    +0.000 A 
ATOM     10  C   UNL     1       1.521   8.164  20.086  0.00  0.00    +0.000 A 
ATOM     11  C   UNL     1       2.426   7.168  19.661  0.00  0.00    +0.000 A 
ENDBRANCH   1   2
BRANCH   1  12
ATOM     12  S   UNL     1       5.305   5.663  19.120  0.00  0.00    +0.000 S 
BRANCH  12  13
ATOM     13  C   UNL     1       6.928   6.074  18.269  0.00  0.00    +0.000 C 
ATOM     14  C   UNL     1       8.000   5.763  19.328  0.00  0.00    +0.000 C 
BRANCH  13  16
ATOM     15  C   UNL     1       8.346   8.239  18.350  0.00  0.00    +0.000 C 
ATOM     16  C   UNL     1       7.132   7.516  17.759  0.00  0.00    +0.000 C 
ENDBRANCH  13  16
ENDBRANCH  12  13
ENDBRANCH   1  12
BRANCH   1  17
ATOM     17  C   UNL     1       4.540   6.256  16.446  0.00  0.00    +0.000 C 
BRANCH  17  18
ATOM     18  N   UNL     1       5.206   5.180  15.727  0.00  0.00    +0.000 N 
ATOM     19  C   UNL     1       6.022   5.404  14.643  0.00  0.00    +0.000 A 
ATOM     20  C   UNL     1       6.518   4.173  14.282  0.00  0.00    +0.000 A 
ATOM     21  N   UNL     1       5.993   3.201  15.086  0.00  0.00    +0.000 NA
ATOM     22  C   UNL     1       5.215   3.834  15.939  0.00  0.00    +0.000 A 
ENDBRANCH  17  18
ENDBRANCH   1  17
BRANCH   1  23
ATOM     23  S   UNL     1       2.751   4.439  17.897  0.00  0.00    +0.000 S 
BRANCH  23  24
ATOM     24  C   UNL     1       2.659   3.878  19.677  0.00  0.00    +0.000 C 
ATOM     25  C   UNL     1       1.230   3.622  20.165  0.00  0.00    +0.000 C 
BRANCH  24  26
ATOM     26  C   UNL     1       3.386   2.510  19.855  0.00  0.00    +0.000 C 
ATOM     27  C   UNL     1       3.429   1.580  18.654  0.00  0.00    +0.000 C 
ENDBRANCH  24  26
ENDBRANCH  23  24
ENDBRANCH   1  23
TORSDOF 9
ENDMDL
MODEL 5
REMARK VINA RESULT:      -6.9      1.934      4.900
REMARK  Name = 
REMARK  13 active torsions:
REMARK  status: ('A' for Active; 'I' for Inactive)
REMARK    1  A    between atoms: C_1  and  C_2
REMARK    2  A    between atoms: C_2  and  C_3
REMARK    3  A    between atoms: C_3  and  C_4
REMARK    4  A    between atoms: C_3  and  S_5
REMARK    5  A    between atoms: S_5  and  C_6
REMARK    6  A    between atoms: C_6  and  C_7
REMARK    7  A    between atoms: C_6  and  S_13
REMARK    8  A    between atoms: C_6  and  C_18
REMARK    9  A    between atoms: C_7  and  N_8
REMARK   10  A    between atoms: S_13  and  C_14
REMARK   11  A    between atoms: C_14  and  C_15
REMARK   12  A    between atoms: C_14  and  C_16
REMARK   13  A    between atoms: C_16  and  C_17
REMARK                            x       y       z     vdW  Elec       q    Type
REMARK                         _______ _______ _______ _____ _____    ______ ____
ROOT
ATOM      1  C   UNL     1       4.336   5.536  17.556  0.00  0.00    +0.000 C 
ENDROOT
BRANCH   1   2
ATOM      2  C   UNL     1       3.288   6.428  18.269  0.00  0.00    +0.000 A 
ATOM      3  C   UNL     1       2.818   6.103  19.562  0.00  0.00    +0.000 A 
ATOM      4  C   UNL     1       2.083   7.008  20.331  0.00  0.00    +0.000 A 
ATOM      5  C   UNL     1       1.696   8.236  19.796  0.00  0.00    +0.000 A 
ATOM      6  C   UNL     1       0.970   9.161  20.562  0.00  0.00    +0.000 A 
ATOM      7  C   UNL     1       0.558  10.371  20.000  0.00  0.00    +0.000 A 
ATOM      8  C   UNL     1       0.870  10.662  18.676  0.00  0.00    +0.000 A 
ATOM      9  C   UNL     1       1.613   9.759  17.913  0.00  0.00    +0.000 A 
ATOM     10  C   UNL     1       2.037   8.539  18.457  0.00  0.00    +0.000 A 
ATOM     11  C   UNL     1       2.830   7.637  17.716  0.00  0.00    +0.000 A 
ENDBRANCH   1   2
BRANCH   1  12
ATOM     12  S   UNL     1       5.828   5.293  18.823  0.00  0.00    +0.000 S 
BRANCH  12  13
ATOM     13  C   UNL     1       7.284   6.275  18.158  0.00  0.00    +0.000 C 
ATOM     14  C   UNL     1       8.304   6.267  19.311  0.00  0.00    +0.000 C 
BRANCH  13  16
ATOM     15  C   UNL     1       8.198   8.693  17.991  0.00  0.00    +0.000 C 
ATOM     16  C   UNL     1       7.034   7.734  17.722  0.00  0.00    +0.000 C 
ENDBRANCH  13  16
ENDBRANCH  12  13
ENDBRANCH   1  12
BRANCH   1  17
ATOM     17  C   UNL     1       4.949   6.099  16.241  0.00  0.00    +0.000 C 
BRANCH  17  18
ATOM     18  N   UNL     1       5.543   5.236  15.231  0.00  0.00    +0.000 N 
ATOM     19  C   UNL     1       6.902   5.090  15.083  0.00  0.00    +0.000 A 
ATOM     20  C   UNL     1       7.076   4.154  14.091  0.00  0.00    +0.000 A 
ATOM     21  N   UNL     1       5.864   3.759  13.600  0.00  0.00    +0.000 NA
ATOM     22  C   UNL     1       4.968   4.422  14.302  0.00  0.00    +0.000 A 
ENDBRANCH  17  18
ENDBRANCH   1  17
BRANCH   1  23
ATOM     23  S   UNL     1       3.590   3.753  17.361  0.00  0.00    +0.000 S 
BRANCH  23  24
ATOM     24  C   UNL     1       2.425   3.456  18.792  0.00  0.00    +0.000 C 
ATOM     25  C   UNL     1       1.099   2.813  18.379  0.00  0.00    +0.000 C 
BRANCH  24  26
ATOM     26  C   UNL     1       3.052   2.449  19.805  0.00  0.00    +0.000 C 
ATOM     27  C   UNL     1       2.807   2.700  21.283  0.00  0.00    +0.000 C 
ENDBRANCH  24  26
ENDBRANCH  23  24
ENDBRANCH   1  23
TORSDOF 9
ENDMDL
MODEL 6
REMARK VINA RESULT:      -6.8      2.050      4.835
REMARK  Name = 
REMARK  13 active torsions:
REMARK  status: ('A' for Active; 'I' for Inactive)
REMARK    1  A    between atoms: C_1  and  C_2
REMARK    2  A    between atoms: C_2  and  C_3
REMARK    3  A    between atoms: C_3  and  C_4
REMARK    4  A    between atoms: C_3  and  S_5
REMARK    5  A    between atoms: S_5  and  C_6
REMARK    6  A    between atoms: C_6  and  C_7
REMARK    7  A    between atoms: C_6  and  S_13
REMARK    8  A    between atoms: C_6  and  C_18
REMARK    9  A    between atoms: C_7  and  N_8
REMARK   10  A    between atoms: S_13  and  C_14
REMARK   11  A    between atoms: C_14  and  C_15
REMARK   12  A    between atoms: C_14  and  C_16
REMARK   13  A    between atoms: C_16  and  C_17
REMARK                            x       y       z     vdW  Elec       q    Type
REMARK                         _______ _______ _______ _____ _____    ______ ____
ROOT
ATOM      1  C   UNL     1       3.640   5.876  18.137  0.00  0.00    +0.000 C 
ENDROOT
BRANCH   1   2
ATOM      2  C   UNL     1       2.899   7.170  18.560  0.00  0.00    +0.000 A 
ATOM      3  C   UNL     1       2.747   8.246  17.657  0.00  0.00    +0.000 A 
ATOM      4  C   UNL     1       1.872   9.306  17.909  0.00  0.00    +0.000 A 
ATOM      5  C   UNL     1       1.195   9.386  19.126  0.00  0.00    +0.000 A 
ATOM      6  C   UNL     1       0.303  10.437  19.389  0.00  0.00    +0.000 A 
ATOM      7  C   UNL     1      -0.339  10.524  20.625  0.00  0.00    +0.000 A 
ATOM      8  C   UNL     1      -0.095   9.563  21.602  0.00  0.00    +0.000 A 
ATOM      9  C   UNL     1       0.772   8.500  21.341  0.00  0.00    +0.000 A 
ATOM     10  C   UNL     1       1.426   8.394  20.107  0.00  0.00    +0.000 A 
ATOM     11  C   UNL     1       2.268   7.300  19.810  0.00  0.00    +0.000 A 
ENDBRANCH   1   2
BRANCH   1  12
ATOM     12  S   UNL     1       2.255   4.506  17.829  0.00  0.00    +0.000 S 
BRANCH  12  13
ATOM     13  C   UNL     1       2.271   3.358  19.315  0.00  0.00    +0.000 C 
ATOM     14  C   UNL     1       2.207   1.947  18.704  0.00  0.00    +0.000 C 
BRANCH  13  16
ATOM     15  C   UNL     1       1.392   2.786  21.683  0.00  0.00    +0.000 C 
ATOM     16  C   UNL     1       1.140   3.504  20.354  0.00  0.00    +0.000 C 
ENDBRANCH  13  16
ENDBRANCH  12  13
ENDBRANCH   1  12
BRANCH   1  17
ATOM     17  C   UNL     1       4.641   5.280  19.169  0.00  0.00    +0.000 C 
BRANCH  17  18
ATOM     18  N   UNL     1       6.070   5.551  19.109  0.00  0.00    +0.000 N 
ATOM     19  C   UNL     1       6.594   6.629  18.436  0.00  0.00    +0.000 A 
ATOM     20  C   UNL     1       7.950   6.592  18.661  0.00  0.00    +0.000 A 
ATOM     21  N   UNL     1       8.272   5.499  19.414  0.00  0.00    +0.000 NA
ATOM     22  C   UNL     1       7.128   4.899  19.667  0.00  0.00    +0.000 A 
ENDBRANCH  17  18
ENDBRANCH   1  17
BRANCH   1  23
ATOM     23  S   UNL     1       4.417   6.163  16.380  0.00  0.00    +0.000 S 
BRANCH  23  24
ATOM     24  C   UNL     1       5.470   4.675  15.967  0.00  0.00    +0.000 C 
ATOM     25  C   UNL     1       4.824   3.341  16.353  0.00  0.00    +0.000 C 
BRANCH  24  26
ATOM     26  C   UNL     1       5.690   4.574  14.427  0.00  0.00    +0.000 C 
ATOM     27  C   UNL     1       7.077   4.896  13.896  0.00  0.00    +0.000 C 
ENDBRANCH  24  26
ENDBRANCH  23  24
ENDBRANCH   1  23
TORSDOF 9
ENDMDL
MODEL 7
REMARK VINA RESULT:      -6.8      5.176      8.963
REMARK  Name = 
REMARK  13 active torsions:
REMARK  status: ('A' for Active; 'I' for Inactive)
REMARK    1  A    between atoms: C_1  and  C_2
REMARK    2  A    between atoms: C_2  and  C_3
REMARK    3  A    between atoms: C_3  and  C_4
REMARK    4  A    between atoms: C_3  and  S_5
REMARK    5  A    between atoms: S_5  and  C_6
REMARK    6  A    between atoms: C_6  and  C_7
REMARK    7  A    between atoms: C_6  and  S_13
REMARK    8  A    between atoms: C_6  and  C_18
REMARK    9  A    between atoms: C_7  and  N_8
REMARK   10  A    between atoms: S_13  and  C_14
REMARK   11  A    between atoms: C_14  and  C_15
REMARK   12  A    between atoms: C_14  and  C_16
REMARK   13  A    between atoms: C_16  and  C_17
REMARK                            x       y       z     vdW  Elec       q    Type
REMARK                         _______ _______ _______ _____ _____    ______ ____
ROOT
ATOM      1  C   UNL     1       0.509  10.967  19.425  0.00  0.00    +0.000 C 
ENDROOT
BRANCH   1   2
ATOM      2  C   UNL     1       1.153   9.610  19.048  0.00  0.00    +0.000 A 
ATOM      3  C   UNL     1       1.837   9.447  17.822  0.00  0.00    +0.000 A 
ATOM      4  C   UNL     1       2.643   8.335  17.566  0.00  0.00    +0.000 A 
ATOM      5  C   UNL     1       2.711   7.288  18.484  0.00  0.00    +0.000 A 
ATOM      6  C   UNL     1       3.527   6.171  18.247  0.00  0.00    +0.000 A 
ATOM      7  C   UNL     1       3.555   5.113  19.158  0.00  0.00    +0.000 A 
ATOM      8  C   UNL     1       2.773   5.168  20.308  0.00  0.00    +0.000 A 
ATOM      9  C   UNL     1       1.977   6.286  20.565  0.00  0.00    +0.000 A 
ATOM     10  C   UNL     1       1.933   7.358  19.664  0.00  0.00    +0.000 A 
ATOM     11  C   UNL     1       1.172   8.516  19.932  0.00  0.00    +0.000 A 
ENDBRANCH   1   2
BRANCH   1  12
ATOM     12  S   UNL     1      -1.445  10.708  19.350  0.00  0.00    +0.000 S 
BRANCH  12  13
ATOM     13  C   UNL     1      -1.974  11.002  17.572  0.00  0.00    +0.000 C 
ATOM     14  C   UNL     1      -3.310  11.756  17.696  0.00  0.00    +0.000 C 
BRANCH  13  16
ATOM     15  C   UNL     1      -2.817  10.072  15.307  0.00  0.00    +0.000 C 
ATOM     16  C   UNL     1      -2.178   9.770  16.666  0.00  0.00    +0.000 C 
ENDBRANCH  13  16
ENDBRANCH  12  13
ENDBRANCH   1  12
BRANCH   1  17
ATOM     17  C   UNL     1       0.838  12.175  18.500  0.00  0.00    +0.000 C 
BRANCH  17  18
ATOM     18  N   UNL     1       0.729  13.553  18.955  0.00  0.00    +0.000 N 
ATOM     19  C   UNL     1      -0.459  14.245  18.952  0.00  0.00    +0.000 A 
ATOM     20  C   UNL     1      -0.183  15.471  19.511  0.00  0.00    +0.000 A 
ATOM     21  N   UNL     1       1.146  15.562  19.814  0.00  0.00    +0.000 NA
ATOM     22  C   UNL     1       1.663  14.400  19.472  0.00  0.00    +0.000 A 
ENDBRANCH  17  18
ENDBRANCH   1  17
BRANCH   1  23
ATOM     23  S   UNL     1       0.865  11.312  21.304  0.00  0.00    +0.000 S 
BRANCH  23  24
ATOM     24  C   UNL     1      -0.630  10.766  22.283  0.00  0.00    +0.000 C 
ATOM     25  C   UNL     1      -0.312   9.719  23.354  0.00  0.00    +0.000 C 
BRANCH  24  26
ATOM     26  C   UNL     1      -1.232  11.967  23.073  0.00  0.00    +0.000 C 
ATOM     27  C   UNL     1      -2.741  12.002  23.250  0.00  0.00    +0.000 C 
ENDBRANCH  24  26
ENDBRANCH  23  24
ENDBRANCH   1  23
TORSDOF 9
ENDMDL
MODEL 8
REMARK VINA RESULT:      -6.8      1.861      3.381
REMARK  Name = 
REMARK  13 active torsions:
REMARK  status: ('A' for Active; 'I' for Inactive)
REMARK    1  A    between atoms: C_1  and  C_2
REMARK    2  A    between atoms: C_2  and  C_3
REMARK    3  A    between atoms: C_3  and  C_4
REMARK    4  A    between atoms: C_3  and  S_5
REMARK    5  A    between atoms: S_5  and  C_6
REMARK    6  A    between atoms: C_6  and  C_7
REMARK    7  A    between atoms: C_6  and  S_13
REMARK    8  A    between atoms: C_6  and  C_18
REMARK    9  A    between atoms: C_7  and  N_8
REMARK   10  A    between atoms: S_13  and  C_14
REMARK   11  A    between atoms: C_14  and  C_15
REMARK   12  A    between atoms: C_14  and  C_16
REMARK   13  A    between atoms: C_16  and  C_17
REMARK                            x       y       z     vdW  Elec       q    Type
REMARK                         _______ _______ _______ _____ _____    ______ ____
ROOT
ATOM      1  C   UNL     1       3.369   6.039  18.592  0.00  0.00    +0.000 C 
ENDROOT
BRANCH   1   2
ATOM      2  C   UNL     1       2.617   7.371  18.840  0.00  0.00    +0.000 A 
ATOM      3  C   UNL     1       2.425   8.301  17.794  0.00  0.00    +0.000 A 
ATOM      4  C   UNL     1       1.540   9.375  17.912  0.00  0.00    +0.000 A 
ATOM      5  C   UNL     1       0.891   9.624  19.121  0.00  0.00    +0.000 A 
ATOM      6  C   UNL     1      -0.012  10.690  19.250  0.00  0.00    +0.000 A 
ATOM      7  C   UNL     1      -0.626  10.949  20.477  0.00  0.00    +0.000 A 
ATOM      8  C   UNL     1      -0.343  10.145  21.577  0.00  0.00    +0.000 A 
ATOM      9  C   UNL     1       0.535   9.066  21.452  0.00  0.00    +0.000 A 
ATOM     10  C   UNL     1       1.162   8.789  20.230  0.00  0.00    +0.000 A 
ATOM     11  C   UNL     1       2.014   7.674  20.074  0.00  0.00    +0.000 A 
ENDBRANCH   1   2
BRANCH   1  12
ATOM     12  S   UNL     1       2.052   4.775  17.844  0.00  0.00    +0.000 S 
BRANCH  12  13
ATOM     13  C   UNL     1       2.921   3.123  17.642  0.00  0.00    +0.000 C 
ATOM     14  C   UNL     1       3.259   3.055  16.142  0.00  0.00    +0.000 C 
BRANCH  13  16
ATOM     15  C   UNL     1       0.745   2.093  18.595  0.00  0.00    +0.000 C 
ATOM     16  C   UNL     1       2.151   1.847  18.040  0.00  0.00    +0.000 C 
ENDBRANCH  13  16
ENDBRANCH  12  13
ENDBRANCH   1  12
BRANCH   1  17
ATOM     17  C   UNL     1       3.994   5.350  19.840  0.00  0.00    +0.000 C 
BRANCH  17  18
ATOM     18  N   UNL     1       3.277   4.345  20.612  0.00  0.00    +0.000 N 
ATOM     19  C   UNL     1       2.029   4.568  21.144  0.00  0.00    +0.000 A 
ATOM     20  C   UNL     1       1.653   3.384  21.733  0.00  0.00    +0.000 A 
ATOM     21  N   UNL     1       2.653   2.461  21.614  0.00  0.00    +0.000 NA
ATOM     22  C   UNL     1       3.608   3.065  20.938  0.00  0.00    +0.000 A 
ENDBRANCH  17  18
ENDBRANCH   1  17
BRANCH   1  23
ATOM     23  S   UNL     1       4.634   6.311  17.144  0.00  0.00    +0.000 S 
BRANCH  23  24
ATOM     24  C   UNL     1       6.121   5.226  17.466  0.00  0.00    +0.000 C 
ATOM     25  C   UNL     1       6.643   4.515  16.214  0.00  0.00    +0.000 C 
BRANCH  24  26
ATOM     26  C   UNL     1       7.325   6.085  17.961  0.00  0.00    +0.000 C 
ATOM     27  C   UNL     1       7.408   7.520  17.470  0.00  0.00    +0.000 C 
ENDBRANCH  24  26
ENDBRANCH  23  24
ENDBRANCH   1  23
TORSDOF 9
ENDMDL
MODEL 9
REMARK VINA RESULT:      -6.8      0.992      1.133
REMARK  Name = 
REMARK  13 active torsions:
REMARK  status: ('A' for Active; 'I' for Inactive)
REMARK    1  A    between atoms: C_1  and  C_2
REMARK    2  A    between atoms: C_2  and  C_3
REMARK    3  A    between atoms: C_3  and  C_4
REMARK    4  A    between atoms: C_3  and  S_5
REMARK    5  A    between atoms: S_5  and  C_6
REMARK    6  A    between atoms: C_6  and  C_7
REMARK    7  A    between atoms: C_6  and  S_13
REMARK    8  A    between atoms: C_6  and  C_18
REMARK    9  A    between atoms: C_7  and  N_8
REMARK   10  A    between atoms: S_13  and  C_14
REMARK   11  A    between atoms: C_14  and  C_15
REMARK   12  A    between atoms: C_14  and  C_16
REMARK   13  A    between atoms: C_16  and  C_17
REMARK                            x       y       z     vdW  Elec       q    Type
REMARK                         _______ _______ _______ _____ _____    ______ ____
ROOT
ATOM      1  C   UNL     1       4.696   4.213  17.933  0.00  0.00    +0.000 C 
ENDROOT
BRANCH   1   2
ATOM      2  C   UNL     1       4.029   5.577  18.244  0.00  0.00    +0.000 A 
ATOM      3  C   UNL     1       4.020   6.615  17.285  0.00  0.00    +0.000 A 
ATOM      4  C   UNL     1       3.214   7.747  17.428  0.00  0.00    +0.000 A 
ATOM      5  C   UNL     1       2.466   7.937  18.589  0.00  0.00    +0.000 A 
ATOM      6  C   UNL     1       1.641   9.063  18.741  0.00  0.00    +0.000 A 
ATOM      7  C   UNL     1       0.927   9.258  19.925  0.00  0.00    +0.000 A 
ATOM      8  C   UNL     1       1.031   8.332  20.958  0.00  0.00    +0.000 A 
ATOM      9  C   UNL     1       1.830   7.197  20.807  0.00  0.00    +0.000 A 
ATOM     10  C   UNL     1       2.555   6.981  19.628  0.00  0.00    +0.000 A 
ATOM     11  C   UNL     1       3.328   5.816  19.440  0.00  0.00    +0.000 A 
ENDBRANCH   1   2
BRANCH   1  12
ATOM     12  S   UNL     1       4.268   3.789  16.055  0.00  0.00    +0.000 S 
BRANCH  12  13
ATOM     13  C   UNL     1       5.800   4.170  15.038  0.00  0.00    +0.000 C 
ATOM     14  C   UNL     1       5.582   5.615  14.554  0.00  0.00    +0.000 C 
BRANCH  13  16
ATOM     15  C   UNL     1       6.516   4.030  12.553  0.00  0.00    +0.000 C 
ATOM     16  C   UNL     1       6.099   3.274  13.819  0.00  0.00    +0.000 C 
ENDBRANCH  13  16
ENDBRANCH  12  13
ENDBRANCH   1  12
BRANCH   1  17
ATOM     17  C   UNL     1       4.227   2.999  18.787  0.00  0.00    +0.000 C 
BRANCH  17  18
ATOM     18  N   UNL     1       2.848   2.849  19.229  0.00  0.00    +0.000 N 
ATOM     19  C   UNL     1       2.482   2.902  20.553  0.00  0.00    +0.000 A 
ATOM     20  C   UNL     1       1.111   2.792  20.571  0.00  0.00    +0.000 A 
ATOM     21  N   UNL     1       0.636   2.630  19.300  0.00  0.00    +0.000 NA
ATOM     22  C   UNL     1       1.697   2.670  18.522  0.00  0.00    +0.000 A 
ENDBRANCH  17  18
ENDBRANCH   1  17
BRANCH   1  23
ATOM     23  S   UNL     1       6.623   4.460  17.932  0.00  0.00    +0.000 S 
BRANCH  23  24
ATOM     24  C   UNL     1       6.984   6.175  18.583  0.00  0.00    +0.000 C 
ATOM     25  C   UNL     1       8.153   6.221  19.570  0.00  0.00    +0.000 C 
BRANCH  24  26
ATOM     26  C   UNL     1       7.414   7.119  17.419  0.00  0.00    +0.000 C 
ATOM     27  C   UNL     1       7.959   8.487  17.795  0.00  0.00    +0.000 C 
ENDBRANCH  24  26
ENDBRANCH  23  24
ENDBRANCH   1  23
TORSDOF 9
ENDMDL
