MODEL 1
REMARK VINA RESULT:      -8.4      0.000      0.000
REMARK  Name = 
REMARK  6 active torsions:
REMARK  status: ('A' for Active; 'I' for Inactive)
REMARK    1  A    between atoms: C_2  and  C_19
REMARK    2  A    between atoms: N_3  and  C_4
REMARK    3  A    between atoms: C_8  and  C_9
REMARK    4  A    between atoms: C_9  and  O_10
REMARK    5  A    between atoms: O_10  and  C_11
REMARK    6  A    between atoms: N_22  and  C_23
REMARK                            x       y       z     vdW  Elec       q    Type
REMARK                         _______ _______ _______ _____ _____    ______ ____
ROOT
ATOM      1  O   UNL     1      -0.218   7.764  21.056  0.00  0.00    +0.000 OA
ATOM      2  C   UNL     1       0.952   8.079  21.247  0.00  0.00    +0.000 C 
ATOM      3  N   UNL     1       2.057   7.360  20.817  0.00  0.00    +0.000 N 
ATOM      4  H   UNL     1       2.959   7.819  20.865  0.00  0.00    +0.000 HD
ENDROOT
BRANCH   3   5
ATOM      5  C   UNL     1       2.037   6.084  20.211  0.00  0.00    +0.000 A 
ATOM      6  C   UNL     1       1.395   4.979  20.778  0.00  0.00    +0.000 A 
ATOM      7  C   UNL     1       1.409   3.740  20.140  0.00  0.00    +0.000 A 
ATOM      8  C   UNL     1       2.085   3.579  18.933  0.00  0.00    +0.000 A 
ATOM      9  C   UNL     1       2.761   4.662  18.356  0.00  0.00    +0.000 A 
ATOM     10  C   UNL     1       2.719   5.915  18.997  0.00  0.00    +0.000 A 
BRANCH   9  11
ATOM     11  C   UNL     1       3.503   4.480  17.053  0.00  0.00    +0.000 C 
BRANCH  11  12
ATOM     12  O   UNL     1       4.809   3.987  17.338  0.00  0.00    +0.000 OA
BRANCH  12  13
ATOM     13  C   UNL     1       5.760   4.929  17.629  0.00  0.00    +0.000 A 
ATOM     14  C   UNL     1       6.321   4.829  18.908  0.00  0.00    +0.000 A 
ATOM     15  C   UNL     1       7.322   5.715  19.313  0.00  0.00    +0.000 A 
ATOM     16  C   UNL     1       7.769   6.687  18.428  0.00  0.00    +0.000 A 
ATOM     17  F   UNL     1       8.738   7.531  18.807  0.00  0.00    +0.000 F 
ATOM     18  C   UNL     1       7.232   6.791  17.151  0.00  0.00    +0.000 A 
ATOM     19  C   UNL     1       6.222   5.910  16.748  0.00  0.00    +0.000 A 
ENDBRANCH  12  13
ENDBRANCH  11  12
ENDBRANCH   9  11
ENDBRANCH   3   5
BRANCH   2  20
ATOM     20  C   UNL     1       1.308   9.383  21.965  0.00  0.00    +0.000 C 
ATOM     21  C   UNL     1       0.564   9.535  23.302  0.00  0.00    +0.000 C 
ATOM     22  C   UNL     1      -0.897   9.965  23.140  0.00  0.00    +0.000 C 
ATOM     23  N   UNL     1      -0.941  11.148  22.286  0.00  0.00    +0.000 N 
ATOM     24  C   UNL     1      -0.425  10.936  20.930  0.00  0.00    +0.000 C 
ATOM     25  C   UNL     1       1.062  10.594  21.044  0.00  0.00    +0.000 C 
BRANCH  23  26
ATOM     26  C   UNL     1      -1.862  12.163  22.508  0.00  0.00    +0.000 A 
ATOM     27  C   UNL     1      -1.737  13.392  21.847  0.00  0.00    +0.000 A 
ATOM     28  C   UNL     1      -2.605  14.432  22.150  0.00  0.00    +0.000 A 
ATOM     29  N   UNL     1      -3.600  14.341  23.053  0.00  0.00    +0.000 NA
ATOM     30  C   UNL     1      -3.725  13.151  23.674  0.00  0.00    +0.000 A 
ATOM     31  C   UNL     1      -2.899  12.059  23.437  0.00  0.00    +0.000 A 
ENDBRANCH  23  26
ENDBRANCH   2  20
TORSDOF 6
ENDMDL
MODEL 2
REMARK VINA RESULT:      -8.3      6.095      9.938
REMARK  Name = 
REMARK  6 active torsions:
REMARK  status: ('A' for Active; 'I' for Inactive)
REMARK    1  A    between atoms: C_2  and  C_19
REMARK    2  A    between atoms: N_3  and  C_4
REMARK    3  A    between atoms: C_8  and  C_9
REMARK    4  A    between atoms: C_9  and  O_10
REMARK    5  A    between atoms: O_10  and  C_11
REMARK    6  A    between atoms: N_22  and  C_23
REMARK                            x       y       z     vdW  Elec       q    Type
REMARK                         _______ _______ _______ _____ _____    ______ ____
ROOT
ATOM      1  O   UNL     1       7.005   8.194  17.073  0.00  0.00    +0.000 OA
ATOM      2  C   UNL     1       7.733   7.628  17.885  0.00  0.00    +0.000 C 
ATOM      3  N   UNL     1       8.585   8.263  18.776  0.00  0.00    +0.000 N 
ATOM      4  H   UNL     1       8.982   7.701  19.520  0.00  0.00    +0.000 HD
ENDROOT
BRANCH   3   5
ATOM      5  C   UNL     1       8.868   9.646  18.818  0.00  0.00    +0.000 A 
ATOM      6  C   UNL     1       8.803  10.473  17.694  0.00  0.00    +0.000 A 
ATOM      7  C   UNL     1       9.097  11.832  17.789  0.00  0.00    +0.000 A 
ATOM      8  C   UNL     1       9.483  12.383  19.009  0.00  0.00    +0.000 A 
ATOM      9  C   UNL     1       9.585  11.573  20.146  0.00  0.00    +0.000 A 
ATOM     10  C   UNL     1       9.261  10.206  20.043  0.00  0.00    +0.000 A 
BRANCH   9  11
ATOM     11  C   UNL     1      10.014  12.172  21.464  0.00  0.00    +0.000 C 
BRANCH  11  12
ATOM     12  O   UNL     1       9.121  13.232  21.794  0.00  0.00    +0.000 OA
BRANCH  12  13
ATOM     13  C   UNL     1       8.101  12.917  22.652  0.00  0.00    +0.000 A 
ATOM     14  C   UNL     1       8.422  11.968  23.630  0.00  0.00    +0.000 A 
ATOM     15  C   UNL     1       7.476  11.584  24.582  0.00  0.00    +0.000 A 
ATOM     16  C   UNL     1       6.215  12.166  24.561  0.00  0.00    +0.000 A 
ATOM     17  F   UNL     1       5.307  11.811  25.480  0.00  0.00    +0.000 F 
ATOM     18  C   UNL     1       5.885  13.120  23.605  0.00  0.00    +0.000 A 
ATOM     19  C   UNL     1       6.830  13.497  22.645  0.00  0.00    +0.000 A 
ENDBRANCH  12  13
ENDBRANCH  11  12
ENDBRANCH   9  11
ENDBRANCH   3   5
BRANCH   2  20
ATOM     20  C   UNL     1       7.721   6.104  18.023  0.00  0.00    +0.000 C 
ATOM     21  C   UNL     1       7.145   5.410  16.777  0.00  0.00    +0.000 C 
ATOM     22  C   UNL     1       5.617   5.464  16.701  0.00  0.00    +0.000 C 
ATOM     23  N   UNL     1       5.072   4.984  17.968  0.00  0.00    +0.000 N 
ATOM     24  C   UNL     1       5.451   5.787  19.134  0.00  0.00    +0.000 C 
ATOM     25  C   UNL     1       6.969   5.681  19.300  0.00  0.00    +0.000 C 
BRANCH  23  26
ATOM     26  C   UNL     1       3.901   4.238  18.011  0.00  0.00    +0.000 A 
ATOM     27  C   UNL     1       3.943   2.844  17.896  0.00  0.00    +0.000 A 
ATOM     28  C   UNL     1       2.761   2.117  17.843  0.00  0.00    +0.000 A 
ATOM     29  N   UNL     1       1.536   2.672  17.909  0.00  0.00    +0.000 NA
ATOM     30  C   UNL     1       1.502   4.013  18.036  0.00  0.00    +0.000 A 
ATOM     31  C   UNL     1       2.633   4.818  18.093  0.00  0.00    +0.000 A 
ENDBRANCH  23  26
ENDBRANCH   2  20
TORSDOF 6
ENDMDL
MODEL 3
REMARK VINA RESULT:      -8.2      6.220      9.073
REMARK  Name = 
REMARK  6 active torsions:
REMARK  status: ('A' for Active; 'I' for Inactive)
REMARK    1  A    between atoms: C_2  and  C_19
REMARK    2  A    between atoms: N_3  and  C_4
REMARK    3  A    between atoms: C_8  and  C_9
REMARK    4  A    between atoms: C_9  and  O_10
REMARK    5  A    between atoms: O_10  and  C_11
REMARK    6  A    between atoms: N_22  and  C_23
REMARK                            x       y       z     vdW  Elec       q    Type
REMARK                         _______ _______ _______ _____ _____    ______ ____
ROOT
ATOM      1  O   UNL     1       8.958   9.926  19.711  0.00  0.00    +0.000 OA
ATOM      2  C   UNL     1       9.047  10.001  18.489  0.00  0.00    +0.000 C 
ATOM      3  N   UNL     1       8.448   9.134  17.587  0.00  0.00    +0.000 N 
ATOM      4  H   UNL     1       8.434   9.413  16.613  0.00  0.00    +0.000 HD
ENDROOT
BRANCH   3   5
ATOM      5  C   UNL     1       7.755   7.946  17.907  0.00  0.00    +0.000 A 
ATOM      6  C   UNL     1       8.267   6.970  18.766  0.00  0.00    +0.000 A 
ATOM      7  C   UNL     1       7.542   5.812  19.046  0.00  0.00    +0.000 A 
ATOM      8  C   UNL     1       6.300   5.601  18.452  0.00  0.00    +0.000 A 
ATOM      9  C   UNL     1       5.775   6.549  17.565  0.00  0.00    +0.000 A 
ATOM     10  C   UNL     1       6.505   7.726  17.309  0.00  0.00    +0.000 A 
BRANCH   9  11
ATOM     11  C   UNL     1       4.433   6.310  16.914  0.00  0.00    +0.000 C 
BRANCH  11  12
ATOM     12  O   UNL     1       3.416   6.836  17.764  0.00  0.00    +0.000 OA
BRANCH  12  13
ATOM     13  C   UNL     1       2.721   5.922  18.510  0.00  0.00    +0.000 A 
ATOM     14  C   UNL     1       2.349   4.759  17.825  0.00  0.00    +0.000 A 
ATOM     15  C   UNL     1       1.661   3.738  18.484  0.00  0.00    +0.000 A 
ATOM     16  C   UNL     1       1.364   3.879  19.833  0.00  0.00    +0.000 A 
ATOM     17  F   UNL     1       0.715   2.898  20.474  0.00  0.00    +0.000 F 
ATOM     18  C   UNL     1       1.739   5.021  20.531  0.00  0.00    +0.000 A 
ATOM     19  C   UNL     1       2.419   6.048  19.868  0.00  0.00    +0.000 A 
ENDBRANCH  12  13
ENDBRANCH  11  12
ENDBRANCH   9  11
ENDBRANCH   3   5
BRANCH   2  20
ATOM     20  C   UNL     1       9.818  11.144  17.825  0.00  0.00    +0.000 C 
ATOM     21  C   UNL     1      11.049  11.569  18.643  0.00  0.00    +0.000 C 
ATOM     22  C   UNL     1      10.704  12.440  19.855  0.00  0.00    +0.000 C 
ATOM     23  N   UNL     1       9.863  13.546  19.408  0.00  0.00    +0.000 N 
ATOM     24  C   UNL     1       8.583  13.137  18.822  0.00  0.00    +0.000 C 
ATOM     25  C   UNL     1       8.885  12.340  17.551  0.00  0.00    +0.000 C 
BRANCH  23  26
ATOM     26  C   UNL     1       9.975  14.810  19.973  0.00  0.00    +0.000 A 
ATOM     27  C   UNL     1       9.443  15.929  19.320  0.00  0.00    +0.000 A 
ATOM     28  C   UNL     1       9.645  17.198  19.846  0.00  0.00    +0.000 A 
ATOM     29  N   UNL     1      10.329  17.440  20.980  0.00  0.00    +0.000 NA
ATOM     30  C   UNL     1      10.824  16.358  21.612  0.00  0.00    +0.000 A 
ATOM     31  C   UNL     1      10.674  15.054  21.157  0.00  0.00    +0.000 A 
ENDBRANCH  23  26
ENDBRANCH   2  20
TORSDOF 6
ENDMDL
MODEL 4
REMARK VINA RESULT:      -8.2      0.756      1.391
REMARK  Name = 
REMARK  6 active torsions:
REMARK  status: ('A' for Active; 'I' for Inactive)
REMARK    1  A    between atoms: C_2  and  C_19
REMARK    2  A    between atoms: N_3  and  C_4
REMARK    3  A    between atoms: C_8  and  C_9
REMARK    4  A    between atoms: C_9  and  O_10
REMARK    5  A    between atoms: O_10  and  C_11
REMARK    6  A    between atoms: N_22  and  C_23
REMARK                            x       y       z     vdW  Elec       q    Type
REMARK                         _______ _______ _______ _____ _____    ______ ____
ROOT
ATOM      1  O   UNL     1       1.067   8.866  19.302  0.00  0.00    +0.000 OA
ATOM      2  C   UNL     1       1.491   8.674  20.438  0.00  0.00    +0.000 C 
ATOM      3  N   UNL     1       1.988   7.470  20.915  0.00  0.00    +0.000 N 
ATOM      4  H   UNL     1       2.484   7.489  21.799  0.00  0.00    +0.000 HD
ENDROOT
BRANCH   3   5
ATOM      5  C   UNL     1       1.970   6.232  20.235  0.00  0.00    +0.000 A 
ATOM      6  C   UNL     1       1.241   5.126  20.681  0.00  0.00    +0.000 A 
ATOM      7  C   UNL     1       1.261   3.925  19.974  0.00  0.00    +0.000 A 
ATOM      8  C   UNL     1       2.029   3.804  18.818  0.00  0.00    +0.000 A 
ATOM      9  C   UNL     1       2.791   4.887  18.363  0.00  0.00    +0.000 A 
ATOM     10  C   UNL     1       2.744   6.103  19.072  0.00  0.00    +0.000 A 
BRANCH   9  11
ATOM     11  C   UNL     1       3.631   4.747  17.116  0.00  0.00    +0.000 C 
BRANCH  11  12
ATOM     12  O   UNL     1       4.864   4.123  17.466  0.00  0.00    +0.000 OA
BRANCH  12  13
ATOM     13  C   UNL     1       5.875   4.961  17.854  0.00  0.00    +0.000 A 
ATOM     14  C   UNL     1       6.175   5.986  16.948  0.00  0.00    +0.000 A 
ATOM     15  C   UNL     1       7.168   6.923  17.242  0.00  0.00    +0.000 A 
ATOM     16  C   UNL     1       7.845   6.840  18.452  0.00  0.00    +0.000 A 
ATOM     17  F   UNL     1       8.789   7.743  18.746  0.00  0.00    +0.000 F 
ATOM     18  C   UNL     1       7.550   5.836  19.367  0.00  0.00    +0.000 A 
ATOM     19  C   UNL     1       6.563   4.892  19.068  0.00  0.00    +0.000 A 
ENDBRANCH  12  13
ENDBRANCH  11  12
ENDBRANCH   9  11
ENDBRANCH   3   5
BRANCH   2  20
ATOM     20  C   UNL     1       1.558   9.814  21.456  0.00  0.00    +0.000 C 
ATOM     21  C   UNL     1       0.674   9.551  22.687  0.00  0.00    +0.000 C 
ATOM     22  C   UNL     1      -0.815   9.800  22.432  0.00  0.00    +0.000 C 
ATOM     23  N   UNL     1      -0.970  11.130  21.849  0.00  0.00    +0.000 N 
ATOM     24  C   UNL     1      -0.300  11.308  20.558  0.00  0.00    +0.000 C 
ATOM     25  C   UNL     1       1.206  11.158  20.790  0.00  0.00    +0.000 C 
BRANCH  23  26
ATOM     26  C   UNL     1      -2.062  11.930  22.161  0.00  0.00    +0.000 A 
ATOM     27  C   UNL     1      -2.633  11.885  23.439  0.00  0.00    +0.000 A 
ATOM     28  C   UNL     1      -3.782  12.615  23.709  0.00  0.00    +0.000 A 
ATOM     29  N   UNL     1      -4.403  13.399  22.808  0.00  0.00    +0.000 NA
ATOM     30  C   UNL     1      -3.839  13.451  21.585  0.00  0.00    +0.000 A 
ATOM     31  C   UNL     1      -2.694  12.751  21.226  0.00  0.00    +0.000 A 
ENDBRANCH  23  26
ENDBRANCH   2  20
TORSDOF 6
ENDMDL
MODEL 5
REMARK VINA RESULT:      -8.1      4.696     10.414
REMARK  Name = 
REMARK  6 active torsions:
REMARK  status: ('A' for Active; 'I' for Inactive)
REMARK    1  A    between atoms: C_2  and  C_19
REMARK    2  A    between atoms: N_3  and  C_4
REMARK    3  A    between atoms: C_8  and  C_9
REMARK    4  A    between atoms: C_9  and  O_10
REMARK    5  A    between atoms: O_10  and  C_11
REMARK    6  A    between atoms: N_22  and  C_23
REMARK                            x       y       z     vdW  Elec       q    Type
REMARK                         _______ _______ _______ _____ _____    ______ ____
ROOT
ATOM      1  O   UNL     1       2.052   5.164  18.549  0.00  0.00    +0.000 OA
ATOM      2  C   UNL     1       3.070   5.632  19.051  0.00  0.00    +0.000 C 
ATOM      3  N   UNL     1       3.123   6.773  19.839  0.00  0.00    +0.000 N 
ATOM      4  H   UNL     1       3.980   6.945  20.352  0.00  0.00    +0.000 HD
ENDROOT
BRANCH   3   5
ATOM      5  C   UNL     1       2.056   7.665  20.087  0.00  0.00    +0.000 A 
ATOM      6  C   UNL     1       1.397   7.744  21.317  0.00  0.00    +0.000 A 
ATOM      7  C   UNL     1       0.347   8.640  21.508  0.00  0.00    +0.000 A 
ATOM      8  C   UNL     1      -0.077   9.459  20.463  0.00  0.00    +0.000 A 
ATOM      9  C   UNL     1       0.546   9.381  19.212  0.00  0.00    +0.000 A 
ATOM     10  C   UNL     1       1.623   8.489  19.038  0.00  0.00    +0.000 A 
BRANCH   9  11
ATOM     11  C   UNL     1       0.076  10.261  18.079  0.00  0.00    +0.000 C 
BRANCH  11  12
ATOM     12  O   UNL     1      -0.875   9.536  17.304  0.00  0.00    +0.000 OA
BRANCH  12  13
ATOM     13  C   UNL     1      -2.055  10.178  17.041  0.00  0.00    +0.000 A 
ATOM     14  C   UNL     1      -2.673  10.760  18.155  0.00  0.00    +0.000 A 
ATOM     15  C   UNL     1      -3.868  11.469  18.013  0.00  0.00    +0.000 A 
ATOM     16  C   UNL     1      -4.430  11.607  16.751  0.00  0.00    +0.000 A 
ATOM     17  F   UNL     1      -5.570  12.297  16.606  0.00  0.00    +0.000 F 
ATOM     18  C   UNL     1      -3.822  11.047  15.633  0.00  0.00    +0.000 A 
ATOM     19  C   UNL     1      -2.631  10.329  15.777  0.00  0.00    +0.000 A 
ENDBRANCH  12  13
ENDBRANCH  11  12
ENDBRANCH   9  11
ENDBRANCH   3   5
BRANCH   2  20
ATOM     20  C   UNL     1       4.421   4.934  18.887  0.00  0.00    +0.000 C 
ATOM     21  C   UNL     1       5.489   5.863  18.286  0.00  0.00    +0.000 C 
ATOM     22  C   UNL     1       5.348   6.054  16.773  0.00  0.00    +0.000 C 
ATOM     23  N   UNL     1       5.268   4.739  16.145  0.00  0.00    +0.000 N 
ATOM     24  C   UNL     1       4.114   3.936  16.563  0.00  0.00    +0.000 C 
ATOM     25  C   UNL     1       4.268   3.644  18.058  0.00  0.00    +0.000 C 
BRANCH  23  26
ATOM     26  C   UNL     1       5.847   4.496  14.906  0.00  0.00    +0.000 A 
ATOM     27  C   UNL     1       7.042   5.130  14.546  0.00  0.00    +0.000 A 
ATOM     28  C   UNL     1       7.560   4.956  13.269  0.00  0.00    +0.000 A 
ATOM     29  N   UNL     1       6.987   4.187  12.324  0.00  0.00    +0.000 NA
ATOM     30  C   UNL     1       5.845   3.567  12.683  0.00  0.00    +0.000 A 
ATOM     31  C   UNL     1       5.254   3.688  13.934  0.00  0.00    +0.000 A 
ENDBRANCH  23  26
ENDBRANCH   2  20
TORSDOF 6
ENDMDL
MODEL 6
REMARK VINA RESULT:      -8.1      2.689      3.292
REMARK  Name = 
REMARK  6 active torsions:
REMARK  status: ('A' for Active; 'I' for Inactive)
REMARK    1  A    between atoms: C_2  and  C_19
REMARK    2  A    between atoms: N_3  and  C_4
REMARK    3  A    between atoms: C_8  and  C_9
REMARK    4  A    between atoms: C_9  and  O_10
REMARK    5  A    between atoms: O_10  and  C_11
REMARK    6  A    between atoms: N_22  and  C_23
REMARK                            x       y       z     vdW  Elec       q    Type
REMARK                         _______ _______ _______ _____ _____    ______ ____
ROOT
ATOM      1  O   UNL     1       0.997   8.080  21.264  0.00  0.00    +0.000 OA
ATOM      2  C   UNL     1       1.426   8.468  20.181  0.00  0.00    +0.000 C 
ATOM      3  N   UNL     1       2.043   7.668  19.231  0.00  0.00    +0.000 N 
ATOM      4  H   UNL     1       2.175   8.062  18.306  0.00  0.00    +0.000 HD
ENDROOT
BRANCH   3   5
ATOM      5  C   UNL     1       2.408   6.313  19.391  0.00  0.00    +0.000 A 
ATOM      6  C   UNL     1       2.203   5.602  20.576  0.00  0.00    +0.000 A 
ATOM      7  C   UNL     1       2.586   4.266  20.683  0.00  0.00    +0.000 A 
ATOM      8  C   UNL     1       3.202   3.625  19.611  0.00  0.00    +0.000 A 
ATOM      9  C   UNL     1       3.447   4.321  18.421  0.00  0.00    +0.000 A 
ATOM     10  C   UNL     1       3.032   5.663  18.316  0.00  0.00    +0.000 A 
BRANCH   9  11
ATOM     11  C   UNL     1       4.126   3.625  17.265  0.00  0.00    +0.000 C 
BRANCH  11  12
ATOM     12  O   UNL     1       4.808   4.603  16.484  0.00  0.00    +0.000 OA
BRANCH  12  13
ATOM     13  C   UNL     1       5.837   5.260  17.104  0.00  0.00    +0.000 A 
ATOM     14  C   UNL     1       5.990   6.602  16.734  0.00  0.00    +0.000 A 
ATOM     15  C   UNL     1       6.986   7.388  17.318  0.00  0.00    +0.000 A 
ATOM     16  C   UNL     1       7.813   6.831  18.284  0.00  0.00    +0.000 A 
ATOM     17  F   UNL     1       8.763   7.583  18.856  0.00  0.00    +0.000 F 
ATOM     18  C   UNL     1       7.666   5.504  18.671  0.00  0.00    +0.000 A 
ATOM     19  C   UNL     1       6.675   4.714  18.079  0.00  0.00    +0.000 A 
ENDBRANCH  12  13
ENDBRANCH  11  12
ENDBRANCH   9  11
ENDBRANCH   3   5
BRANCH   2  20
ATOM     20  C   UNL     1       1.260   9.926  19.746  0.00  0.00    +0.000 C 
ATOM     21  C   UNL     1       0.124  10.635  20.503  0.00  0.00    +0.000 C 
ATOM     22  C   UNL     1      -1.271  10.271  19.987  0.00  0.00    +0.000 C 
ATOM     23  N   UNL     1      -1.296  10.463  18.539  0.00  0.00    +0.000 N 
ATOM     24  C   UNL     1      -0.354   9.617  17.800  0.00  0.00    +0.000 C 
ATOM     25  C   UNL     1       1.062  10.017  18.221  0.00  0.00    +0.000 C 
BRANCH  23  26
ATOM     26  C   UNL     1      -2.432  10.934  17.895  0.00  0.00    +0.000 A 
ATOM     27  C   UNL     1      -3.418  11.625  18.610  0.00  0.00    +0.000 A 
ATOM     28  C   UNL     1      -4.593  12.006  17.976  0.00  0.00    +0.000 A 
ATOM     29  N   UNL     1      -4.859  11.763  16.679  0.00  0.00    +0.000 NA
ATOM     30  C   UNL     1      -3.899  11.112  15.992  0.00  0.00    +0.000 A 
ATOM     31  C   UNL     1      -2.697  10.690  16.546  0.00  0.00    +0.000 A 
ENDBRANCH  23  26
ENDBRANCH   2  20
TORSDOF 6
ENDMDL
MODEL 7
REMARK VINA RESULT:      -8.1      6.380     10.049
REMARK  Name = 
REMARK  6 active torsions:
REMARK  status: ('A' for Active; 'I' for Inactive)
REMARK    1  A    between atoms: C_2  and  C_19
REMARK    2  A    between atoms: N_3  and  C_4
REMARK    3  A    between atoms: C_8  and  C_9
REMARK    4  A    between atoms: C_9  and  O_10
REMARK    5  A    between atoms: O_10  and  C_11
REMARK    6  A    between atoms: N_22  and  C_23
REMARK                            x       y       z     vdW  Elec       q    Type
REMARK                         _______ _______ _______ _____ _____    ______ ____
ROOT
ATOM      1  O   UNL     1       8.194   6.756  18.919  0.00  0.00    +0.000 OA
ATOM      2  C   UNL     1       7.780   7.173  17.841  0.00  0.00    +0.000 C 
ATOM      3  N   UNL     1       7.918   8.473  17.378  0.00  0.00    +0.000 N 
ATOM      4  H   UNL     1       7.710   8.644  16.401  0.00  0.00    +0.000 HD
ENDROOT
BRANCH   3   5
ATOM      5  C   UNL     1       8.429   9.569  18.109  0.00  0.00    +0.000 A 
ATOM      6  C   UNL     1       9.012   9.439  19.371  0.00  0.00    +0.000 A 
ATOM      7  C   UNL     1       9.498  10.554  20.052  0.00  0.00    +0.000 A 
ATOM      8  C   UNL     1       9.388  11.823  19.489  0.00  0.00    +0.000 A 
ATOM      9  C   UNL     1       8.782  11.987  18.237  0.00  0.00    +0.000 A 
ATOM     10  C   UNL     1       8.318  10.850  17.548  0.00  0.00    +0.000 A 
BRANCH   9  11
ATOM     11  C   UNL     1       8.655  13.366  17.635  0.00  0.00    +0.000 C 
BRANCH  11  12
ATOM     12  O   UNL     1       7.290  13.586  17.289  0.00  0.00    +0.000 OA
BRANCH  12  13
ATOM     13  C   UNL     1       6.665  14.623  17.929  0.00  0.00    +0.000 A 
ATOM     14  C   UNL     1       7.523  15.585  18.475  0.00  0.00    +0.000 A 
ATOM     15  C   UNL     1       7.007  16.706  19.128  0.00  0.00    +0.000 A 
ATOM     16  C   UNL     1       5.631  16.867  19.217  0.00  0.00    +0.000 A 
ATOM     17  F   UNL     1       5.128  17.946  19.832  0.00  0.00    +0.000 F 
ATOM     18  C   UNL     1       4.765  15.927  18.669  0.00  0.00    +0.000 A 
ATOM     19  C   UNL     1       5.282  14.800  18.024  0.00  0.00    +0.000 A 
ENDBRANCH  12  13
ENDBRANCH  11  12
ENDBRANCH   9  11
ENDBRANCH   3   5
BRANCH   2  20
ATOM     20  C   UNL     1       7.090   6.235  16.848  0.00  0.00    +0.000 C 
ATOM     21  C   UNL     1       5.651   6.677  16.533  0.00  0.00    +0.000 C 
ATOM     22  C   UNL     1       4.650   6.323  17.637  0.00  0.00    +0.000 C 
ATOM     23  N   UNL     1       4.792   4.906  17.956  0.00  0.00    +0.000 N 
ATOM     24  C   UNL     1       6.114   4.529  18.468  0.00  0.00    +0.000 C 
ATOM     25  C   UNL     1       7.133   4.780  17.355  0.00  0.00    +0.000 C 
BRANCH  23  26
ATOM     26  C   UNL     1       3.691   4.129  18.291  0.00  0.00    +0.000 A 
ATOM     27  C   UNL     1       3.848   2.774  18.608  0.00  0.00    +0.000 A 
ATOM     28  C   UNL     1       2.731   1.985  18.846  0.00  0.00    +0.000 A 
ATOM     29  N   UNL     1       1.465   2.443  18.805  0.00  0.00    +0.000 NA
ATOM     30  C   UNL     1       1.322   3.751  18.515  0.00  0.00    +0.000 A 
ATOM     31  C   UNL     1       2.381   4.612  18.259  0.00  0.00    +0.000 A 
ENDBRANCH  23  26
ENDBRANCH   2  20
TORSDOF 6
ENDMDL
MODEL 8
REMARK VINA RESULT:      -8.0      2.168      2.627
REMARK  Name = 
REMARK  6 active torsions:
REMARK  status: ('A' for Active; 'I' for Inactive)
REMARK    1  A    between atoms: C_2  and  C_19
REMARK    2  A    between atoms: N_3  and  C_4
REMARK    3  A    between atoms: C_8  and  C_9
REMARK    4  A    between atoms: C_9  and  O_10
REMARK    5  A    between atoms: O_10  and  C_11
REMARK    6  A    between atoms: N_22  and  C_23
REMARK                            x       y       z     vdW  Elec       q    Type
REMARK                         _______ _______ _______ _____ _____    ______ ____
ROOT
ATOM      1  O   UNL     1       2.019   7.922  17.952  0.00  0.00    +0.000 OA
ATOM      2  C   UNL     1       1.961   8.218  19.141  0.00  0.00    +0.000 C 
ATOM      3  N   UNL     1       2.085   7.327  20.197  0.00  0.00    +0.000 N 
ATOM      4  H   UNL     1       2.214   7.717  21.123  0.00  0.00    +0.000 HD
ENDROOT
BRANCH   3   5
ATOM      5  C   UNL     1       2.162   5.920  20.095  0.00  0.00    +0.000 A 
ATOM      6  C   UNL     1       1.238   5.059  20.694  0.00  0.00    +0.000 A 
ATOM      7  C   UNL     1       1.363   3.677  20.566  0.00  0.00    +0.000 A 
ATOM      8  C   UNL     1       2.428   3.131  19.854  0.00  0.00    +0.000 A 
ATOM      9  C   UNL     1       3.385   3.968  19.268  0.00  0.00    +0.000 A 
ATOM     10  C   UNL     1       3.235   5.364  19.382  0.00  0.00    +0.000 A 
BRANCH   9  11
ATOM     11  C   UNL     1       4.544   3.372  18.506  0.00  0.00    +0.000 C 
BRANCH  11  12
ATOM     12  O   UNL     1       5.754   3.713  19.179  0.00  0.00    +0.000 OA
BRANCH  12  13
ATOM     13  C   UNL     1       6.427   4.803  18.695  0.00  0.00    +0.000 A 
ATOM     14  C   UNL     1       6.084   5.179  17.391  0.00  0.00    +0.000 A 
ATOM     15  C   UNL     1       6.680   6.292  16.795  0.00  0.00    +0.000 A 
ATOM     16  C   UNL     1       7.605   7.036  17.516  0.00  0.00    +0.000 A 
ATOM     17  F   UNL     1       8.172   8.112  16.954  0.00  0.00    +0.000 F 
ATOM     18  C   UNL     1       7.946   6.684  18.817  0.00  0.00    +0.000 A 
ATOM     19  C   UNL     1       7.357   5.563  19.410  0.00  0.00    +0.000 A 
ENDBRANCH  12  13
ENDBRANCH  11  12
ENDBRANCH   9  11
ENDBRANCH   3   5
BRANCH   2  20
ATOM     20  C   UNL     1       1.790   9.674  19.582  0.00  0.00    +0.000 C 
ATOM     21  C   UNL     1       0.853   9.811  20.793  0.00  0.00    +0.000 C 
ATOM     22  C   UNL     1      -0.631   9.695  20.431  0.00  0.00    +0.000 C 
ATOM     23  N   UNL     1      -0.916  10.620  19.338  0.00  0.00    +0.000 N 
ATOM     24  C   UNL     1      -0.173  10.347  18.104  0.00  0.00    +0.000 C 
ATOM     25  C   UNL     1       1.315  10.545  18.403  0.00  0.00    +0.000 C 
BRANCH  23  26
ATOM     26  C   UNL     1      -2.127  11.294  19.263  0.00  0.00    +0.000 A 
ATOM     27  C   UNL     1      -2.502  12.194  20.269  0.00  0.00    +0.000 A 
ATOM     28  C   UNL     1      -3.756  12.789  20.233  0.00  0.00    +0.000 A 
ATOM     29  N   UNL     1      -4.665  12.567  19.265  0.00  0.00    +0.000 NA
ATOM     30  C   UNL     1      -4.292  11.713  18.292  0.00  0.00    +0.000 A 
ATOM     31  C   UNL     1      -3.062  11.070  18.250  0.00  0.00    +0.000 A 
ENDBRANCH  23  26
ENDBRANCH   2  20
TORSDOF 6
ENDMDL
MODEL 9
REMARK VINA RESULT:      -8.0      6.856      9.091
REMARK  Name = 
REMARK  6 active torsions:
REMARK  status: ('A' for Active; 'I' for Inactive)
REMARK    1  A    between atoms: C_2  and  C_19
REMARK    2  A    between atoms: N_3  and  C_4
REMARK    3  A    between atoms: C_8  and  C_9
REMARK    4  A    between atoms: C_9  and  O_10
REMARK    5  A    between atoms: O_10  and  C_11
REMARK    6  A    between atoms: N_22  and  C_23
REMARK                            x       y       z     vdW  Elec       q    Type
REMARK                         _______ _______ _______ _____ _____    ______ ____
ROOT
ATOM      1  O   UNL     1       8.946   9.992  19.802  0.00  0.00    +0.000 OA
ATOM      2  C   UNL     1       9.090  10.055  18.584  0.00  0.00    +0.000 C 
ATOM      3  N   UNL     1       8.558   9.161  17.667  0.00  0.00    +0.000 N 
ATOM      4  H   UNL     1       8.582   9.427  16.689  0.00  0.00    +0.000 HD
ENDROOT
BRANCH   3   5
ATOM      5  C   UNL     1       7.883   7.958  17.971  0.00  0.00    +0.000 A 
ATOM      6  C   UNL     1       8.369   7.019  18.884  0.00  0.00    +0.000 A 
ATOM      7  C   UNL     1       7.664   5.844  19.144  0.00  0.00    +0.000 A 
ATOM      8  C   UNL     1       6.470   5.580  18.477  0.00  0.00    +0.000 A 
ATOM      9  C   UNL     1       5.974   6.489  17.536  0.00  0.00    +0.000 A 
ATOM     10  C   UNL     1       6.682   7.684  17.299  0.00  0.00    +0.000 A 
BRANCH   9  11
ATOM     11  C   UNL     1       4.686   6.193  16.806  0.00  0.00    +0.000 C 
BRANCH  11  12
ATOM     12  O   UNL     1       4.586   4.784  16.614  0.00  0.00    +0.000 OA
BRANCH  12  13
ATOM     13  C   UNL     1       3.544   4.161  17.248  0.00  0.00    +0.000 A 
ATOM     14  C   UNL     1       3.688   2.777  17.403  0.00  0.00    +0.000 A 
ATOM     15  C   UNL     1       2.706   2.032  18.059  0.00  0.00    +0.000 A 
ATOM     16  C   UNL     1       1.590   2.680  18.572  0.00  0.00    +0.000 A 
ATOM     17  F   UNL     1       0.650   1.973  19.213  0.00  0.00    +0.000 F 
ATOM     18  C   UNL     1       1.439   4.055  18.438  0.00  0.00    +0.000 A 
ATOM     19  C   UNL     1       2.418   4.800  17.772  0.00  0.00    +0.000 A 
ENDBRANCH  12  13
ENDBRANCH  11  12
ENDBRANCH   9  11
ENDBRANCH   3   5
BRANCH   2  20
ATOM     20  C   UNL     1       9.860  11.211  17.942  0.00  0.00    +0.000 C 
ATOM     21  C   UNL     1      11.124  11.582  18.735  0.00  0.00    +0.000 C 
ATOM     22  C   UNL     1      10.833  12.409  19.991  0.00  0.00    +0.000 C 
ATOM     23  N   UNL     1       9.999  13.547  19.616  0.00  0.00    +0.000 N 
ATOM     24  C   UNL     1       8.693  13.182  19.057  0.00  0.00    +0.000 C 
ATOM     25  C   UNL     1       8.941  12.433  17.745  0.00  0.00    +0.000 C 
BRANCH  23  26
ATOM     26  C   UNL     1      10.151  14.784  20.227  0.00  0.00    +0.000 A 
ATOM     27  C   UNL     1      10.400  14.871  21.602  0.00  0.00    +0.000 A 
ATOM     28  C   UNL     1      10.454  16.113  22.219  0.00  0.00    +0.000 A 
ATOM     29  N   UNL     1      10.292  17.282  21.569  0.00  0.00    +0.000 NA
ATOM     30  C   UNL     1      10.070  17.192  20.243  0.00  0.00    +0.000 A 
ATOM     31  C   UNL     1       9.995  15.993  19.546  0.00  0.00    +0.000 A 
ENDBRANCH  23  26
ENDBRANCH   2  20
TORSDOF 6
ENDMDL
