MODEL 1
REMARK VINA RESULT:      -8.2      0.000      0.000
REMARK  Name = 
REMARK  14 active torsions:
REMARK  status: ('A' for Active; 'I' for Inactive)
REMARK    1  A    between atoms: C_1  and  C_2
REMARK    2  A    between atoms: C_5  and  N_6
REMARK    3  A    between atoms: N_7  and  C_8
REMARK    4  A    between atoms: C_11  and  O_12
REMARK    5  A    between atoms: O_12  and  C_13
REMARK    6  A    between atoms: C_13  and  C_14
REMARK    7  A    between atoms: C_14  and  C_15
REMARK    8  A    between atoms: C_18  and  O_19
REMARK    9  A    between atoms: O_19  and  C_20
REMARK   10  A    between atoms: C_20  and  C_21
REMARK   11  A    between atoms: C_20  and  C_22
REMARK   12  A    between atoms: C_20  and  C_23
REMARK   13  A    between atoms: C_23  and  O_25
REMARK   14  A    between atoms: C_28  and  C_29
REMARK                            x       y       z     vdW  Elec       q    Type
REMARK                         _______ _______ _______ _____ _____    ______ ____
ROOT
ATOM      1  O   UNL     1       1.843   7.245  20.884  0.00  0.00    +0.000 OA
ENDROOT
BRANCH   1   5
ATOM      2  C   UNL     1       0.876  10.943  19.145  0.00  0.00    +0.000 A 
ATOM      3  C   UNL     1       0.484  10.583  20.434  0.00  0.00    +0.000 A 
ATOM      4  C   UNL     1       0.784   9.311  20.940  0.00  0.00    +0.000 A 
ATOM      5  C   UNL     1       1.527   8.387  20.190  0.00  0.00    +0.000 A 
ATOM      6  C   UNL     1       1.854   8.691  18.862  0.00  0.00    +0.000 A 
ATOM      7  C   UNL     1       2.533   7.771  17.886  0.00  0.00    +0.000 C 
ATOM      8  C   UNL     1       1.548   9.981  18.378  0.00  0.00    +0.000 A 
BRANCH   2  10
ATOM      9  N   UNL     1      -0.299  12.885  18.539  0.00  0.00    +0.000 NA
ATOM     10  N   UNL     1       0.761  12.226  18.579  0.00  0.00    +0.000 NA
BRANCH   9  15
ATOM     11  C   UNL     1      -5.657  10.893  18.224  0.00  0.00    +0.000 C 
ATOM     12  C   UNL     1      -4.232  11.352  18.322  0.00  0.00    +0.000 A 
ATOM     13  C   UNL     1      -3.781  12.057  19.438  0.00  0.00    +0.000 A 
ATOM     14  C   UNL     1      -2.466  12.520  19.491  0.00  0.00    +0.000 A 
ATOM     15  C   UNL     1      -1.575  12.296  18.431  0.00  0.00    +0.000 A 
ATOM     16  C   UNL     1      -2.043  11.619  17.302  0.00  0.00    +0.000 A 
ATOM     17  C   UNL     1      -3.351  11.131  17.257  0.00  0.00    +0.000 A 
ENDBRANCH   9  15
ENDBRANCH   2  10
ENDBRANCH   1   5
BRANCH   1  18
ATOM     18  C   UNL     1       1.044   6.096  20.582  0.00  0.00    +0.000 C 
BRANCH  18  19
ATOM     19  C   UNL     1       1.835   4.802  20.781  0.00  0.00    +0.000 C 
BRANCH  19  20
ATOM     20  C   UNL     1       2.746   4.562  19.597  0.00  0.00    +0.000 A 
ATOM     21  C   UNL     1       2.253   4.122  18.362  0.00  0.00    +0.000 A 
ATOM     22  C   UNL     1       3.132   3.846  17.301  0.00  0.00    +0.000 A 
ATOM     23  C   UNL     1       4.512   4.022  17.444  0.00  0.00    +0.000 A 
ATOM     24  C   UNL     1       4.994   4.441  18.680  0.00  0.00    +0.000 A 
ATOM     25  C   UNL     1       4.127   4.701  19.746  0.00  0.00    +0.000 A 
BRANCH  23  26
ATOM     26  O   UNL     1       5.273   3.701  16.351  0.00  0.00    +0.000 OA
BRANCH  26  27
ATOM     27  C   UNL     1       5.939   4.721  15.562  0.00  0.00    +0.000 C 
ATOM     28  C   UNL     1       6.361   4.217  14.183  0.00  0.00    +0.000 C 
ATOM     29  C   UNL     1       5.182   6.062  15.561  0.00  0.00    +0.000 C 
BRANCH  27  30
ATOM     30  C   UNL     1       7.262   5.047  16.306  0.00  0.00    +0.000 C 
ATOM     31  O   UNL     1       8.013   4.203  16.777  0.00  0.00    +0.000 OA
BRANCH  30  32
ATOM     32  O   UNL     1       7.524   6.373  16.390  0.00  0.00    +0.000 OA
ATOM     33  H   UNL     1       8.121   6.540  17.151  0.00  0.00    +0.000 HD
ENDBRANCH  30  32
ENDBRANCH  27  30
ENDBRANCH  26  27
ENDBRANCH  23  26
ENDBRANCH  19  20
ENDBRANCH  18  19
ENDBRANCH   1  18
TORSDOF 10
ENDMDL
MODEL 2
REMARK VINA RESULT:      -8.1      6.172      8.992
REMARK  Name = 
REMARK  14 active torsions:
REMARK  status: ('A' for Active; 'I' for Inactive)
REMARK    1  A    between atoms: C_1  and  C_2
REMARK    2  A    between atoms: C_5  and  N_6
REMARK    3  A    between atoms: N_7  and  C_8
REMARK    4  A    between atoms: C_11  and  O_12
REMARK    5  A    between atoms: O_12  and  C_13
REMARK    6  A    between atoms: C_13  and  C_14
REMARK    7  A    between atoms: C_14  and  C_15
REMARK    8  A    between atoms: C_18  and  O_19
REMARK    9  A    between atoms: O_19  and  C_20
REMARK   10  A    between atoms: C_20  and  C_21
REMARK   11  A    between atoms: C_20  and  C_22
REMARK   12  A    between atoms: C_20  and  C_23
REMARK   13  A    between atoms: C_23  and  O_25
REMARK   14  A    between atoms: C_28  and  C_29
REMARK                            x       y       z     vdW  Elec       q    Type
REMARK                         _______ _______ _______ _____ _____    ______ ____
ROOT
ATOM      1  O   UNL     1       7.806   6.702  16.845  0.00  0.00    +0.000 OA
ENDROOT
BRANCH   1   5
ATOM      2  C   UNL     1       4.893   3.796  17.681  0.00  0.00    +0.000 A 
ATOM      3  C   UNL     1       5.594   4.478  18.675  0.00  0.00    +0.000 A 
ATOM      4  C   UNL     1       6.598   5.395  18.335  0.00  0.00    +0.000 A 
ATOM      5  C   UNL     1       6.892   5.689  16.997  0.00  0.00    +0.000 A 
ATOM      6  C   UNL     1       6.265   4.952  15.982  0.00  0.00    +0.000 A 
ATOM      7  C   UNL     1       6.553   5.053  14.510  0.00  0.00    +0.000 C 
ATOM      8  C   UNL     1       5.252   4.041  16.349  0.00  0.00    +0.000 A 
BRANCH   2  10
ATOM      9  N   UNL     1       2.608   3.378  18.034  0.00  0.00    +0.000 NA
ATOM     10  N   UNL     1       3.777   2.964  17.886  0.00  0.00    +0.000 NA
BRANCH   9  15
ATOM     11  C   UNL     1       1.602   8.262  20.845  0.00  0.00    +0.000 C 
ATOM     12  C   UNL     1       1.803   6.986  20.082  0.00  0.00    +0.000 A 
ATOM     13  C   UNL     1       1.716   5.748  20.718  0.00  0.00    +0.000 A 
ATOM     14  C   UNL     1       1.955   4.574  20.003  0.00  0.00    +0.000 A 
ATOM     15  C   UNL     1       2.292   4.609  18.642  0.00  0.00    +0.000 A 
ATOM     16  C   UNL     1       2.412   5.854  18.020  0.00  0.00    +0.000 A 
ATOM     17  C   UNL     1       2.147   7.030  18.726  0.00  0.00    +0.000 A 
ENDBRANCH   9  15
ENDBRANCH   2  10
ENDBRANCH   1   5
BRANCH   1  18
ATOM     18  C   UNL     1       7.465   7.944  17.468  0.00  0.00    +0.000 C 
BRANCH  18  19
ATOM     19  C   UNL     1       8.466   8.310  18.564  0.00  0.00    +0.000 C 
BRANCH  19  20
ATOM     20  C   UNL     1       8.805   9.783  18.489  0.00  0.00    +0.000 A 
ATOM     21  C   UNL     1       9.760  10.365  19.332  0.00  0.00    +0.000 A 
ATOM     22  C   UNL     1      10.006  11.748  19.282  0.00  0.00    +0.000 A 
ATOM     23  C   UNL     1       9.321  12.570  18.381  0.00  0.00    +0.000 A 
ATOM     24  C   UNL     1       8.361  11.986  17.561  0.00  0.00    +0.000 A 
ATOM     25  C   UNL     1       8.099  10.613  17.617  0.00  0.00    +0.000 A 
BRANCH  23  26
ATOM     26  O   UNL     1       9.627  13.905  18.438  0.00  0.00    +0.000 OA
BRANCH  26  27
ATOM     27  C   UNL     1      10.847  14.430  17.854  0.00  0.00    +0.000 C 
ATOM     28  C   UNL     1      11.932  14.695  18.897  0.00  0.00    +0.000 C 
ATOM     29  C   UNL     1      11.311  13.629  16.622  0.00  0.00    +0.000 C 
BRANCH  27  30
ATOM     30  C   UNL     1      10.484  15.822  17.271  0.00  0.00    +0.000 C 
ATOM     31  O   UNL     1       9.468  16.443  17.554  0.00  0.00    +0.000 OA
BRANCH  30  32
ATOM     32  O   UNL     1      11.407  16.306  16.407  0.00  0.00    +0.000 OA
ATOM     33  H   UNL     1      12.128  16.743  16.911  0.00  0.00    +0.000 HD
ENDBRANCH  30  32
ENDBRANCH  27  30
ENDBRANCH  26  27
ENDBRANCH  23  26
ENDBRANCH  19  20
ENDBRANCH  18  19
ENDBRANCH   1  18
TORSDOF 10
ENDMDL
MODEL 3
REMARK VINA RESULT:      -7.8      0.829      1.434
REMARK  Name = 
REMARK  14 active torsions:
REMARK  status: ('A' for Active; 'I' for Inactive)
REMARK    1  A    between atoms: C_1  and  C_2
REMARK    2  A    between atoms: C_5  and  N_6
REMARK    3  A    between atoms: N_7  and  C_8
REMARK    4  A    between atoms: C_11  and  O_12
REMARK    5  A    between atoms: O_12  and  C_13
REMARK    6  A    between atoms: C_13  and  C_14
REMARK    7  A    between atoms: C_14  and  C_15
REMARK    8  A    between atoms: C_18  and  O_19
REMARK    9  A    between atoms: O_19  and  C_20
REMARK   10  A    between atoms: C_20  and  C_21
REMARK   11  A    between atoms: C_20  and  C_22
REMARK   12  A    between atoms: C_20  and  C_23
REMARK   13  A    between atoms: C_23  and  O_25
REMARK   14  A    between atoms: C_28  and  C_29
REMARK                            x       y       z     vdW  Elec       q    Type
REMARK                         _______ _______ _______ _____ _____    ______ ____
ROOT
ATOM      1  O   UNL     1       2.061   6.733  20.109  0.00  0.00    +0.000 OA
ENDROOT
BRANCH   1   5
ATOM      2  C   UNL     1       1.090  10.756  19.400  0.00  0.00    +0.000 A 
ATOM      3  C   UNL     1       0.749  10.088  20.575  0.00  0.00    +0.000 A 
ATOM      4  C   UNL     1       1.047   8.727  20.731  0.00  0.00    +0.000 A 
ATOM      5  C   UNL     1       1.736   8.015  19.739  0.00  0.00    +0.000 A 
ATOM      6  C   UNL     1       2.009   8.641  18.515  0.00  0.00    +0.000 A 
ATOM      7  C   UNL     1       2.625   7.990  17.308  0.00  0.00    +0.000 C 
ATOM      8  C   UNL     1       1.707  10.013  18.385  0.00  0.00    +0.000 A 
BRANCH   2  10
ATOM      9  N   UNL     1      -0.100  12.777  19.241  0.00  0.00    +0.000 NA
ATOM     10  N   UNL     1       0.974  12.141  19.179  0.00  0.00    +0.000 NA
BRANCH   9  15
ATOM     11  C   UNL     1      -5.361  10.930  17.947  0.00  0.00    +0.000 C 
ATOM     12  C   UNL     1      -3.966  11.350  18.305  0.00  0.00    +0.000 A 
ATOM     13  C   UNL     1      -3.706  12.037  19.490  0.00  0.00    +0.000 A 
ATOM     14  C   UNL     1      -2.411  12.464  19.784  0.00  0.00    +0.000 A 
ATOM     15  C   UNL     1      -1.349  12.223  18.900  0.00  0.00    +0.000 A 
ATOM     16  C   UNL     1      -1.623  11.565  17.698  0.00  0.00    +0.000 A 
ATOM     17  C   UNL     1      -2.914  11.112  17.413  0.00  0.00    +0.000 A 
ENDBRANCH   9  15
ENDBRANCH   2  10
ENDBRANCH   1   5
BRANCH   1  18
ATOM     18  C   UNL     1       1.025   5.997  20.767  0.00  0.00    +0.000 C 
BRANCH  18  19
ATOM     19  C   UNL     1       1.174   4.494  20.529  0.00  0.00    +0.000 C 
BRANCH  19  20
ATOM     20  C   UNL     1       2.231   4.235  19.479  0.00  0.00    +0.000 A 
ATOM     21  C   UNL     1       3.565   3.979  19.820  0.00  0.00    +0.000 A 
ATOM     22  C   UNL     1       4.537   3.806  18.820  0.00  0.00    +0.000 A 
ATOM     23  C   UNL     1       4.196   3.865  17.465  0.00  0.00    +0.000 A 
ATOM     24  C   UNL     1       2.872   4.139  17.135  0.00  0.00    +0.000 A 
ATOM     25  C   UNL     1       1.902   4.329  18.125  0.00  0.00    +0.000 A 
BRANCH  23  26
ATOM     26  O   UNL     1       5.229   3.704  16.580  0.00  0.00    +0.000 OA
BRANCH  26  27
ATOM     27  C   UNL     1       6.219   4.745  16.370  0.00  0.00    +0.000 C 
ATOM     28  C   UNL     1       5.611   6.147  16.390  0.00  0.00    +0.000 C 
ATOM     29  C   UNL     1       7.468   4.566  17.253  0.00  0.00    +0.000 C 
BRANCH  27  30
ATOM     30  C   UNL     1       6.755   4.547  14.928  0.00  0.00    +0.000 C 
ATOM     31  O   UNL     1       6.324   3.715  14.141  0.00  0.00    +0.000 OA
BRANCH  30  32
ATOM     32  O   UNL     1       7.761   5.393  14.603  0.00  0.00    +0.000 OA
ATOM     33  H   UNL     1       7.730   5.583  13.640  0.00  0.00    +0.000 HD
ENDBRANCH  30  32
ENDBRANCH  27  30
ENDBRANCH  26  27
ENDBRANCH  23  26
ENDBRANCH  19  20
ENDBRANCH  18  19
ENDBRANCH   1  18
TORSDOF 10
ENDMDL
MODEL 4
REMARK VINA RESULT:      -7.6      3.814      9.431
REMARK  Name = 
REMARK  14 active torsions:
REMARK  status: ('A' for Active; 'I' for Inactive)
REMARK    1  A    between atoms: C_1  and  C_2
REMARK    2  A    between atoms: C_5  and  N_6
REMARK    3  A    between atoms: N_7  and  C_8
REMARK    4  A    between atoms: C_11  and  O_12
REMARK    5  A    between atoms: O_12  and  C_13
REMARK    6  A    between atoms: C_13  and  C_14
REMARK    7  A    between atoms: C_14  and  C_15
REMARK    8  A    between atoms: C_18  and  O_19
REMARK    9  A    between atoms: O_19  and  C_20
REMARK   10  A    between atoms: C_20  and  C_21
REMARK   11  A    between atoms: C_20  and  C_22
REMARK   12  A    between atoms: C_20  and  C_23
REMARK   13  A    between atoms: C_23  and  O_25
REMARK   14  A    between atoms: C_28  and  C_29
REMARK                            x       y       z     vdW  Elec       q    Type
REMARK                         _______ _______ _______ _____ _____    ______ ____
ROOT
ATOM      1  O   UNL     1       1.440   6.678  21.022  0.00  0.00    +0.000 OA
ENDROOT
BRANCH   1   5
ATOM      2  C   UNL     1       3.426   4.462  18.060  0.00  0.00    +0.000 A 
ATOM      3  C   UNL     1       2.937   5.750  17.846  0.00  0.00    +0.000 A 
ATOM      4  C   UNL     1       2.229   6.419  18.854  0.00  0.00    +0.000 A 
ATOM      5  C   UNL     1       2.036   5.838  20.115  0.00  0.00    +0.000 A 
ATOM      6  C   UNL     1       2.439   4.512  20.325  0.00  0.00    +0.000 A 
ATOM      7  C   UNL     1       2.199   3.701  21.568  0.00  0.00    +0.000 C 
ATOM      8  C   UNL     1       3.157   3.863  19.298  0.00  0.00    +0.000 A 
BRANCH   2  10
ATOM      9  N   UNL     1       5.508   3.871  17.144  0.00  0.00    +0.000 NA
ATOM     10  N   UNL     1       4.266   3.746  17.188  0.00  0.00    +0.000 NA
BRANCH   9  15
ATOM     11  C   UNL     1       8.598   8.543  18.325  0.00  0.00    +0.000 C 
ATOM     12  C   UNL     1       7.734   7.350  18.041  0.00  0.00    +0.000 A 
ATOM     13  C   UNL     1       7.781   6.220  18.857  0.00  0.00    +0.000 A 
ATOM     14  C   UNL     1       7.007   5.101  18.550  0.00  0.00    +0.000 A 
ATOM     15  C   UNL     1       6.175   5.081  17.421  0.00  0.00    +0.000 A 
ATOM     16  C   UNL     1       6.159   6.204  16.589  0.00  0.00    +0.000 A 
ATOM     17  C   UNL     1       6.913   7.336  16.908  0.00  0.00    +0.000 A 
ENDBRANCH   9  15
ENDBRANCH   2  10
ENDBRANCH   1   5
BRANCH   1  18
ATOM     18  C   UNL     1       2.017   7.984  21.130  0.00  0.00    +0.000 C 
BRANCH  18  19
ATOM     19  C   UNL     1       1.038   8.974  21.761  0.00  0.00    +0.000 C 
BRANCH  19  20
ATOM     20  C   UNL     1       0.273   9.709  20.683  0.00  0.00    +0.000 A 
ATOM     21  C   UNL     1      -0.827  10.523  20.982  0.00  0.00    +0.000 A 
ATOM     22  C   UNL     1      -1.556  11.142  19.952  0.00  0.00    +0.000 A 
ATOM     23  C   UNL     1      -1.193  10.977  18.611  0.00  0.00    +0.000 A 
ATOM     24  C   UNL     1      -0.111  10.152  18.323  0.00  0.00    +0.000 A 
ATOM     25  C   UNL     1       0.610   9.519  19.342  0.00  0.00    +0.000 A 
BRANCH  23  26
ATOM     26  O   UNL     1      -1.990  11.609  17.693  0.00  0.00    +0.000 OA
BRANCH  26  27
ATOM     27  C   UNL     1      -3.089  10.922  17.041  0.00  0.00    +0.000 C 
ATOM     28  C   UNL     1      -3.090  11.120  15.526  0.00  0.00    +0.000 C 
ATOM     29  C   UNL     1      -3.239   9.461  17.506  0.00  0.00    +0.000 C 
BRANCH  27  30
ATOM     30  C   UNL     1      -4.387  11.604  17.548  0.00  0.00    +0.000 C 
ATOM     31  O   UNL     1      -4.941  11.332  18.605  0.00  0.00    +0.000 OA
BRANCH  30  32
ATOM     32  O   UNL     1      -4.866  12.552  16.708  0.00  0.00    +0.000 OA
ATOM     33  H   UNL     1      -4.191  12.752  16.022  0.00  0.00    +0.000 HD
ENDBRANCH  30  32
ENDBRANCH  27  30
ENDBRANCH  26  27
ENDBRANCH  23  26
ENDBRANCH  19  20
ENDBRANCH  18  19
ENDBRANCH   1  18
TORSDOF 10
ENDMDL
MODEL 5
REMARK VINA RESULT:      -7.4      1.924      3.362
REMARK  Name = 
REMARK  14 active torsions:
REMARK  status: ('A' for Active; 'I' for Inactive)
REMARK    1  A    between atoms: C_1  and  C_2
REMARK    2  A    between atoms: C_5  and  N_6
REMARK    3  A    between atoms: N_7  and  C_8
REMARK    4  A    between atoms: C_11  and  O_12
REMARK    5  A    between atoms: O_12  and  C_13
REMARK    6  A    between atoms: C_13  and  C_14
REMARK    7  A    between atoms: C_14  and  C_15
REMARK    8  A    between atoms: C_18  and  O_19
REMARK    9  A    between atoms: O_19  and  C_20
REMARK   10  A    between atoms: C_20  and  C_21
REMARK   11  A    between atoms: C_20  and  C_22
REMARK   12  A    between atoms: C_20  and  C_23
REMARK   13  A    between atoms: C_23  and  O_25
REMARK   14  A    between atoms: C_28  and  C_29
REMARK                            x       y       z     vdW  Elec       q    Type
REMARK                         _______ _______ _______ _____ _____    ______ ____
ROOT
ATOM      1  O   UNL     1       2.262   7.272  20.065  0.00  0.00    +0.000 OA
ENDROOT
BRANCH   1   5
ATOM      2  C   UNL     1       0.088  10.641  18.819  0.00  0.00    +0.000 A 
ATOM      3  C   UNL     1       0.754   9.796  17.933  0.00  0.00    +0.000 A 
ATOM      4  C   UNL     1       1.514   8.720  18.411  0.00  0.00    +0.000 A 
ATOM      5  C   UNL     1       1.586   8.433  19.781  0.00  0.00    +0.000 A 
ATOM      6  C   UNL     1       1.000   9.318  20.696  0.00  0.00    +0.000 A 
ATOM      7  C   UNL     1       1.088   9.228  22.194  0.00  0.00    +0.000 C 
ATOM      8  C   UNL     1       0.234  10.389  20.190  0.00  0.00    +0.000 A 
BRANCH   2  10
ATOM      9  N   UNL     1      -0.477  12.823  18.155  0.00  0.00    +0.000 NA
ATOM     10  N   UNL     1      -0.814  11.660  18.462  0.00  0.00    +0.000 NA
BRANCH   9  15
ATOM     11  C   UNL     1       3.980  15.294  20.763  0.00  0.00    +0.000 C 
ATOM     12  C   UNL     1       2.812  14.697  20.034  0.00  0.00    +0.000 A 
ATOM     13  C   UNL     1       1.516  14.820  20.533  0.00  0.00    +0.000 A 
ATOM     14  C   UNL     1       0.448  14.216  19.869  0.00  0.00    +0.000 A 
ATOM     15  C   UNL     1       0.650  13.472  18.697  0.00  0.00    +0.000 A 
ATOM     16  C   UNL     1       1.955  13.324  18.222  0.00  0.00    +0.000 A 
ATOM     17  C   UNL     1       3.024  13.950  18.870  0.00  0.00    +0.000 A 
ENDBRANCH   9  15
ENDBRANCH   2  10
ENDBRANCH   1   5
BRANCH   1  18
ATOM     18  C   UNL     1       1.608   6.379  20.972  0.00  0.00    +0.000 C 
BRANCH  18  19
ATOM     19  C   UNL     1       1.323   5.028  20.316  0.00  0.00    +0.000 C 
BRANCH  19  20
ATOM     20  C   UNL     1       2.379   4.721  19.277  0.00  0.00    +0.000 A 
ATOM     21  C   UNL     1       2.044   4.384  17.960  0.00  0.00    +0.000 A 
ATOM     22  C   UNL     1       3.045   4.041  17.034  0.00  0.00    +0.000 A 
ATOM     23  C   UNL     1       4.396   4.048  17.399  0.00  0.00    +0.000 A 
ATOM     24  C   UNL     1       4.718   4.366  18.715  0.00  0.00    +0.000 A 
ATOM     25  C   UNL     1       3.725   4.691  19.645  0.00  0.00    +0.000 A 
BRANCH  23  26
ATOM     26  O   UNL     1       5.281   3.675  16.421  0.00  0.00    +0.000 OA
BRANCH  26  27
ATOM     27  C   UNL     1       5.978   4.658  15.613  0.00  0.00    +0.000 C 
ATOM     28  C   UNL     1       6.450   4.091  14.275  0.00  0.00    +0.000 C 
ATOM     29  C   UNL     1       5.223   5.998  15.522  0.00  0.00    +0.000 C 
BRANCH  27  30
ATOM     30  C   UNL     1       7.272   5.017  16.390  0.00  0.00    +0.000 C 
ATOM     31  O   UNL     1       7.970   4.203  16.979  0.00  0.00    +0.000 OA
BRANCH  30  32
ATOM     32  O   UNL     1       7.575   6.337  16.357  0.00  0.00    +0.000 OA
ATOM     33  H   UNL     1       7.309   6.754  17.205  0.00  0.00    +0.000 HD
ENDBRANCH  30  32
ENDBRANCH  27  30
ENDBRANCH  26  27
ENDBRANCH  23  26
ENDBRANCH  19  20
ENDBRANCH  18  19
ENDBRANCH   1  18
TORSDOF 10
ENDMDL
MODEL 6
REMARK VINA RESULT:      -7.4      1.832      2.272
REMARK  Name = 
REMARK  14 active torsions:
REMARK  status: ('A' for Active; 'I' for Inactive)
REMARK    1  A    between atoms: C_1  and  C_2
REMARK    2  A    between atoms: C_5  and  N_6
REMARK    3  A    between atoms: N_7  and  C_8
REMARK    4  A    between atoms: C_11  and  O_12
REMARK    5  A    between atoms: O_12  and  C_13
REMARK    6  A    between atoms: C_13  and  C_14
REMARK    7  A    between atoms: C_14  and  C_15
REMARK    8  A    between atoms: C_18  and  O_19
REMARK    9  A    between atoms: O_19  and  C_20
REMARK   10  A    between atoms: C_20  and  C_21
REMARK   11  A    between atoms: C_20  and  C_22
REMARK   12  A    between atoms: C_20  and  C_23
REMARK   13  A    between atoms: C_23  and  O_25
REMARK   14  A    between atoms: C_28  and  C_29
REMARK                            x       y       z     vdW  Elec       q    Type
REMARK                         _______ _______ _______ _____ _____    ______ ____
ROOT
ATOM      1  O   UNL     1       0.379   7.180  20.945  0.00  0.00    +0.000 OA
ENDROOT
BRANCH   1   5
ATOM      2  C   UNL     1       0.186  11.298  21.743  0.00  0.00    +0.000 A 
ATOM      3  C   UNL     1      -0.348  10.333  22.596  0.00  0.00    +0.000 A 
ATOM      4  C   UNL     1      -0.307   8.976  22.248  0.00  0.00    +0.000 A 
ATOM      5  C   UNL     1       0.313   8.546  21.066  0.00  0.00    +0.000 A 
ATOM      6  C   UNL     1       0.776   9.503  20.152  0.00  0.00    +0.000 A 
ATOM      7  C   UNL     1       1.350   9.220  18.791  0.00  0.00    +0.000 C 
ATOM      8  C   UNL     1       0.731  10.862  20.528  0.00  0.00    +0.000 A 
BRANCH   2  10
ATOM      9  N   UNL     1      -0.588  13.398  22.458  0.00  0.00    +0.000 NA
ATOM     10  N   UNL     1       0.332  12.666  22.039  0.00  0.00    +0.000 NA
BRANCH   9  15
ATOM     11  C   UNL     1      -6.192  12.950  21.380  0.00  0.00    +0.000 C 
ATOM     12  C   UNL     1      -4.715  13.004  21.639  0.00  0.00    +0.000 A 
ATOM     13  C   UNL     1      -4.206  12.845  22.927  0.00  0.00    +0.000 A 
ATOM     14  C   UNL     1      -2.834  12.949  23.157  0.00  0.00    +0.000 A 
ATOM     15  C   UNL     1      -1.941  13.219  22.109  0.00  0.00    +0.000 A 
ATOM     16  C   UNL     1      -2.462  13.411  20.827  0.00  0.00    +0.000 A 
ATOM     17  C   UNL     1      -3.832  13.282  20.589  0.00  0.00    +0.000 A 
ENDBRANCH   9  15
ENDBRANCH   2  10
ENDBRANCH   1   5
BRANCH   1  18
ATOM     18  C   UNL     1       1.686   6.610  21.068  0.00  0.00    +0.000 C 
BRANCH  18  19
ATOM     19  C   UNL     1       1.672   5.114  20.751  0.00  0.00    +0.000 C 
BRANCH  19  20
ATOM     20  C   UNL     1       2.604   4.818  19.597  0.00  0.00    +0.000 A 
ATOM     21  C   UNL     1       2.146   4.240  18.406  0.00  0.00    +0.000 A 
ATOM     22  C   UNL     1       3.047   3.918  17.377  0.00  0.00    +0.000 A 
ATOM     23  C   UNL     1       4.415   4.182  17.507  0.00  0.00    +0.000 A 
ATOM     24  C   UNL     1       4.863   4.738  18.702  0.00  0.00    +0.000 A 
ATOM     25  C   UNL     1       3.974   5.047  19.737  0.00  0.00    +0.000 A 
BRANCH  23  26
ATOM     26  O   UNL     1       5.200   3.804  16.450  0.00  0.00    +0.000 OA
BRANCH  26  27
ATOM     27  C   UNL     1       5.894   4.782  15.632  0.00  0.00    +0.000 C 
ATOM     28  C   UNL     1       6.293   4.228  14.265  0.00  0.00    +0.000 C 
ATOM     29  C   UNL     1       5.177   6.145  15.597  0.00  0.00    +0.000 C 
BRANCH  27  30
ATOM     30  C   UNL     1       7.229   5.087  16.361  0.00  0.00    +0.000 C 
ATOM     31  O   UNL     1       7.915   4.245  16.923  0.00  0.00    +0.000 OA
BRANCH  30  32
ATOM     32  O   UNL     1       7.583   6.394  16.319  0.00  0.00    +0.000 OA
ATOM     33  H   UNL     1       8.520   6.488  16.597  0.00  0.00    +0.000 HD
ENDBRANCH  30  32
ENDBRANCH  27  30
ENDBRANCH  26  27
ENDBRANCH  23  26
ENDBRANCH  19  20
ENDBRANCH  18  19
ENDBRANCH   1  18
TORSDOF 10
ENDMDL
MODEL 7
REMARK VINA RESULT:      -7.4      4.296     10.618
REMARK  Name = 
REMARK  14 active torsions:
REMARK  status: ('A' for Active; 'I' for Inactive)
REMARK    1  A    between atoms: C_1  and  C_2
REMARK    2  A    between atoms: C_5  and  N_6
REMARK    3  A    between atoms: N_7  and  C_8
REMARK    4  A    between atoms: C_11  and  O_12
REMARK    5  A    between atoms: O_12  and  C_13
REMARK    6  A    between atoms: C_13  and  C_14
REMARK    7  A    between atoms: C_14  and  C_15
REMARK    8  A    between atoms: C_18  and  O_19
REMARK    9  A    between atoms: O_19  and  C_20
REMARK   10  A    between atoms: C_20  and  C_21
REMARK   11  A    between atoms: C_20  and  C_22
REMARK   12  A    between atoms: C_20  and  C_23
REMARK   13  A    between atoms: C_23  and  O_25
REMARK   14  A    between atoms: C_28  and  C_29
REMARK                            x       y       z     vdW  Elec       q    Type
REMARK                         _______ _______ _______ _____ _____    ______ ____
ROOT
ATOM      1  O   UNL     1       1.682   6.830  21.194  0.00  0.00    +0.000 OA
ENDROOT
BRANCH   1   5
ATOM      2  C   UNL     1       3.187   4.763  17.864  0.00  0.00    +0.000 A 
ATOM      3  C   UNL     1       3.035   6.149  17.893  0.00  0.00    +0.000 A 
ATOM      4  C   UNL     1       2.471   6.779  19.011  0.00  0.00    +0.000 A 
ATOM      5  C   UNL     1       2.092   6.046  20.145  0.00  0.00    +0.000 A 
ATOM      6  C   UNL     1       2.151   4.646  20.104  0.00  0.00    +0.000 A 
ATOM      7  C   UNL     1       1.671   3.709  21.177  0.00  0.00    +0.000 C 
ATOM      8  C   UNL     1       2.730   4.036  18.971  0.00  0.00    +0.000 A 
BRANCH   2  10
ATOM      9  N   UNL     1       5.103   3.906  16.807  0.00  0.00    +0.000 NA
ATOM     10  N   UNL     1       3.862   4.032  16.869  0.00  0.00    +0.000 NA
BRANCH   9  15
ATOM     11  C   UNL     1       8.448   8.245  18.466  0.00  0.00    +0.000 C 
ATOM     12  C   UNL     1       7.627   7.073  18.014  0.00  0.00    +0.000 A 
ATOM     13  C   UNL     1       6.960   7.094  16.790  0.00  0.00    +0.000 A 
ATOM     14  C   UNL     1       6.161   6.017  16.407  0.00  0.00    +0.000 A 
ATOM     15  C   UNL     1       6.005   4.898  17.239  0.00  0.00    +0.000 A 
ATOM     16  C   UNL     1       6.648   4.899  18.479  0.00  0.00    +0.000 A 
ATOM     17  C   UNL     1       7.471   5.964  18.854  0.00  0.00    +0.000 A 
ENDBRANCH   9  15
ENDBRANCH   2  10
ENDBRANCH   1   5
BRANCH   1  18
ATOM     18  C   UNL     1       1.221   8.139  20.846  0.00  0.00    +0.000 C 
BRANCH  18  19
ATOM     19  C   UNL     1       1.411   9.122  22.002  0.00  0.00    +0.000 C 
BRANCH  19  20
ATOM     20  C   UNL     1       0.273  10.118  22.032  0.00  0.00    +0.000 A 
ATOM     21  C   UNL     1       0.119  11.094  21.041  0.00  0.00    +0.000 A 
ATOM     22  C   UNL     1      -0.911  12.046  21.130  0.00  0.00    +0.000 A 
ATOM     23  C   UNL     1      -1.817  12.029  22.196  0.00  0.00    +0.000 A 
ATOM     24  C   UNL     1      -1.645  11.067  23.187  0.00  0.00    +0.000 A 
ATOM     25  C   UNL     1      -0.611  10.127  23.112  0.00  0.00    +0.000 A 
BRANCH  23  26
ATOM     26  O   UNL     1      -2.765  13.018  22.191  0.00  0.00    +0.000 OA
BRANCH  26  27
ATOM     27  C   UNL     1      -2.669  14.168  23.071  0.00  0.00    +0.000 C 
ATOM     28  C   UNL     1      -1.335  14.230  23.815  0.00  0.00    +0.000 C 
ATOM     29  C   UNL     1      -3.091  15.481  22.384  0.00  0.00    +0.000 C 
BRANCH  27  30
ATOM     30  C   UNL     1      -3.746  13.964  24.169  0.00  0.00    +0.000 C 
ATOM     31  O   UNL     1      -4.835  13.440  23.977  0.00  0.00    +0.000 OA
BRANCH  30  32
ATOM     32  O   UNL     1      -3.371  14.421  25.388  0.00  0.00    +0.000 OA
ATOM     33  H   UNL     1      -4.158  14.479  25.971  0.00  0.00    +0.000 HD
ENDBRANCH  30  32
ENDBRANCH  27  30
ENDBRANCH  26  27
ENDBRANCH  23  26
ENDBRANCH  19  20
ENDBRANCH  18  19
ENDBRANCH   1  18
TORSDOF 10
ENDMDL
MODEL 8
REMARK VINA RESULT:      -7.3      1.252      1.815
REMARK  Name = 
REMARK  14 active torsions:
REMARK  status: ('A' for Active; 'I' for Inactive)
REMARK    1  A    between atoms: C_1  and  C_2
REMARK    2  A    between atoms: C_5  and  N_6
REMARK    3  A    between atoms: N_7  and  C_8
REMARK    4  A    between atoms: C_11  and  O_12
REMARK    5  A    between atoms: O_12  and  C_13
REMARK    6  A    between atoms: C_13  and  C_14
REMARK    7  A    between atoms: C_14  and  C_15
REMARK    8  A    between atoms: C_18  and  O_19
REMARK    9  A    between atoms: O_19  and  C_20
REMARK   10  A    between atoms: C_20  and  C_21
REMARK   11  A    between atoms: C_20  and  C_22
REMARK   12  A    between atoms: C_20  and  C_23
REMARK   13  A    between atoms: C_23  and  O_25
REMARK   14  A    between atoms: C_28  and  C_29
REMARK                            x       y       z     vdW  Elec       q    Type
REMARK                         _______ _______ _______ _____ _____    ______ ____
ROOT
ATOM      1  O   UNL     1       2.125   6.643  20.335  0.00  0.00    +0.000 OA
ENDROOT
BRANCH   1   5
ATOM      2  C   UNL     1       0.068  10.303  20.278  0.00  0.00    +0.000 A 
ATOM      3  C   UNL     1      -0.153   9.322  21.244  0.00  0.00    +0.000 A 
ATOM      4  C   UNL     1       0.520   8.094  21.178  0.00  0.00    +0.000 A 
ATOM      5  C   UNL     1       1.466   7.837  20.176  0.00  0.00    +0.000 A 
ATOM      6  C   UNL     1       1.639   8.770  19.144  0.00  0.00    +0.000 A 
ATOM      7  C   UNL     1       2.515   8.598  17.934  0.00  0.00    +0.000 C 
ATOM      8  C   UNL     1       0.956  10.001  19.237  0.00  0.00    +0.000 A 
BRANCH   2  10
ATOM      9  N   UNL     1      -1.526  11.967  19.816  0.00  0.00    +0.000 NA
ATOM     10  N   UNL     1      -0.435  11.617  20.312  0.00  0.00    +0.000 NA
BRANCH   9  15
ATOM     11  C   UNL     1      -3.907   9.942  15.020  0.00  0.00    +0.000 C 
ATOM     12  C   UNL     1      -3.300  10.414  16.309  0.00  0.00    +0.000 A 
ATOM     13  C   UNL     1      -3.965  11.332  17.121  0.00  0.00    +0.000 A 
ATOM     14  C   UNL     1      -3.364  11.798  18.290  0.00  0.00    +0.000 A 
ATOM     15  C   UNL     1      -2.085  11.366  18.671  0.00  0.00    +0.000 A 
ATOM     16  C   UNL     1      -1.410  10.474  17.834  0.00  0.00    +0.000 A 
ATOM     17  C   UNL     1      -2.020   9.984  16.676  0.00  0.00    +0.000 A 
ENDBRANCH   9  15
ENDBRANCH   2  10
ENDBRANCH   1   5
BRANCH   1  18
ATOM     18  C   UNL     1       1.420   5.641  21.075  0.00  0.00    +0.000 C 
BRANCH  18  19
ATOM     19  C   UNL     1       1.221   4.373  20.243  0.00  0.00    +0.000 C 
BRANCH  19  20
ATOM     20  C   UNL     1       2.305   4.263  19.195  0.00  0.00    +0.000 A 
ATOM     21  C   UNL     1       2.016   4.305  17.825  0.00  0.00    +0.000 A 
ATOM     22  C   UNL     1       3.037   4.135  16.874  0.00  0.00    +0.000 A 
ATOM     23  C   UNL     1       4.365   3.941  17.270  0.00  0.00    +0.000 A 
ATOM     24  C   UNL     1       4.640   3.882  18.633  0.00  0.00    +0.000 A 
ATOM     25  C   UNL     1       3.625   4.033  19.584  0.00  0.00    +0.000 A 
BRANCH  23  26
ATOM     26  O   UNL     1       5.271   3.765  16.258  0.00  0.00    +0.000 OA
BRANCH  26  27
ATOM     27  C   UNL     1       6.290   4.757  15.970  0.00  0.00    +0.000 C 
ATOM     28  C   UNL     1       5.745   6.185  15.994  0.00  0.00    +0.000 C 
ATOM     29  C   UNL     1       7.580   4.540  16.784  0.00  0.00    +0.000 C 
BRANCH  27  30
ATOM     30  C   UNL     1       6.734   4.508  14.504  0.00  0.00    +0.000 C 
ATOM     31  O   UNL     1       7.352   5.317  13.824  0.00  0.00    +0.000 OA
BRANCH  30  32
ATOM     32  O   UNL     1       6.377   3.291  14.029  0.00  0.00    +0.000 OA
ATOM     33  H   UNL     1       5.569   2.983  14.494  0.00  0.00    +0.000 HD
ENDBRANCH  30  32
ENDBRANCH  27  30
ENDBRANCH  26  27
ENDBRANCH  23  26
ENDBRANCH  19  20
ENDBRANCH  18  19
ENDBRANCH   1  18
TORSDOF 10
ENDMDL
MODEL 9
REMARK VINA RESULT:      -7.3      5.636      8.733
REMARK  Name = 
REMARK  14 active torsions:
REMARK  status: ('A' for Active; 'I' for Inactive)
REMARK    1  A    between atoms: C_1  and  C_2
REMARK    2  A    between atoms: C_5  and  N_6
REMARK    3  A    between atoms: N_7  and  C_8
REMARK    4  A    between atoms: C_11  and  O_12
REMARK    5  A    between atoms: O_12  and  C_13
REMARK    6  A    between atoms: C_13  and  C_14
REMARK    7  A    between atoms: C_14  and  C_15
REMARK    8  A    between atoms: C_18  and  O_19
REMARK    9  A    between atoms: O_19  and  C_20
REMARK   10  A    between atoms: C_20  and  C_21
REMARK   11  A    between atoms: C_20  and  C_22
REMARK   12  A    between atoms: C_20  and  C_23
REMARK   13  A    between atoms: C_23  and  O_25
REMARK   14  A    between atoms: C_28  and  C_29
REMARK                            x       y       z     vdW  Elec       q    Type
REMARK                         _______ _______ _______ _____ _____    ______ ____
ROOT
ATOM      1  O   UNL     1       8.151   5.834  17.780  0.00  0.00    +0.000 OA
ENDROOT
BRANCH   1   5
ATOM      2  C   UNL     1       4.522   3.734  17.567  0.00  0.00    +0.000 A 
ATOM      3  C   UNL     1       5.152   4.041  18.771  0.00  0.00    +0.000 A 
ATOM      4  C   UNL     1       6.394   4.693  18.779  0.00  0.00    +0.000 A 
ATOM      5  C   UNL     1       7.010   5.096  17.586  0.00  0.00    +0.000 A 
ATOM      6  C   UNL     1       6.441   4.719  16.362  0.00  0.00    +0.000 A 
ATOM      7  C   UNL     1       7.032   4.960  15.001  0.00  0.00    +0.000 C 
ATOM      8  C   UNL     1       5.187   4.071  16.381  0.00  0.00    +0.000 A 
BRANCH   2  10
ATOM      9  N   UNL     1       2.177   3.867  17.632  0.00  0.00    +0.000 NA
ATOM     10  N   UNL     1       3.222   3.214  17.429  0.00  0.00    +0.000 NA
BRANCH   9  15
ATOM     11  C   UNL     1       1.541   8.303  21.193  0.00  0.00    +0.000 C 
ATOM     12  C   UNL     1       1.768   7.128  20.289  0.00  0.00    +0.000 A 
ATOM     13  C   UNL     1       2.160   7.308  18.963  0.00  0.00    +0.000 A 
ATOM     14  C   UNL     1       2.319   6.206  18.122  0.00  0.00    +0.000 A 
ATOM     15  C   UNL     1       2.083   4.903  18.582  0.00  0.00    +0.000 A 
ATOM     16  C   UNL     1       1.656   4.732  19.902  0.00  0.00    +0.000 A 
ATOM     17  C   UNL     1       1.522   5.831  20.754  0.00  0.00    +0.000 A 
ENDBRANCH   9  15
ENDBRANCH   2  10
ENDBRANCH   1   5
BRANCH   1  18
ATOM     18  C   UNL     1       7.984   7.053  18.511  0.00  0.00    +0.000 C 
BRANCH  18  19
ATOM     19  C   UNL     1       7.717   8.232  17.575  0.00  0.00    +0.000 C 
BRANCH  19  20
ATOM     20  C   UNL     1       8.387   9.480  18.104  0.00  0.00    +0.000 A 
ATOM     21  C   UNL     1       9.180   9.461  19.259  0.00  0.00    +0.000 A 
ATOM     22  C   UNL     1       9.737  10.649  19.762  0.00  0.00    +0.000 A 
ATOM     23  C   UNL     1       9.532  11.872  19.114  0.00  0.00    +0.000 A 
ATOM     24  C   UNL     1       8.728  11.884  17.978  0.00  0.00    +0.000 A 
ATOM     25  C   UNL     1       8.156  10.708  17.482  0.00  0.00    +0.000 A 
BRANCH  23  26
ATOM     26  O   UNL     1      10.104  12.966  19.707  0.00  0.00    +0.000 OA
BRANCH  26  27
ATOM     27  C   UNL     1       9.384  13.767  20.680  0.00  0.00    +0.000 C 
ATOM     28  C   UNL     1       8.443  12.933  21.547  0.00  0.00    +0.000 C 
ATOM     29  C   UNL     1      10.303  14.729  21.456  0.00  0.00    +0.000 C 
BRANCH  27  30
ATOM     30  C   UNL     1       8.465  14.715  19.864  0.00  0.00    +0.000 C 
ATOM     31  O   UNL     1       8.829  15.356  18.888  0.00  0.00    +0.000 OA
BRANCH  30  32
ATOM     32  O   UNL     1       7.195  14.771  20.330  0.00  0.00    +0.000 OA
ATOM     33  H   UNL     1       6.755  15.578  19.985  0.00  0.00    +0.000 HD
ENDBRANCH  30  32
ENDBRANCH  27  30
ENDBRANCH  26  27
ENDBRANCH  23  26
ENDBRANCH  19  20
ENDBRANCH  18  19
ENDBRANCH   1  18
TORSDOF 10
ENDMDL
