MODEL 1
REMARK VINA RESULT:      -7.6      0.000      0.000
REMARK  Name = 
REMARK  9 active torsions:
REMARK  status: ('A' for Active; 'I' for Inactive)
REMARK    1  A    between atoms: C_1  and  N_2
REMARK    2  A    between atoms: C_5  and  C_6
REMARK    3  A    between atoms: N_19  and  C_20
REMARK    4  A    between atoms: C_23  and  N_24
REMARK    5  A    between atoms: N_24  and  C_25
REMARK    6  A    between atoms: C_25  and  C_26
REMARK    7  A    between atoms: C_26  and  O_27
REMARK    8  A    between atoms: C_26  and  C_28
REMARK    9  A    between atoms: C_28  and  O_29
REMARK                            x       y       z     vdW  Elec       q    Type
REMARK                         _______ _______ _______ _____ _____    ______ ____
ROOT
ATOM      1  C   UNL     1      -0.348   9.926  17.715  0.00  0.00    +0.000 C 
ATOM      2  N   UNL     1      -0.371  10.688  18.952  0.00  0.00    +0.000 N 
ATOM      3  C   UNL     1      -0.954  11.943  18.987  0.00  0.00    +0.000 A 
ATOM      4  O   UNL     1      -1.449  12.496  18.005  0.00  0.00    +0.000 OA
ATOM      5  C   UNL     1      -0.969  12.647  20.317  0.00  0.00    +0.000 A 
ATOM      6  C   UNL     1      -0.429  12.078  21.407  0.00  0.00    +0.000 A 
ATOM      7  C   UNL     1       0.172  10.757  21.302  0.00  0.00    +0.000 A 
ATOM      8  C   UNL     1       0.728  10.085  22.365  0.00  0.00    +0.000 A 
ATOM      9  N   UNL     1       1.246   8.841  22.283  0.00  0.00    +0.000 NA
ATOM     10  C   UNL     1       1.234   8.266  21.072  0.00  0.00    +0.000 A 
ATOM     11  N   UNL     1       1.741   6.973  20.968  0.00  0.00    +0.000 N 
ATOM     12  N   UNL     1       0.733   8.859  19.978  0.00  0.00    +0.000 NA
ATOM     13  C   UNL     1       0.197  10.082  20.100  0.00  0.00    +0.000 A 
ATOM     14  H   UNL     1       2.034   6.632  21.873  0.00  0.00    +0.000 HD
ENDROOT
BRANCH   5  15
ATOM     15  C   UNL     1      -1.594  13.979  20.426  0.00  0.00    +0.000 A 
ATOM     16  C   UNL     1      -2.915  14.120  20.887  0.00  0.00    +0.000 A 
ATOM     17 CL   UNL     1      -3.878  12.754  21.341  0.00  0.00    +0.000 Cl
ATOM     18  C   UNL     1      -3.508  15.384  20.982  0.00  0.00    +0.000 A 
ATOM     19  C   UNL     1      -2.790  16.524  20.628  0.00  0.00    +0.000 A 
ATOM     20  C   UNL     1      -1.476  16.403  20.178  0.00  0.00    +0.000 A 
ATOM     21  C   UNL     1      -0.881  15.140  20.080  0.00  0.00    +0.000 A 
ATOM     22 CL   UNL     1       0.750  15.075  19.499  0.00  0.00    +0.000 Cl
ENDBRANCH   5  15
BRANCH  11  23
ATOM     23  C   UNL     1       2.434   6.434  19.876  0.00  0.00    +0.000 A 
ATOM     24  C   UNL     1       2.925   7.236  18.842  0.00  0.00    +0.000 A 
ATOM     25  C   UNL     1       3.578   6.681  17.740  0.00  0.00    +0.000 A 
ATOM     26  C   UNL     1       3.722   5.299  17.610  0.00  0.00    +0.000 A 
ATOM     27  C   UNL     1       3.273   4.497  18.666  0.00  0.00    +0.000 A 
ATOM     28  C   UNL     1       2.642   5.056  19.789  0.00  0.00    +0.000 A 
BRANCH  26  29
ATOM     29  N   UNL     1       4.371   4.687  16.527  0.00  0.00    +0.000 N 
ATOM     30  H   UNL     1       3.684   4.258  15.910  0.00  0.00    +0.000 HD
BRANCH  29  31
ATOM     31  C   UNL     1       5.408   5.444  15.828  0.00  0.00    +0.000 C 
BRANCH  31  32
ATOM     32  C   UNL     1       6.798   4.816  15.994  0.00  0.00    +0.000 C 
BRANCH  32  33
ATOM     33  O   UNL     1       7.679   5.376  15.008  0.00  0.00    +0.000 OA
ATOM     34  H   UNL     1       7.736   6.336  15.173  0.00  0.00    +0.000 HD
ENDBRANCH  32  33
BRANCH  32  35
ATOM     35  C   UNL     1       7.364   5.037  17.404  0.00  0.00    +0.000 C 
BRANCH  35  36
ATOM     36  O   UNL     1       6.868   4.056  18.315  0.00  0.00    +0.000 OA
ATOM     37  H   UNL     1       7.364   4.148  19.147  0.00  0.00    +0.000 HD
ENDBRANCH  35  36
ENDBRANCH  32  35
ENDBRANCH  31  32
ENDBRANCH  29  31
ENDBRANCH  26  29
ENDBRANCH  11  23
TORSDOF 8
ENDMDL
MODEL 2
REMARK VINA RESULT:      -7.6      3.357      4.638
REMARK  Name = 
REMARK  9 active torsions:
REMARK  status: ('A' for Active; 'I' for Inactive)
REMARK    1  A    between atoms: C_1  and  N_2
REMARK    2  A    between atoms: C_5  and  C_6
REMARK    3  A    between atoms: N_19  and  C_20
REMARK    4  A    between atoms: C_23  and  N_24
REMARK    5  A    between atoms: N_24  and  C_25
REMARK    6  A    between atoms: C_25  and  C_26
REMARK    7  A    between atoms: C_26  and  O_27
REMARK    8  A    between atoms: C_26  and  C_28
REMARK    9  A    between atoms: C_28  and  O_29
REMARK                            x       y       z     vdW  Elec       q    Type
REMARK                         _______ _______ _______ _____ _____    ______ ____
ROOT
ATOM      1  C   UNL     1      -1.006  10.490  23.039  0.00  0.00    +0.000 C 
ATOM      2  N   UNL     1      -1.716  11.520  22.299  0.00  0.00    +0.000 N 
ATOM      3  C   UNL     1      -2.754  12.215  22.893  0.00  0.00    +0.000 A 
ATOM      4  O   UNL     1      -3.157  11.999  24.037  0.00  0.00    +0.000 OA
ATOM      5  C   UNL     1      -3.410  13.291  22.070  0.00  0.00    +0.000 A 
ATOM      6  C   UNL     1      -3.004  13.545  20.815  0.00  0.00    +0.000 A 
ATOM      7  C   UNL     1      -1.907  12.776  20.248  0.00  0.00    +0.000 A 
ATOM      8  C   UNL     1      -1.407  12.979  18.983  0.00  0.00    +0.000 A 
ATOM      9  N   UNL     1      -0.360  12.300  18.469  0.00  0.00    +0.000 NA
ATOM     10  C   UNL     1       0.180  11.353  19.247  0.00  0.00    +0.000 A 
ATOM     11  N   UNL     1       1.277  10.655  18.746  0.00  0.00    +0.000 N 
ATOM     12  N   UNL     1      -0.260  11.072  20.483  0.00  0.00    +0.000 NA
ATOM     13  C   UNL     1      -1.281  11.788  20.977  0.00  0.00    +0.000 A 
ATOM     14  H   UNL     1       1.532  11.003  17.832  0.00  0.00    +0.000 HD
ENDROOT
BRANCH   5  15
ATOM     15  C   UNL     1      -4.511  14.081  22.653  0.00  0.00    +0.000 A 
ATOM     16  C   UNL     1      -5.852  13.722  22.433  0.00  0.00    +0.000 A 
ATOM     17 CL   UNL     1      -6.286  12.351  21.469  0.00  0.00    +0.000 Cl
ATOM     18  C   UNL     1      -6.894  14.478  22.981  0.00  0.00    +0.000 A 
ATOM     19  C   UNL     1      -6.613  15.597  23.763  0.00  0.00    +0.000 A 
ATOM     20  C   UNL     1      -5.289  15.961  23.999  0.00  0.00    +0.000 A 
ATOM     21  C   UNL     1      -4.244  15.208  23.451  0.00  0.00    +0.000 A 
ATOM     22 CL   UNL     1      -2.627  15.737  23.780  0.00  0.00    +0.000 Cl
ENDBRANCH   5  15
BRANCH  11  23
ATOM     23  C   UNL     1       1.586   9.308  18.978  0.00  0.00    +0.000 A 
ATOM     24  C   UNL     1       1.413   8.715  20.231  0.00  0.00    +0.000 A 
ATOM     25  C   UNL     1       1.764   7.382  20.458  0.00  0.00    +0.000 A 
ATOM     26  C   UNL     1       2.344   6.609  19.451  0.00  0.00    +0.000 A 
ATOM     27  C   UNL     1       2.473   7.187  18.182  0.00  0.00    +0.000 A 
ATOM     28  C   UNL     1       2.095   8.519  17.945  0.00  0.00    +0.000 A 
BRANCH  26  29
ATOM     29  N   UNL     1       2.712   5.266  19.622  0.00  0.00    +0.000 N 
ATOM     30  H   UNL     1       3.664   5.124  19.289  0.00  0.00    +0.000 HD
BRANCH  29  31
ATOM     31  C   UNL     1       2.430   4.632  20.908  0.00  0.00    +0.000 C 
BRANCH  31  32
ATOM     32  C   UNL     1       2.635   3.113  20.865  0.00  0.00    +0.000 C 
BRANCH  32  33
ATOM     33  O   UNL     1       2.522   2.593  22.199  0.00  0.00    +0.000 OA
ATOM     34  H   UNL     1       1.586   2.662  22.465  0.00  0.00    +0.000 HD
ENDBRANCH  32  33
BRANCH  32  35
ATOM     35  C   UNL     1       1.628   2.422  19.935  0.00  0.00    +0.000 C 
BRANCH  35  36
ATOM     36  O   UNL     1       0.362   3.081  19.970  0.00  0.00    +0.000 OA
ATOM     37  H   UNL     1       0.373   3.778  19.291  0.00  0.00    +0.000 HD
ENDBRANCH  35  36
ENDBRANCH  32  35
ENDBRANCH  31  32
ENDBRANCH  29  31
ENDBRANCH  26  29
ENDBRANCH  11  23
TORSDOF 8
ENDMDL
MODEL 3
REMARK VINA RESULT:      -7.6      3.348      4.843
REMARK  Name = 
REMARK  9 active torsions:
REMARK  status: ('A' for Active; 'I' for Inactive)
REMARK    1  A    between atoms: C_1  and  N_2
REMARK    2  A    between atoms: C_5  and  C_6
REMARK    3  A    between atoms: N_19  and  C_20
REMARK    4  A    between atoms: C_23  and  N_24
REMARK    5  A    between atoms: N_24  and  C_25
REMARK    6  A    between atoms: C_25  and  C_26
REMARK    7  A    between atoms: C_26  and  O_27
REMARK    8  A    between atoms: C_26  and  C_28
REMARK    9  A    between atoms: C_28  and  O_29
REMARK                            x       y       z     vdW  Elec       q    Type
REMARK                         _______ _______ _______ _____ _____    ______ ____
ROOT
ATOM      1  C   UNL     1      -0.838  10.887  22.927  0.00  0.00    +0.000 C 
ATOM      2  N   UNL     1      -1.778  11.619  22.095  0.00  0.00    +0.000 N 
ATOM      3  C   UNL     1      -2.838  12.297  22.672  0.00  0.00    +0.000 A 
ATOM      4  O   UNL     1      -3.069  12.304  23.881  0.00  0.00    +0.000 OA
ATOM      5  C   UNL     1      -3.742  13.061  21.743  0.00  0.00    +0.000 A 
ATOM      6  C   UNL     1      -3.525  13.067  20.417  0.00  0.00    +0.000 A 
ATOM      7  C   UNL     1      -2.395  12.330  19.874  0.00  0.00    +0.000 A 
ATOM      8  C   UNL     1      -2.079  12.296  18.535  0.00  0.00    +0.000 A 
ATOM      9  N   UNL     1      -1.005  11.653  18.031  0.00  0.00    +0.000 NA
ATOM     10  C   UNL     1      -0.239  10.987  18.906  0.00  0.00    +0.000 A 
ATOM     11  N   UNL     1       0.888  10.335  18.411  0.00  0.00    +0.000 N 
ATOM     12  N   UNL     1      -0.487  10.948  20.224  0.00  0.00    +0.000 NA
ATOM     13  C   UNL     1      -1.544  11.626  20.698  0.00  0.00    +0.000 A 
ATOM     14  H   UNL     1       0.980  10.490  17.417  0.00  0.00    +0.000 HD
ENDROOT
BRANCH   5  15
ATOM     15  C   UNL     1      -4.877  13.821  22.298  0.00  0.00    +0.000 A 
ATOM     16  C   UNL     1      -4.672  15.045  22.959  0.00  0.00    +0.000 A 
ATOM     17 CL   UNL     1      -3.091  15.719  23.167  0.00  0.00    +0.000 Cl
ATOM     18  C   UNL     1      -5.750  15.760  23.491  0.00  0.00    +0.000 A 
ATOM     19  C   UNL     1      -7.049  15.270  23.363  0.00  0.00    +0.000 A 
ATOM     20  C   UNL     1      -7.271  14.064  22.701  0.00  0.00    +0.000 A 
ATOM     21  C   UNL     1      -6.194  13.345  22.170  0.00  0.00    +0.000 A 
ATOM     22 CL   UNL     1      -6.555  11.848  21.375  0.00  0.00    +0.000 Cl
ENDBRANCH   5  15
BRANCH  11  23
ATOM     23  C   UNL     1       1.427   9.128  18.878  0.00  0.00    +0.000 A 
ATOM     24  C   UNL     1       2.134   8.261  18.041  0.00  0.00    +0.000 A 
ATOM     25  C   UNL     1       2.629   7.043  18.511  0.00  0.00    +0.000 A 
ATOM     26  C   UNL     1       2.393   6.628  19.822  0.00  0.00    +0.000 A 
ATOM     27  C   UNL     1       1.726   7.516  20.675  0.00  0.00    +0.000 A 
ATOM     28  C   UNL     1       1.252   8.754  20.212  0.00  0.00    +0.000 A 
BRANCH  26  29
ATOM     29  N   UNL     1       2.868   5.417  20.348  0.00  0.00    +0.000 N 
ATOM     30  H   UNL     1       2.838   5.445  21.365  0.00  0.00    +0.000 HD
BRANCH  29  31
ATOM     31  C   UNL     1       2.365   4.171  19.773  0.00  0.00    +0.000 C 
BRANCH  31  32
ATOM     32  C   UNL     1       1.118   3.655  20.502  0.00  0.00    +0.000 C 
BRANCH  32  33
ATOM     33  O   UNL     1       0.315   2.908  19.575  0.00  0.00    +0.000 OA
ATOM     34  H   UNL     1      -0.620   3.109  19.765  0.00  0.00    +0.000 HD
ENDBRANCH  32  33
BRANCH  32  35
ATOM     35  C   UNL     1       1.478   2.787  21.716  0.00  0.00    +0.000 C 
BRANCH  35  36
ATOM     36  O   UNL     1       2.893   2.641  21.840  0.00  0.00    +0.000 OA
ATOM     37  H   UNL     1       3.061   1.905  22.454  0.00  0.00    +0.000 HD
ENDBRANCH  35  36
ENDBRANCH  32  35
ENDBRANCH  31  32
ENDBRANCH  29  31
ENDBRANCH  26  29
ENDBRANCH  11  23
TORSDOF 8
ENDMDL
MODEL 4
REMARK VINA RESULT:      -7.6      0.477      1.857
REMARK  Name = 
REMARK  9 active torsions:
REMARK  status: ('A' for Active; 'I' for Inactive)
REMARK    1  A    between atoms: C_1  and  N_2
REMARK    2  A    between atoms: C_5  and  C_6
REMARK    3  A    between atoms: N_19  and  C_20
REMARK    4  A    between atoms: C_23  and  N_24
REMARK    5  A    between atoms: N_24  and  C_25
REMARK    6  A    between atoms: C_25  and  C_26
REMARK    7  A    between atoms: C_26  and  O_27
REMARK    8  A    between atoms: C_26  and  C_28
REMARK    9  A    between atoms: C_28  and  O_29
REMARK                            x       y       z     vdW  Elec       q    Type
REMARK                         _______ _______ _______ _____ _____    ______ ____
ROOT
ATOM      1  C   UNL     1      -0.839   9.927  17.891  0.00  0.00    +0.000 C 
ATOM      2  N   UNL     1      -0.838  10.704  19.119  0.00  0.00    +0.000 N 
ATOM      3  C   UNL     1      -1.487  11.925  19.172  0.00  0.00    +0.000 A 
ATOM      4  O   UNL     1      -2.064  12.436  18.211  0.00  0.00    +0.000 OA
ATOM      5  C   UNL     1      -1.471  12.646  20.493  0.00  0.00    +0.000 A 
ATOM      6  C   UNL     1      -0.843  12.123  21.558  0.00  0.00    +0.000 A 
ATOM      7  C   UNL     1      -0.176  10.835  21.435  0.00  0.00    +0.000 A 
ATOM      8  C   UNL     1       0.472  10.210  22.474  0.00  0.00    +0.000 A 
ATOM      9  N   UNL     1       1.052   8.995  22.378  0.00  0.00    +0.000 NA
ATOM     10  C   UNL     1       1.009   8.403  21.177  0.00  0.00    +0.000 A 
ATOM     11  N   UNL     1       1.580   7.138  21.060  0.00  0.00    +0.000 N 
ATOM     12  N   UNL     1       0.419   8.952  20.104  0.00  0.00    +0.000 NA
ATOM     13  C   UNL     1      -0.178  10.146  20.242  0.00  0.00    +0.000 A 
ATOM     14  H   UNL     1       1.939   6.827  21.952  0.00  0.00    +0.000 HD
ENDROOT
BRANCH   5  15
ATOM     15  C   UNL     1      -2.162  13.943  20.620  0.00  0.00    +0.000 A 
ATOM     16  C   UNL     1      -1.487  15.148  20.358  0.00  0.00    +0.000 A 
ATOM     17 CL   UNL     1       0.179  15.181  19.884  0.00  0.00    +0.000 Cl
ATOM     18  C   UNL     1      -2.142  16.378  20.486  0.00  0.00    +0.000 A 
ATOM     19  C   UNL     1      -3.482  16.422  20.869  0.00  0.00    +0.000 A 
ATOM     20  C   UNL     1      -4.168  15.236  21.123  0.00  0.00    +0.000 A 
ATOM     21  C   UNL     1      -3.515  14.005  20.997  0.00  0.00    +0.000 A 
ATOM     22 CL   UNL     1      -4.436  12.579  21.345  0.00  0.00    +0.000 Cl
ENDBRANCH   5  15
BRANCH  11  23
ATOM     23  C   UNL     1       2.243   6.622  19.938  0.00  0.00    +0.000 A 
ATOM     24  C   UNL     1       2.529   5.261  19.809  0.00  0.00    +0.000 A 
ATOM     25  C   UNL     1       3.227   4.768  18.704  0.00  0.00    +0.000 A 
ATOM     26  C   UNL     1       3.705   5.626  17.713  0.00  0.00    +0.000 A 
ATOM     27  C   UNL     1       3.378   6.984  17.816  0.00  0.00    +0.000 A 
ATOM     28  C   UNL     1       2.652   7.477  18.912  0.00  0.00    +0.000 A 
BRANCH  26  29
ATOM     29  N   UNL     1       4.408   5.186  16.581  0.00  0.00    +0.000 N 
ATOM     30  H   UNL     1       3.768   5.077  15.797  0.00  0.00    +0.000 HD
BRANCH  29  31
ATOM     31  C   UNL     1       5.658   5.863  16.240  0.00  0.00    +0.000 C 
BRANCH  31  32
ATOM     32  C   UNL     1       6.820   4.880  16.051  0.00  0.00    +0.000 C 
BRANCH  32  33
ATOM     33  O   UNL     1       7.719   5.410  15.065  0.00  0.00    +0.000 OA
ATOM     34  H   UNL     1       7.709   4.806  14.300  0.00  0.00    +0.000 HD
ENDBRANCH  32  33
BRANCH  32  35
ATOM     35  C   UNL     1       7.566   4.610  17.365  0.00  0.00    +0.000 C 
BRANCH  35  36
ATOM     36  O   UNL     1       6.693   4.047  18.344  0.00  0.00    +0.000 OA
ATOM     37  H   UNL     1       6.617   3.094  18.160  0.00  0.00    +0.000 HD
ENDBRANCH  35  36
ENDBRANCH  32  35
ENDBRANCH  31  32
ENDBRANCH  29  31
ENDBRANCH  26  29
ENDBRANCH  11  23
TORSDOF 8
ENDMDL
MODEL 5
REMARK VINA RESULT:      -7.6      2.813      4.361
REMARK  Name = 
REMARK  9 active torsions:
REMARK  status: ('A' for Active; 'I' for Inactive)
REMARK    1  A    between atoms: C_1  and  N_2
REMARK    2  A    between atoms: C_5  and  C_6
REMARK    3  A    between atoms: N_19  and  C_20
REMARK    4  A    between atoms: C_23  and  N_24
REMARK    5  A    between atoms: N_24  and  C_25
REMARK    6  A    between atoms: C_25  and  C_26
REMARK    7  A    between atoms: C_26  and  O_27
REMARK    8  A    between atoms: C_26  and  C_28
REMARK    9  A    between atoms: C_28  and  O_29
REMARK                            x       y       z     vdW  Elec       q    Type
REMARK                         _______ _______ _______ _____ _____    ______ ____
ROOT
ATOM      1  C   UNL     1      -0.898  10.426  23.049  0.00  0.00    +0.000 C 
ATOM      2  N   UNL     1      -1.627  11.414  22.272  0.00  0.00    +0.000 N 
ATOM      3  C   UNL     1      -2.661  12.130  22.848  0.00  0.00    +0.000 A 
ATOM      4  O   UNL     1      -3.045  11.966  24.007  0.00  0.00    +0.000 OA
ATOM      5  C   UNL     1      -3.337  13.161  21.986  0.00  0.00    +0.000 A 
ATOM      6  C   UNL     1      -2.952  13.359  20.714  0.00  0.00    +0.000 A 
ATOM      7  C   UNL     1      -1.859  12.571  20.167  0.00  0.00    +0.000 A 
ATOM      8  C   UNL     1      -1.379  12.717  18.886  0.00  0.00    +0.000 A 
ATOM      9  N   UNL     1      -0.336  12.022  18.388  0.00  0.00    +0.000 NA
ATOM     10  C   UNL     1       0.224  11.116  19.202  0.00  0.00    +0.000 A 
ATOM     11  N   UNL     1       1.318  10.402  18.718  0.00  0.00    +0.000 N 
ATOM     12  N   UNL     1      -0.195  10.891  20.456  0.00  0.00    +0.000 NA
ATOM     13  C   UNL     1      -1.214  11.623  20.932  0.00  0.00    +0.000 A 
ATOM     14  H   UNL     1       1.556  10.708  17.784  0.00  0.00    +0.000 HD
ENDROOT
BRANCH   5  15
ATOM     15  C   UNL     1      -4.434  13.971  22.548  0.00  0.00    +0.000 A 
ATOM     16  C   UNL     1      -4.164  15.106  23.332  0.00  0.00    +0.000 A 
ATOM     17 CL   UNL     1      -2.545  15.610  23.687  0.00  0.00    +0.000 Cl
ATOM     18  C   UNL     1      -5.206  15.869  23.870  0.00  0.00    +0.000 A 
ATOM     19  C   UNL     1      -6.532  15.515  23.627  0.00  0.00    +0.000 A 
ATOM     20  C   UNL     1      -6.818  14.399  22.843  0.00  0.00    +0.000 A 
ATOM     21  C   UNL     1      -5.777  13.633  22.305  0.00  0.00    +0.000 A 
ATOM     22 CL   UNL     1      -6.218  12.253  21.355  0.00  0.00    +0.000 Cl
ENDBRANCH   5  15
BRANCH  11  23
ATOM     23  C   UNL     1       1.640   9.069  19.008  0.00  0.00    +0.000 A 
ATOM     24  C   UNL     1       1.452   8.524  20.281  0.00  0.00    +0.000 A 
ATOM     25  C   UNL     1       1.816   7.206  20.566  0.00  0.00    +0.000 A 
ATOM     26  C   UNL     1       2.425   6.402  19.601  0.00  0.00    +0.000 A 
ATOM     27  C   UNL     1       2.570   6.931  18.313  0.00  0.00    +0.000 A 
ATOM     28  C   UNL     1       2.178   8.247  18.017  0.00  0.00    +0.000 A 
BRANCH  26  29
ATOM     29  N   UNL     1       2.807   5.072  19.831  0.00  0.00    +0.000 N 
ATOM     30  H   UNL     1       3.187   4.979  20.771  0.00  0.00    +0.000 HD
BRANCH  29  31
ATOM     31  C   UNL     1       1.873   4.012  19.459  0.00  0.00    +0.000 C 
BRANCH  31  32
ATOM     32  C   UNL     1       2.584   2.683  19.174  0.00  0.00    +0.000 C 
BRANCH  32  33
ATOM     33  O   UNL     1       1.717   1.855  18.383  0.00  0.00    +0.000 OA
ATOM     34  H   UNL     1       1.310   2.419  17.700  0.00  0.00    +0.000 HD
ENDBRANCH  32  33
BRANCH  32  35
ATOM     35  C   UNL     1       3.925   2.890  18.456  0.00  0.00    +0.000 C 
BRANCH  35  36
ATOM     36  O   UNL     1       5.006   2.918  19.388  0.00  0.00    +0.000 OA
ATOM     37  H   UNL     1       5.819   2.688  18.905  0.00  0.00    +0.000 HD
ENDBRANCH  35  36
ENDBRANCH  32  35
ENDBRANCH  31  32
ENDBRANCH  29  31
ENDBRANCH  26  29
ENDBRANCH  11  23
TORSDOF 8
ENDMDL
MODEL 6
REMARK VINA RESULT:      -7.6      2.795      4.357
REMARK  Name = 
REMARK  9 active torsions:
REMARK  status: ('A' for Active; 'I' for Inactive)
REMARK    1  A    between atoms: C_1  and  N_2
REMARK    2  A    between atoms: C_5  and  C_6
REMARK    3  A    between atoms: N_19  and  C_20
REMARK    4  A    between atoms: C_23  and  N_24
REMARK    5  A    between atoms: N_24  and  C_25
REMARK    6  A    between atoms: C_25  and  C_26
REMARK    7  A    between atoms: C_26  and  O_27
REMARK    8  A    between atoms: C_26  and  C_28
REMARK    9  A    between atoms: C_28  and  O_29
REMARK                            x       y       z     vdW  Elec       q    Type
REMARK                         _______ _______ _______ _____ _____    ______ ____
ROOT
ATOM      1  C   UNL     1      -0.947  10.522  23.003  0.00  0.00    +0.000 C 
ATOM      2  N   UNL     1      -1.717  11.493  22.243  0.00  0.00    +0.000 N 
ATOM      3  C   UNL     1      -2.763  12.174  22.839  0.00  0.00    +0.000 A 
ATOM      4  O   UNL     1      -3.123  11.993  24.003  0.00  0.00    +0.000 OA
ATOM      5  C   UNL     1      -3.483  13.189  21.993  0.00  0.00    +0.000 A 
ATOM      6  C   UNL     1      -3.124  13.405  20.717  0.00  0.00    +0.000 A 
ATOM      7  C   UNL     1      -2.016  12.652  20.148  0.00  0.00    +0.000 A 
ATOM      8  C   UNL     1      -1.561  12.819  18.861  0.00  0.00    +0.000 A 
ATOM      9  N   UNL     1      -0.506  12.157  18.343  0.00  0.00    +0.000 NA
ATOM     10  C   UNL     1       0.093  11.265  19.142  0.00  0.00    +0.000 A 
ATOM     11  N   UNL     1       1.201  10.586  18.637  0.00  0.00    +0.000 N 
ATOM     12  N   UNL     1      -0.299  11.021  20.402  0.00  0.00    +0.000 NA
ATOM     13  C   UNL     1      -1.331  11.720  20.898  0.00  0.00    +0.000 A 
ATOM     14  H   UNL     1       1.414  10.904  17.702  0.00  0.00    +0.000 HD
ENDROOT
BRANCH   5  15
ATOM     15  C   UNL     1      -4.594  13.963  22.576  0.00  0.00    +0.000 A 
ATOM     16  C   UNL     1      -4.347  15.129  23.321  0.00  0.00    +0.000 A 
ATOM     17 CL   UNL     1      -2.742  15.715  23.602  0.00  0.00    +0.000 Cl
ATOM     18  C   UNL     1      -5.403  15.858  23.881  0.00  0.00    +0.000 A 
ATOM     19  C   UNL     1      -6.719  15.439  23.697  0.00  0.00    +0.000 A 
ATOM     20  C   UNL     1      -6.982  14.290  22.953  0.00  0.00    +0.000 A 
ATOM     21  C   UNL     1      -5.928  13.559  22.394  0.00  0.00    +0.000 A 
ATOM     22 CL   UNL     1      -6.340  12.135  21.495  0.00  0.00    +0.000 Cl
ENDBRANCH   5  15
BRANCH  11  23
ATOM     23  C   UNL     1       1.567   9.262  18.915  0.00  0.00    +0.000 A 
ATOM     24  C   UNL     1       1.413   8.704  20.187  0.00  0.00    +0.000 A 
ATOM     25  C   UNL     1       1.821   7.397  20.460  0.00  0.00    +0.000 A 
ATOM     26  C   UNL     1       2.439   6.617  19.481  0.00  0.00    +0.000 A 
ATOM     27  C   UNL     1       2.550   7.157  18.194  0.00  0.00    +0.000 A 
ATOM     28  C   UNL     1       2.115   8.462  17.911  0.00  0.00    +0.000 A 
BRANCH  26  29
ATOM     29  N   UNL     1       2.865   5.298  19.698  0.00  0.00    +0.000 N 
ATOM     30  H   UNL     1       2.110   4.650  19.481  0.00  0.00    +0.000 HD
BRANCH  29  31
ATOM     31  C   UNL     1       4.165   4.896  19.164  0.00  0.00    +0.000 C 
BRANCH  31  32
ATOM     32  C   UNL     1       4.150   3.466  18.610  0.00  0.00    +0.000 C 
BRANCH  32  33
ATOM     33  O   UNL     1       4.926   2.625  19.478  0.00  0.00    +0.000 OA
ATOM     34  H   UNL     1       5.425   2.002  18.918  0.00  0.00    +0.000 HD
ENDBRANCH  32  33
BRANCH  32  35
ATOM     35  C   UNL     1       2.723   2.917  18.471  0.00  0.00    +0.000 C 
BRANCH  35  36
ATOM     36  O   UNL     1       2.062   3.488  17.342  0.00  0.00    +0.000 OA
ATOM     37  H   UNL     1       1.214   3.024  17.229  0.00  0.00    +0.000 HD
ENDBRANCH  35  36
ENDBRANCH  32  35
ENDBRANCH  31  32
ENDBRANCH  29  31
ENDBRANCH  26  29
ENDBRANCH  11  23
TORSDOF 8
ENDMDL
MODEL 7
REMARK VINA RESULT:      -7.5      2.909      4.361
REMARK  Name = 
REMARK  9 active torsions:
REMARK  status: ('A' for Active; 'I' for Inactive)
REMARK    1  A    between atoms: C_1  and  N_2
REMARK    2  A    between atoms: C_5  and  C_6
REMARK    3  A    between atoms: N_19  and  C_20
REMARK    4  A    between atoms: C_23  and  N_24
REMARK    5  A    between atoms: N_24  and  C_25
REMARK    6  A    between atoms: C_25  and  C_26
REMARK    7  A    between atoms: C_26  and  O_27
REMARK    8  A    between atoms: C_26  and  C_28
REMARK    9  A    between atoms: C_28  and  O_29
REMARK                            x       y       z     vdW  Elec       q    Type
REMARK                         _______ _______ _______ _____ _____    ______ ____
ROOT
ATOM      1  C   UNL     1      -0.848  10.995  22.898  0.00  0.00    +0.000 C 
ATOM      2  N   UNL     1      -1.847  11.701  22.113  0.00  0.00    +0.000 N 
ATOM      3  C   UNL     1      -2.912  12.324  22.738  0.00  0.00    +0.000 A 
ATOM      4  O   UNL     1      -3.101  12.302  23.954  0.00  0.00    +0.000 OA
ATOM      5  C   UNL     1      -3.879  13.065  21.854  0.00  0.00    +0.000 A 
ATOM      6  C   UNL     1      -3.710  13.100  20.522  0.00  0.00    +0.000 A 
ATOM      7  C   UNL     1      -2.570  12.421  19.927  0.00  0.00    +0.000 A 
ATOM      8  C   UNL     1      -2.300  12.421  18.578  0.00  0.00    +0.000 A 
ATOM      9  N   UNL     1      -1.220  11.831  18.025  0.00  0.00    +0.000 NA
ATOM     10  C   UNL     1      -0.397  11.185  18.862  0.00  0.00    +0.000 A 
ATOM     11  N   UNL     1       0.739  10.588  18.317  0.00  0.00    +0.000 N 
ATOM     12  N   UNL     1      -0.596  11.114  20.187  0.00  0.00    +0.000 NA
ATOM     13  C   UNL     1      -1.662  11.739  20.708  0.00  0.00    +0.000 A 
ATOM     14  H   UNL     1       0.789  10.763  17.323  0.00  0.00    +0.000 HD
ENDROOT
BRANCH   5  15
ATOM     15  C   UNL     1      -5.025  13.768  22.461  0.00  0.00    +0.000 A 
ATOM     16  C   UNL     1      -6.327  13.250  22.353  0.00  0.00    +0.000 A 
ATOM     17 CL   UNL     1      -6.661  11.778  21.504  0.00  0.00    +0.000 Cl
ATOM     18  C   UNL     1      -7.414  13.922  22.923  0.00  0.00    +0.000 A 
ATOM     19  C   UNL     1      -7.215  15.115  23.616  0.00  0.00    +0.000 A 
ATOM     20  C   UNL     1      -5.929  15.637  23.741  0.00  0.00    +0.000 A 
ATOM     21  C   UNL     1      -4.841  14.968  23.170  0.00  0.00    +0.000 A 
ATOM     22 CL   UNL     1      -3.277  15.691  23.358  0.00  0.00    +0.000 Cl
ENDBRANCH   5  15
BRANCH  11  23
ATOM     23  C   UNL     1       1.343   9.398  18.744  0.00  0.00    +0.000 A 
ATOM     24  C   UNL     1       2.113   8.610  17.885  0.00  0.00    +0.000 A 
ATOM     25  C   UNL     1       2.673   7.404  18.313  0.00  0.00    +0.000 A 
ATOM     26  C   UNL     1       2.445   6.922  19.603  0.00  0.00    +0.000 A 
ATOM     27  C   UNL     1       1.714   7.734  20.479  0.00  0.00    +0.000 A 
ATOM     28  C   UNL     1       1.173   8.959  20.058  0.00  0.00    +0.000 A 
BRANCH  26  29
ATOM     29  N   UNL     1       2.986   5.722  20.087  0.00  0.00    +0.000 N 
ATOM     30  H   UNL     1       2.237   5.061  20.287  0.00  0.00    +0.000 HD
BRANCH  29  31
ATOM     31  C   UNL     1       4.119   5.138  19.372  0.00  0.00    +0.000 C 
BRANCH  31  32
ATOM     32  C   UNL     1       4.009   3.613  19.253  0.00  0.00    +0.000 C 
BRANCH  32  33
ATOM     33  O   UNL     1       5.298   3.035  19.513  0.00  0.00    +0.000 OA
ATOM     34  H   UNL     1       5.739   3.585  20.186  0.00  0.00    +0.000 HD
ENDBRANCH  32  33
BRANCH  32  35
ATOM     35  C   UNL     1       2.961   3.034  20.214  0.00  0.00    +0.000 C 
BRANCH  35  36
ATOM     36  O   UNL     1       1.660   3.059  19.629  0.00  0.00    +0.000 OA
ATOM     37  H   UNL     1       1.232   3.892  19.892  0.00  0.00    +0.000 HD
ENDBRANCH  35  36
ENDBRANCH  32  35
ENDBRANCH  31  32
ENDBRANCH  29  31
ENDBRANCH  26  29
ENDBRANCH  11  23
TORSDOF 8
ENDMDL
MODEL 8
REMARK VINA RESULT:      -7.5      0.592      1.342
REMARK  Name = 
REMARK  9 active torsions:
REMARK  status: ('A' for Active; 'I' for Inactive)
REMARK    1  A    between atoms: C_1  and  N_2
REMARK    2  A    between atoms: C_5  and  C_6
REMARK    3  A    between atoms: N_19  and  C_20
REMARK    4  A    between atoms: C_23  and  N_24
REMARK    5  A    between atoms: N_24  and  C_25
REMARK    6  A    between atoms: C_25  and  C_26
REMARK    7  A    between atoms: C_26  and  O_27
REMARK    8  A    between atoms: C_26  and  C_28
REMARK    9  A    between atoms: C_28  and  O_29
REMARK                            x       y       z     vdW  Elec       q    Type
REMARK                         _______ _______ _______ _____ _____    ______ ____
ROOT
ATOM      1  C   UNL     1      -0.564   9.742  17.694  0.00  0.00    +0.000 C 
ATOM      2  N   UNL     1      -0.462  10.550  18.898  0.00  0.00    +0.000 N 
ATOM      3  C   UNL     1      -1.018  11.816  18.937  0.00  0.00    +0.000 A 
ATOM      4  O   UNL     1      -1.592  12.341  17.983  0.00  0.00    +0.000 OA
ATOM      5  C   UNL     1      -0.900  12.570  20.234  0.00  0.00    +0.000 A 
ATOM      6  C   UNL     1      -0.272  12.031  21.292  0.00  0.00    +0.000 A 
ATOM      7  C   UNL     1       0.295  10.696  21.184  0.00  0.00    +0.000 A 
ATOM      8  C   UNL     1       0.936  10.053  22.218  0.00  0.00    +0.000 A 
ATOM      9  N   UNL     1       1.423   8.797  22.138  0.00  0.00    +0.000 NA
ATOM     10  C   UNL     1       1.291   8.178  20.957  0.00  0.00    +0.000 A 
ATOM     11  N   UNL     1       1.765   6.871  20.857  0.00  0.00    +0.000 N 
ATOM     12  N   UNL     1       0.702   8.738  19.890  0.00  0.00    +0.000 NA
ATOM     13  C   UNL     1       0.199   9.976  20.013  0.00  0.00    +0.000 A 
ATOM     14  H   UNL     1       2.135   6.559  21.745  0.00  0.00    +0.000 HD
ENDROOT
BRANCH   5  15
ATOM     15  C   UNL     1      -1.491  13.917  20.347  0.00  0.00    +0.000 A 
ATOM     16  C   UNL     1      -2.781  14.096  20.876  0.00  0.00    +0.000 A 
ATOM     17 CL   UNL     1      -3.745  12.761  21.413  0.00  0.00    +0.000 Cl
ATOM     18  C   UNL     1      -3.342  15.374  20.975  0.00  0.00    +0.000 A 
ATOM     19  C   UNL     1      -2.621  16.491  20.557  0.00  0.00    +0.000 A 
ATOM     20  C   UNL     1      -1.337  16.332  20.039  0.00  0.00    +0.000 A 
ATOM     21  C   UNL     1      -0.774  15.054  19.937  0.00  0.00    +0.000 A 
ATOM     22 CL   UNL     1       0.821  14.942  19.269  0.00  0.00    +0.000 Cl
ENDBRANCH   5  15
BRANCH  11  23
ATOM     23  C   UNL     1       2.347   6.278  19.728  0.00  0.00    +0.000 A 
ATOM     24  C   UNL     1       2.086   4.952  19.372  0.00  0.00    +0.000 A 
ATOM     25  C   UNL     1       2.705   4.363  18.268  0.00  0.00    +0.000 A 
ATOM     26  C   UNL     1       3.643   5.064  17.509  0.00  0.00    +0.000 A 
ATOM     27  C   UNL     1       3.869   6.407  17.835  0.00  0.00    +0.000 A 
ATOM     28  C   UNL     1       3.226   7.010  18.928  0.00  0.00    +0.000 A 
BRANCH  26  29
ATOM     29  N   UNL     1       4.292   4.523  16.389  0.00  0.00    +0.000 N 
ATOM     30  H   UNL     1       4.248   5.180  15.612  0.00  0.00    +0.000 HD
BRANCH  29  31
ATOM     31  C   UNL     1       5.608   3.917  16.581  0.00  0.00    +0.000 C 
BRANCH  31  32
ATOM     32  C   UNL     1       6.744   4.828  16.098  0.00  0.00    +0.000 C 
BRANCH  32  33
ATOM     33  O   UNL     1       7.962   4.434  16.750  0.00  0.00    +0.000 OA
ATOM     34  H   UNL     1       8.705   4.757  16.207  0.00  0.00    +0.000 HD
ENDBRANCH  32  33
BRANCH  32  35
ATOM     35  C   UNL     1       6.914   4.778  14.573  0.00  0.00    +0.000 C 
BRANCH  35  36
ATOM     36  O   UNL     1       7.990   5.615  14.150  0.00  0.00    +0.000 OA
ATOM     37  H   UNL     1       8.823   5.169  14.386  0.00  0.00    +0.000 HD
ENDBRANCH  35  36
ENDBRANCH  32  35
ENDBRANCH  31  32
ENDBRANCH  29  31
ENDBRANCH  26  29
ENDBRANCH  11  23
TORSDOF 8
ENDMDL
MODEL 9
REMARK VINA RESULT:      -7.5      2.786      4.059
REMARK  Name = 
REMARK  9 active torsions:
REMARK  status: ('A' for Active; 'I' for Inactive)
REMARK    1  A    between atoms: C_1  and  N_2
REMARK    2  A    between atoms: C_5  and  C_6
REMARK    3  A    between atoms: N_19  and  C_20
REMARK    4  A    between atoms: C_23  and  N_24
REMARK    5  A    between atoms: N_24  and  C_25
REMARK    6  A    between atoms: C_25  and  C_26
REMARK    7  A    between atoms: C_26  and  O_27
REMARK    8  A    between atoms: C_26  and  C_28
REMARK    9  A    between atoms: C_28  and  O_29
REMARK                            x       y       z     vdW  Elec       q    Type
REMARK                         _______ _______ _______ _____ _____    ______ ____
ROOT
ATOM      1  C   UNL     1      -0.810  10.413  23.006  0.00  0.00    +0.000 C 
ATOM      2  N   UNL     1      -1.534  11.408  22.233  0.00  0.00    +0.000 N 
ATOM      3  C   UNL     1      -2.561  12.130  22.814  0.00  0.00    +0.000 A 
ATOM      4  O   UNL     1      -2.941  11.968  23.974  0.00  0.00    +0.000 OA
ATOM      5  C   UNL     1      -3.233  13.167  21.955  0.00  0.00    +0.000 A 
ATOM      6  C   UNL     1      -2.851  13.363  20.682  0.00  0.00    +0.000 A 
ATOM      7  C   UNL     1      -1.766  12.567  20.130  0.00  0.00    +0.000 A 
ATOM      8  C   UNL     1      -1.291  12.711  18.847  0.00  0.00    +0.000 A 
ATOM      9  N   UNL     1      -0.255  12.008  18.344  0.00  0.00    +0.000 NA
ATOM     10  C   UNL     1       0.301  11.097  19.155  0.00  0.00    +0.000 A 
ATOM     11  N   UNL     1       1.388  10.376  18.666  0.00  0.00    +0.000 N 
ATOM     12  N   UNL     1      -0.115  10.875  20.411  0.00  0.00    +0.000 NA
ATOM     13  C   UNL     1      -1.125  11.614  20.892  0.00  0.00    +0.000 A 
ATOM     14  H   UNL     1       1.624  10.680  17.731  0.00  0.00    +0.000 HD
ENDROOT
BRANCH   5  15
ATOM     15  C   UNL     1      -4.321  13.985  22.522  0.00  0.00    +0.000 A 
ATOM     16  C   UNL     1      -5.667  13.633  22.322  0.00  0.00    +0.000 A 
ATOM     17 CL   UNL     1      -6.122  12.238  21.402  0.00  0.00    +0.000 Cl
ATOM     18  C   UNL     1      -6.699  14.414  22.855  0.00  0.00    +0.000 A 
ATOM     19  C   UNL     1      -6.401  15.553  23.602  0.00  0.00    +0.000 A 
ATOM     20  C   UNL     1      -5.072  15.911  23.818  0.00  0.00    +0.000 A 
ATOM     21  C   UNL     1      -4.039  15.132  23.285  0.00  0.00    +0.000 A 
ATOM     22 CL   UNL     1      -2.414  15.655  23.587  0.00  0.00    +0.000 Cl
ENDBRANCH   5  15
BRANCH  11  23
ATOM     23  C   UNL     1       1.701   9.040  18.954  0.00  0.00    +0.000 A 
ATOM     24  C   UNL     1       1.459   8.479  20.210  0.00  0.00    +0.000 A 
ATOM     25  C   UNL     1       1.815   7.159  20.495  0.00  0.00    +0.000 A 
ATOM     26  C   UNL     1       2.467   6.368  19.548  0.00  0.00    +0.000 A 
ATOM     27  C   UNL     1       2.667   6.914  18.274  0.00  0.00    +0.000 A 
ATOM     28  C   UNL     1       2.285   8.232  17.977  0.00  0.00    +0.000 A 
BRANCH  26  29
ATOM     29  N   UNL     1       2.844   5.037  19.779  0.00  0.00    +0.000 N 
ATOM     30  H   UNL     1       2.049   4.420  19.621  0.00  0.00    +0.000 HD
BRANCH  29  31
ATOM     31  C   UNL     1       4.092   4.561  19.186  0.00  0.00    +0.000 C 
BRANCH  31  32
ATOM     32  C   UNL     1       4.074   3.049  18.925  0.00  0.00    +0.000 C 
BRANCH  32  33
ATOM     33  O   UNL     1       5.049   2.421  19.772  0.00  0.00    +0.000 OA
ATOM     34  H   UNL     1       4.925   2.770  20.675  0.00  0.00    +0.000 HD
ENDBRANCH  32  33
BRANCH  32  35
ATOM     35  C   UNL     1       2.685   2.440  19.167  0.00  0.00    +0.000 C 
BRANCH  35  36
ATOM     36  O   UNL     1       2.210   1.768  18.000  0.00  0.00    +0.000 OA
ATOM     37  H   UNL     1       2.680   2.139  17.233  0.00  0.00    +0.000 HD
ENDBRANCH  35  36
ENDBRANCH  32  35
ENDBRANCH  31  32
ENDBRANCH  29  31
ENDBRANCH  26  29
ENDBRANCH  11  23
TORSDOF 8
ENDMDL
