MODEL 1
REMARK VINA RESULT:      -8.7      0.000      0.000
REMARK  Name = 
REMARK  3 active torsions:
REMARK  status: ('A' for Active; 'I' for Inactive)
REMARK    1  A    between atoms: N_3  and  C_4
REMARK    2  A    between atoms: C_8  and  C_9
REMARK    3  A    between atoms: N_15  and  C_16
REMARK                            x       y       z     vdW  Elec       q    Type
REMARK                         _______ _______ _______ _____ _____    ______ ____
ROOT
ATOM      1  O   UNL     1       2.309   8.579  17.166  0.00  0.00    +0.000 OA
ATOM      2  C   UNL     1       2.208   8.312  18.348  0.00  0.00    +0.000 C 
ATOM      3  N   UNL     1       1.353   8.941  19.302  0.00  0.00    +0.000 N 
ATOM      4  N   UNL     1       2.846   7.221  18.932  0.00  0.00    +0.000 N 
ATOM      5  H   UNL     1       1.198   8.508  20.178  0.00  0.00    +0.000 HD
ATOM      6  H   UNL     1       2.491   7.030  19.854  0.00  0.00    +0.000 HD
ENDROOT
BRANCH   4   7
ATOM      7  C   UNL     1       3.138   6.035  18.225  0.00  0.00    +0.000 A 
ATOM      8  C   UNL     1       2.066   5.130  18.263  0.00  0.00    +0.000 A 
ATOM      9  C   UNL     1       2.135   3.899  17.641  0.00  0.00    +0.000 A 
ATOM     10  C   UNL     1       3.291   3.551  16.997  0.00  0.00    +0.000 A 
ATOM     11  C   UNL     1       4.370   4.453  16.950  0.00  0.00    +0.000 A 
ATOM     12  C   UNL     1       4.334   5.728  17.557  0.00  0.00    +0.000 A 
ATOM     13  C   UNL     1       5.533   6.683  17.510  0.00  0.00    +0.000 C 
ATOM     14  C   UNL     1       6.782   6.232  16.797  0.00  0.00    +0.000 C 
ATOM     15  C   UNL     1       6.672   4.877  16.181  0.00  0.00    +0.000 C 
ATOM     16  C   UNL     1       5.520   3.910  16.202  0.00  0.00    +0.000 C 
ENDBRANCH   4   7
BRANCH   3  17
ATOM     17  C   UNL     1       0.622  10.151  19.070  0.00  0.00    +0.000 A 
ATOM     18  C   UNL     1       1.100  11.376  19.521  0.00  0.00    +0.000 A 
ATOM     19  C   UNL     1       0.395  12.556  19.304  0.00  0.00    +0.000 A 
ATOM     20  C   UNL     1      -0.811  12.530  18.621  0.00  0.00    +0.000 A 
ATOM     21  C   UNL     1      -1.336  11.322  18.140  0.00  0.00    +0.000 A 
ATOM     22  C   UNL     1      -0.605  10.122  18.375  0.00  0.00    +0.000 A 
BRANCH  21  23
ATOM     23  C   UNL     1      -2.597  11.317  17.393  0.00  0.00    +0.000 A 
ATOM     24  N   UNL     1      -3.821  11.665  17.741  0.00  0.00    +0.000 NA
ATOM     25  N   UNL     1      -4.625  11.479  16.638  0.00  0.00    +0.000 NA
ATOM     26  C   UNL     1      -3.829  11.036  15.696  0.00  0.00    +0.000 A 
ATOM     27  O   UNL     1      -2.541  10.892  16.082  0.00  0.00    +0.000 OA
ENDBRANCH  21  23
ENDBRANCH   3  17
TORSDOF 3
ENDMDL
MODEL 2
REMARK VINA RESULT:      -8.7      1.147      2.643
REMARK  Name = 
REMARK  3 active torsions:
REMARK  status: ('A' for Active; 'I' for Inactive)
REMARK    1  A    between atoms: N_3  and  C_4
REMARK    2  A    between atoms: C_8  and  C_9
REMARK    3  A    between atoms: N_15  and  C_16
REMARK                            x       y       z     vdW  Elec       q    Type
REMARK                         _______ _______ _______ _____ _____    ______ ____
ROOT
ATOM      1  O   UNL     1       2.348   8.480  17.295  0.00  0.00    +0.000 OA
ATOM      2  C   UNL     1       2.237   8.256  18.485  0.00  0.00    +0.000 C 
ATOM      3  N   UNL     1       1.371   8.918  19.407  0.00  0.00    +0.000 N 
ATOM      4  N   UNL     1       2.873   7.190  19.115  0.00  0.00    +0.000 N 
ATOM      5  H   UNL     1       1.210   8.517  20.297  0.00  0.00    +0.000 HD
ATOM      6  H   UNL     1       2.510   7.032  20.040  0.00  0.00    +0.000 HD
ENDROOT
BRANCH   4   7
ATOM      7  C   UNL     1       3.174   5.979  18.454  0.00  0.00    +0.000 A 
ATOM      8  C   UNL     1       4.212   6.140  17.523  0.00  0.00    +0.000 A 
ATOM      9  C   UNL     1       4.667   5.085  16.757  0.00  0.00    +0.000 A 
ATOM     10  C   UNL     1       4.068   3.863  16.897  0.00  0.00    +0.000 A 
ATOM     11  C   UNL     1       3.030   3.691  17.831  0.00  0.00    +0.000 A 
ATOM     12  C   UNL     1       2.546   4.739  18.647  0.00  0.00    +0.000 A 
ATOM     13  C   UNL     1       1.399   4.529  19.641  0.00  0.00    +0.000 C 
ATOM     14  C   UNL     1       0.772   3.162  19.737  0.00  0.00    +0.000 C 
ATOM     15  C   UNL     1       1.396   2.146  18.838  0.00  0.00    +0.000 C 
ATOM     16  C   UNL     1       2.519   2.307  17.851  0.00  0.00    +0.000 C 
ENDBRANCH   4   7
BRANCH   3  17
ATOM     17  C   UNL     1       0.639  10.116  19.123  0.00  0.00    +0.000 A 
ATOM     18  C   UNL     1       1.058  11.346  19.616  0.00  0.00    +0.000 A 
ATOM     19  C   UNL     1       0.351  12.515  19.348  0.00  0.00    +0.000 A 
ATOM     20  C   UNL     1      -0.798  12.471  18.573  0.00  0.00    +0.000 A 
ATOM     21  C   UNL     1      -1.261  11.257  18.048  0.00  0.00    +0.000 A 
ATOM     22  C   UNL     1      -0.530  10.069  18.334  0.00  0.00    +0.000 A 
BRANCH  21  23
ATOM     23  C   UNL     1      -2.460  11.233  17.205  0.00  0.00    +0.000 A 
ATOM     24  N   UNL     1      -2.634  10.899  15.941  0.00  0.00    +0.000 NA
ATOM     25  N   UNL     1      -3.976  11.042  15.664  0.00  0.00    +0.000 NA
ATOM     26  C   UNL     1      -4.522  11.448  16.783  0.00  0.00    +0.000 A 
ATOM     27  O   UNL     1      -3.647  11.607  17.801  0.00  0.00    +0.000 OA
ENDBRANCH  21  23
ENDBRANCH   3  17
TORSDOF 3
ENDMDL
MODEL 3
REMARK VINA RESULT:      -8.3      1.292      1.614
REMARK  Name = 
REMARK  3 active torsions:
REMARK  status: ('A' for Active; 'I' for Inactive)
REMARK    1  A    between atoms: N_3  and  C_4
REMARK    2  A    between atoms: C_8  and  C_9
REMARK    3  A    between atoms: N_15  and  C_16
REMARK                            x       y       z     vdW  Elec       q    Type
REMARK                         _______ _______ _______ _____ _____    ______ ____
ROOT
ATOM      1  O   UNL     1       1.697   8.113  17.965  0.00  0.00    +0.000 OA
ATOM      2  C   UNL     1       1.772   8.236  19.172  0.00  0.00    +0.000 C 
ATOM      3  N   UNL     1       1.156   9.244  19.974  0.00  0.00    +0.000 N 
ATOM      4  N   UNL     1       2.388   7.293  19.991  0.00  0.00    +0.000 N 
ATOM      5  H   UNL     1       1.109   9.126  20.955  0.00  0.00    +0.000 HD
ATOM      6  H   UNL     1       2.176   7.446  20.962  0.00  0.00    +0.000 HD
ENDROOT
BRANCH   4   7
ATOM      7  C   UNL     1       2.437   5.918  19.673  0.00  0.00    +0.000 A 
ATOM      8  C   UNL     1       1.583   5.165  20.493  0.00  0.00    +0.000 A 
ATOM      9  C   UNL     1       1.476   3.794  20.362  0.00  0.00    +0.000 A 
ATOM     10  C   UNL     1       2.246   3.160  19.425  0.00  0.00    +0.000 A 
ATOM     11  C   UNL     1       3.103   3.908  18.597  0.00  0.00    +0.000 A 
ATOM     12  C   UNL     1       3.228   5.312  18.685  0.00  0.00    +0.000 A 
ATOM     13  C   UNL     1       4.186   6.100  17.784  0.00  0.00    +0.000 C 
ATOM     14  C   UNL     1       5.018   5.340  16.782  0.00  0.00    +0.000 C 
ATOM     15  C   UNL     1       4.766   3.868  16.779  0.00  0.00    +0.000 C 
ATOM     16  C   UNL     1       3.839   3.057  17.642  0.00  0.00    +0.000 C 
ENDBRANCH   4   7
BRANCH   3  17
ATOM     17  C   UNL     1       0.520  10.420  19.459  0.00  0.00    +0.000 A 
ATOM     18  C   UNL     1       1.048  11.684  19.695  0.00  0.00    +0.000 A 
ATOM     19  C   UNL     1       0.435  12.832  19.202  0.00  0.00    +0.000 A 
ATOM     20  C   UNL     1      -0.728  12.732  18.454  0.00  0.00    +0.000 A 
ATOM     21  C   UNL     1      -1.300  11.482  18.182  0.00  0.00    +0.000 A 
ATOM     22  C   UNL     1      -0.663  10.316  18.697  0.00  0.00    +0.000 A 
BRANCH  21  23
ATOM     23  C   UNL     1      -2.512  11.393  17.363  0.00  0.00    +0.000 A 
ATOM     24  N   UNL     1      -2.695  11.034  16.107  0.00  0.00    +0.000 NA
ATOM     25  N   UNL     1      -4.047  11.113  15.855  0.00  0.00    +0.000 NA
ATOM     26  C   UNL     1      -4.589  11.510  16.979  0.00  0.00    +0.000 A 
ATOM     27  O   UNL     1      -3.702  11.722  17.977  0.00  0.00    +0.000 OA
ENDBRANCH  21  23
ENDBRANCH   3  17
TORSDOF 3
ENDMDL
MODEL 4
REMARK VINA RESULT:      -8.2      2.569      3.013
REMARK  Name = 
REMARK  3 active torsions:
REMARK  status: ('A' for Active; 'I' for Inactive)
REMARK    1  A    between atoms: N_3  and  C_4
REMARK    2  A    between atoms: C_8  and  C_9
REMARK    3  A    between atoms: N_15  and  C_16
REMARK                            x       y       z     vdW  Elec       q    Type
REMARK                         _______ _______ _______ _____ _____    ______ ____
ROOT
ATOM      1  O   UNL     1       1.902   8.133  18.965  0.00  0.00    +0.000 OA
ATOM      2  C   UNL     1       2.063   7.554  20.022  0.00  0.00    +0.000 C 
ATOM      3  N   UNL     1       1.461   7.871  21.277  0.00  0.00    +0.000 N 
ATOM      4  N   UNL     1       2.787   6.370  20.130  0.00  0.00    +0.000 N 
ATOM      5  H   UNL     1       1.496   7.212  22.014  0.00  0.00    +0.000 HD
ATOM      6  H   UNL     1       2.644   5.925  21.021  0.00  0.00    +0.000 HD
ENDROOT
BRANCH   4   7
ATOM      7  C   UNL     1       2.881   5.430  19.081  0.00  0.00    +0.000 A 
ATOM      8  C   UNL     1       1.824   4.509  19.113  0.00  0.00    +0.000 A 
ATOM      9  C   UNL     1       1.719   3.494  18.182  0.00  0.00    +0.000 A 
ATOM     10  C   UNL     1       2.690   3.376  17.224  0.00  0.00    +0.000 A 
ATOM     11  C   UNL     1       3.752   4.298  17.183  0.00  0.00    +0.000 A 
ATOM     12  C   UNL     1       3.887   5.360  18.105  0.00  0.00    +0.000 A 
ATOM     13  C   UNL     1       5.067   6.337  18.049  0.00  0.00    +0.000 C 
ATOM     14  C   UNL     1       6.110   6.143  16.979  0.00  0.00    +0.000 C 
ATOM     15  C   UNL     1       5.829   5.000  16.060  0.00  0.00    +0.000 C 
ATOM     16  C   UNL     1       4.689   4.020  16.077  0.00  0.00    +0.000 C 
ENDBRANCH   4   7
BRANCH   3  17
ATOM     17  C   UNL     1       0.729   9.071  21.551  0.00  0.00    +0.000 A 
ATOM     18  C   UNL     1      -0.029   9.202  22.708  0.00  0.00    +0.000 A 
ATOM     19  C   UNL     1      -0.747  10.363  22.980  0.00  0.00    +0.000 A 
ATOM     20  C   UNL     1      -0.716  11.424  22.088  0.00  0.00    +0.000 A 
ATOM     21  C   UNL     1       0.036  11.347  20.908  0.00  0.00    +0.000 A 
ATOM     22  C   UNL     1       0.761  10.150  20.642  0.00  0.00    +0.000 A 
BRANCH  21  23
ATOM     23  C   UNL     1       0.082  12.489  19.992  0.00  0.00    +0.000 A 
ATOM     24  N   UNL     1      -0.874  13.249  19.491  0.00  0.00    +0.000 NA
ATOM     25  N   UNL     1      -0.267  14.196  18.698  0.00  0.00    +0.000 NA
ATOM     26  C   UNL     1       1.017  13.948  18.777  0.00  0.00    +0.000 A 
ATOM     27  O   UNL     1       1.329  12.889  19.558  0.00  0.00    +0.000 OA
ENDBRANCH  21  23
ENDBRANCH   3  17
TORSDOF 3
ENDMDL
MODEL 5
REMARK VINA RESULT:      -8.2      2.490      8.976
REMARK  Name = 
REMARK  3 active torsions:
REMARK  status: ('A' for Active; 'I' for Inactive)
REMARK    1  A    between atoms: N_3  and  C_4
REMARK    2  A    between atoms: C_8  and  C_9
REMARK    3  A    between atoms: N_15  and  C_16
REMARK                            x       y       z     vdW  Elec       q    Type
REMARK                         _______ _______ _______ _____ _____    ______ ____
ROOT
ATOM      1  O   UNL     1       1.388   9.131  20.165  0.00  0.00    +0.000 OA
ATOM      2  C   UNL     1       1.488   9.213  18.956  0.00  0.00    +0.000 C 
ATOM      3  N   UNL     1       2.014   8.226  18.067  0.00  0.00    +0.000 N 
ATOM      4  N   UNL     1       0.958  10.273  18.225  0.00  0.00    +0.000 N 
ATOM      5  H   UNL     1       1.852   8.311  17.095  0.00  0.00    +0.000 HD
ATOM      6  H   UNL     1       0.947  10.078  17.238  0.00  0.00    +0.000 HD
ENDROOT
BRANCH   4   7
ATOM      7  C   UNL     1      -0.189  10.988  18.633  0.00  0.00    +0.000 A 
ATOM      8  C   UNL     1       0.101  11.885  19.672  0.00  0.00    +0.000 A 
ATOM      9  C   UNL     1      -0.876  12.685  20.231  0.00  0.00    +0.000 A 
ATOM     10  C   UNL     1      -2.161  12.574  19.772  0.00  0.00    +0.000 A 
ATOM     11  C   UNL     1      -2.460  11.679  18.729  0.00  0.00    +0.000 A 
ATOM     12  C   UNL     1      -1.487  10.856  18.117  0.00  0.00    +0.000 A 
ATOM     13  C   UNL     1      -1.845   9.873  16.996  0.00  0.00    +0.000 C 
ATOM     14  C   UNL     1      -3.282   9.788  16.548  0.00  0.00    +0.000 C 
ATOM     15  C   UNL     1      -4.196  10.730  17.260  0.00  0.00    +0.000 C 
ATOM     16  C   UNL     1      -3.888  11.707  18.361  0.00  0.00    +0.000 C 
ENDBRANCH   4   7
BRANCH   3  17
ATOM     17  C   UNL     1       2.723   7.052  18.480  0.00  0.00    +0.000 A 
ATOM     18  C   UNL     1       2.243   6.248  19.506  0.00  0.00    +0.000 A 
ATOM     19  C   UNL     1       2.927   5.107  19.917  0.00  0.00    +0.000 A 
ATOM     20  C   UNL     1       4.116   4.749  19.299  0.00  0.00    +0.000 A 
ATOM     21  C   UNL     1       4.642   5.524  18.255  0.00  0.00    +0.000 A 
ATOM     22  C   UNL     1       3.933   6.690  17.850  0.00  0.00    +0.000 A 
BRANCH  21  23
ATOM     23  C   UNL     1       5.883   5.113  17.593  0.00  0.00    +0.000 A 
ATOM     24  N   UNL     1       7.007   4.615  18.071  0.00  0.00    +0.000 NA
ATOM     25  N   UNL     1       7.841   4.389  16.999  0.00  0.00    +0.000 NA
ATOM     26  C   UNL     1       7.161   4.762  15.943  0.00  0.00    +0.000 A 
ATOM     27  O   UNL     1       5.927   5.240  16.220  0.00  0.00    +0.000 OA
ENDBRANCH  21  23
ENDBRANCH   3  17
TORSDOF 3
ENDMDL
MODEL 6
REMARK VINA RESULT:      -8.2      2.436      8.379
REMARK  Name = 
REMARK  3 active torsions:
REMARK  status: ('A' for Active; 'I' for Inactive)
REMARK    1  A    between atoms: N_3  and  C_4
REMARK    2  A    between atoms: C_8  and  C_9
REMARK    3  A    between atoms: N_15  and  C_16
REMARK                            x       y       z     vdW  Elec       q    Type
REMARK                         _______ _______ _______ _____ _____    ______ ____
ROOT
ATOM      1  O   UNL     1       1.137   8.983  19.760  0.00  0.00    +0.000 OA
ATOM      2  C   UNL     1       1.472   9.502  18.713  0.00  0.00    +0.000 C 
ATOM      3  N   UNL     1       2.177   8.888  17.635  0.00  0.00    +0.000 N 
ATOM      4  N   UNL     1       1.081  10.788  18.350  0.00  0.00    +0.000 N 
ATOM      5  H   UNL     1       2.209   9.338  16.754  0.00  0.00    +0.000 HD
ATOM      6  H   UNL     1       1.268  10.976  17.380  0.00  0.00    +0.000 HD
ENDROOT
BRANCH   4   7
ATOM      7  C   UNL     1      -0.134  11.369  18.774  0.00  0.00    +0.000 A 
ATOM      8  C   UNL     1       0.069  12.311  19.794  0.00  0.00    +0.000 A 
ATOM      9  C   UNL     1      -0.985  12.999  20.364  0.00  0.00    +0.000 A 
ATOM     10  C   UNL     1      -2.256  12.728  19.936  0.00  0.00    +0.000 A 
ATOM     11  C   UNL     1      -2.468  11.788  18.911  0.00  0.00    +0.000 A 
ATOM     12  C   UNL     1      -1.418  11.077  18.289  0.00  0.00    +0.000 A 
ATOM     13  C   UNL     1      -1.679  10.042  17.189  0.00  0.00    +0.000 C 
ATOM     14  C   UNL     1      -3.105   9.780  16.773  0.00  0.00    +0.000 C 
ATOM     15  C   UNL     1      -4.109  10.618  17.493  0.00  0.00    +0.000 C 
ATOM     16  C   UNL     1      -3.897  11.642  18.574  0.00  0.00    +0.000 C 
ENDBRANCH   4   7
BRANCH   3  17
ATOM     17  C   UNL     1       2.808   7.603  17.700  0.00  0.00    +0.000 A 
ATOM     18  C   UNL     1       4.149   7.445  17.373  0.00  0.00    +0.000 A 
ATOM     19  C   UNL     1       4.769   6.200  17.430  0.00  0.00    +0.000 A 
ATOM     20  C   UNL     1       4.049   5.081  17.820  0.00  0.00    +0.000 A 
ATOM     21  C   UNL     1       2.694   5.186  18.165  0.00  0.00    +0.000 A 
ATOM     22  C   UNL     1       2.073   6.467  18.098  0.00  0.00    +0.000 A 
BRANCH  21  23
ATOM     23  C   UNL     1       1.956   3.999  18.605  0.00  0.00    +0.000 A 
ATOM     24  N   UNL     1       1.145   3.184  17.959  0.00  0.00    +0.000 NA
ATOM     25  N   UNL     1       0.744   2.217  18.853  0.00  0.00    +0.000 NA
ATOM     26  C   UNL     1       1.345   2.511  19.979  0.00  0.00    +0.000 A 
ATOM     27  O   UNL     1       2.117   3.620  19.921  0.00  0.00    +0.000 OA
ENDBRANCH  21  23
ENDBRANCH   3  17
TORSDOF 3
ENDMDL
MODEL 7
REMARK VINA RESULT:      -8.2      2.372      3.289
REMARK  Name = 
REMARK  3 active torsions:
REMARK  status: ('A' for Active; 'I' for Inactive)
REMARK    1  A    between atoms: N_3  and  C_4
REMARK    2  A    between atoms: C_8  and  C_9
REMARK    3  A    between atoms: N_15  and  C_16
REMARK                            x       y       z     vdW  Elec       q    Type
REMARK                         _______ _______ _______ _____ _____    ______ ____
ROOT
ATOM      1  O   UNL     1       2.347   8.624  17.119  0.00  0.00    +0.000 OA
ATOM      2  C   UNL     1       2.199   8.373  18.299  0.00  0.00    +0.000 C 
ATOM      3  N   UNL     1       1.337   9.043  19.220  0.00  0.00    +0.000 N 
ATOM      4  N   UNL     1       2.777   7.266  18.913  0.00  0.00    +0.000 N 
ATOM      5  H   UNL     1       1.139   8.625  20.094  0.00  0.00    +0.000 HD
ATOM      6  H   UNL     1       2.386   7.097  19.825  0.00  0.00    +0.000 HD
ENDROOT
BRANCH   4   7
ATOM      7  C   UNL     1       3.047   6.062  18.226  0.00  0.00    +0.000 A 
ATOM      8  C   UNL     1       1.962   5.175  18.287  0.00  0.00    +0.000 A 
ATOM      9  C   UNL     1       2.009   3.932  17.687  0.00  0.00    +0.000 A 
ATOM     10  C   UNL     1       3.156   3.554  17.044  0.00  0.00    +0.000 A 
ATOM     11  C   UNL     1       4.248   4.439  16.975  0.00  0.00    +0.000 A 
ATOM     12  C   UNL     1       4.235   5.726  17.558  0.00  0.00    +0.000 A 
ATOM     13  C   UNL     1       5.447   6.661  17.486  0.00  0.00    +0.000 C 
ATOM     14  C   UNL     1       6.685   6.179  16.775  0.00  0.00    +0.000 C 
ATOM     15  C   UNL     1       6.551   4.813  16.185  0.00  0.00    +0.000 C 
ATOM     16  C   UNL     1       5.386   3.865  16.231  0.00  0.00    +0.000 C 
ENDBRANCH   4   7
BRANCH   3  17
ATOM     17  C   UNL     1       0.660  10.277  18.953  0.00  0.00    +0.000 A 
ATOM     18  C   UNL     1      -0.713  10.311  18.741  0.00  0.00    +0.000 A 
ATOM     19  C   UNL     1      -1.379  11.505  18.476  0.00  0.00    +0.000 A 
ATOM     20  C   UNL     1      -0.673  12.697  18.421  0.00  0.00    +0.000 A 
ATOM     21  C   UNL     1       0.713  12.719  18.632  0.00  0.00    +0.000 A 
ATOM     22  C   UNL     1       1.380  11.489  18.897  0.00  0.00    +0.000 A 
BRANCH  21  23
ATOM     23  C   UNL     1       1.438  13.992  18.601  0.00  0.00    +0.000 A 
ATOM     24  N   UNL     1       1.106  15.199  19.017  0.00  0.00    +0.000 NA
ATOM     25  N   UNL     1       2.176  16.027  18.760  0.00  0.00    +0.000 NA
ATOM     26  C   UNL     1       3.085  15.261  18.210  0.00  0.00    +0.000 A 
ATOM     27  O   UNL     1       2.707  13.972  18.060  0.00  0.00    +0.000 OA
ENDBRANCH  21  23
ENDBRANCH   3  17
TORSDOF 3
ENDMDL
MODEL 8
REMARK VINA RESULT:      -8.2      2.620      3.927
REMARK  Name = 
REMARK  3 active torsions:
REMARK  status: ('A' for Active; 'I' for Inactive)
REMARK    1  A    between atoms: N_3  and  C_4
REMARK    2  A    between atoms: C_8  and  C_9
REMARK    3  A    between atoms: N_15  and  C_16
REMARK                            x       y       z     vdW  Elec       q    Type
REMARK                         _______ _______ _______ _____ _____    ______ ____
ROOT
ATOM      1  O   UNL     1       1.677   8.223  18.996  0.00  0.00    +0.000 OA
ATOM      2  C   UNL     1       2.130   7.810  20.045  0.00  0.00    +0.000 C 
ATOM      3  N   UNL     1       1.701   8.153  21.363  0.00  0.00    +0.000 N 
ATOM      4  N   UNL     1       3.086   6.800  20.108  0.00  0.00    +0.000 N 
ATOM      5  H   UNL     1       1.994   7.602  22.130  0.00  0.00    +0.000 HD
ATOM      6  H   UNL     1       3.190   6.441  21.043  0.00  0.00    +0.000 HD
ENDROOT
BRANCH   4   7
ATOM      7  C   UNL     1       3.187   5.778  19.139  0.00  0.00    +0.000 A 
ATOM      8  C   UNL     1       4.123   6.096  18.144  0.00  0.00    +0.000 A 
ATOM      9  C   UNL     1       4.380   5.241  17.091  0.00  0.00    +0.000 A 
ATOM     10  C   UNL     1       3.679   4.068  17.009  0.00  0.00    +0.000 A 
ATOM     11  C   UNL     1       2.741   3.739  18.004  0.00  0.00    +0.000 A 
ATOM     12  C   UNL     1       2.462   4.577  19.107  0.00  0.00    +0.000 A 
ATOM     13  C   UNL     1       1.418   4.203  20.166  0.00  0.00    +0.000 C 
ATOM     14  C   UNL     1       0.670   2.904  20.010  0.00  0.00    +0.000 C 
ATOM     15  C   UNL     1       1.082   2.108  18.816  0.00  0.00    +0.000 C 
ATOM     16  C   UNL     1       2.097   2.434  17.756  0.00  0.00    +0.000 C 
ENDBRANCH   4   7
BRANCH   3  17
ATOM     17  C   UNL     1       0.800   9.223  21.674  0.00  0.00    +0.000 A 
ATOM     18  C   UNL     1       0.003   9.182  22.812  0.00  0.00    +0.000 A 
ATOM     19  C   UNL     1      -0.878  10.215  23.119  0.00  0.00    +0.000 A 
ATOM     20  C   UNL     1      -0.976  11.317  22.284  0.00  0.00    +0.000 A 
ATOM     21  C   UNL     1      -0.193  11.410  21.126  0.00  0.00    +0.000 A 
ATOM     22  C   UNL     1       0.701  10.343  20.822  0.00  0.00    +0.000 A 
BRANCH  21  23
ATOM     23  C   UNL     1      -0.287  12.597  20.271  0.00  0.00    +0.000 A 
ATOM     24  N   UNL     1      -0.390  13.879  20.562  0.00  0.00    +0.000 NA
ATOM     25  N   UNL     1      -0.422  14.566  19.369  0.00  0.00    +0.000 NA
ATOM     26  C   UNL     1      -0.330  13.650  18.436  0.00  0.00    +0.000 A 
ATOM     27  O   UNL     1      -0.252  12.385  18.908  0.00  0.00    +0.000 OA
ENDBRANCH  21  23
ENDBRANCH   3  17
TORSDOF 3
ENDMDL
MODEL 9
REMARK VINA RESULT:      -8.0      2.489      4.102
REMARK  Name = 
REMARK  3 active torsions:
REMARK  status: ('A' for Active; 'I' for Inactive)
REMARK    1  A    between atoms: N_3  and  C_4
REMARK    2  A    between atoms: C_8  and  C_9
REMARK    3  A    between atoms: N_15  and  C_16
REMARK                            x       y       z     vdW  Elec       q    Type
REMARK                         _______ _______ _______ _____ _____    ______ ____
ROOT
ATOM      1  O   UNL     1       2.359   8.516  17.253  0.00  0.00    +0.000 OA
ATOM      2  C   UNL     1       2.231   8.302  18.443  0.00  0.00    +0.000 C 
ATOM      3  N   UNL     1       1.362   8.980  19.351  0.00  0.00    +0.000 N 
ATOM      4  N   UNL     1       2.845   7.231  19.087  0.00  0.00    +0.000 N 
ATOM      5  H   UNL     1       1.185   8.586  20.241  0.00  0.00    +0.000 HD
ATOM      6  H   UNL     1       2.469   7.083  20.008  0.00  0.00    +0.000 HD
ENDROOT
BRANCH   4   7
ATOM      7  C   UNL     1       3.140   6.013  18.437  0.00  0.00    +0.000 A 
ATOM      8  C   UNL     1       4.156   6.166  17.482  0.00  0.00    +0.000 A 
ATOM      9  C   UNL     1       4.600   5.102  16.721  0.00  0.00    +0.000 A 
ATOM     10  C   UNL     1       4.011   3.879  16.891  0.00  0.00    +0.000 A 
ATOM     11  C   UNL     1       2.994   3.715  17.849  0.00  0.00    +0.000 A 
ATOM     12  C   UNL     1       2.522   4.772  18.660  0.00  0.00    +0.000 A 
ATOM     13  C   UNL     1       1.397   4.571  19.682  0.00  0.00    +0.000 C 
ATOM     14  C   UNL     1       0.780   3.201  19.810  0.00  0.00    +0.000 C 
ATOM     15  C   UNL     1       1.390   2.176  18.912  0.00  0.00    +0.000 C 
ATOM     16  C   UNL     1       2.491   2.329  17.899  0.00  0.00    +0.000 C 
ENDBRANCH   4   7
BRANCH   3  17
ATOM     17  C   UNL     1       0.650  10.185  19.051  0.00  0.00    +0.000 A 
ATOM     18  C   UNL     1      -0.725  10.175  18.848  0.00  0.00    +0.000 A 
ATOM     19  C   UNL     1      -1.425  11.341  18.552  0.00  0.00    +0.000 A 
ATOM     20  C   UNL     1      -0.753  12.550  18.456  0.00  0.00    +0.000 A 
ATOM     21  C   UNL     1       0.633  12.617  18.656  0.00  0.00    +0.000 A 
ATOM     22  C   UNL     1       1.336  11.414  18.954  0.00  0.00    +0.000 A 
BRANCH  21  23
ATOM     23  C   UNL     1       1.322  13.908  18.580  0.00  0.00    +0.000 A 
ATOM     24  N   UNL     1       0.933  15.128  18.898  0.00  0.00    +0.000 NA
ATOM     25  N   UNL     1       1.992  15.971  18.645  0.00  0.00    +0.000 NA
ATOM     26  C   UNL     1       2.952  15.201  18.197  0.00  0.00    +0.000 A 
ATOM     27  O   UNL     1       2.620  13.894  18.112  0.00  0.00    +0.000 OA
ENDBRANCH  21  23
ENDBRANCH   3  17
TORSDOF 3
ENDMDL
