MODEL 1
REMARK VINA RESULT:      -6.8      0.000      0.000
REMARK  Name = 
REMARK  14 active torsions:
REMARK  status: ('A' for Active; 'I' for Inactive)
REMARK    1  A    between atoms: C_1  and  O_2
REMARK    2  A    between atoms: O_2  and  C_3
REMARK    3  A    between atoms: C_6  and  N_7
REMARK    4  A    between atoms: C_12  and  C_13
REMARK    5  A    between atoms: C_15  and  S_16
REMARK    6  A    between atoms: S_16  and  C_17
REMARK    7  A    between atoms: C_17  and  C_18
REMARK    8  A    between atoms: C_18  and  C_19
REMARK    9  A    between atoms: C_19  and  N_20
REMARK   10  A    between atoms: N_20  and  C_21
REMARK   11  A    between atoms: N_20  and  C_22
REMARK   12  A    between atoms: C_24  and  C_25
REMARK   13  A    between atoms: C_27  and  O_28
REMARK   14  A    between atoms: O_28  and  C_29
REMARK                            x       y       z     vdW  Elec       q    Type
REMARK                         _______ _______ _______ _____ _____    ______ ____
ROOT
ATOM      1  N   UNL     1       1.056  10.372  17.879  0.00  0.00    +0.000 N 
ATOM      2  C   UNL     1       1.484   9.265  18.615  0.00  0.00    +0.000 A 
ATOM      3  N   UNL     1       1.099   9.153  19.897  0.00  0.00    +0.000 NA
ATOM      4  C   UNL     1       1.514   8.087  20.591  0.00  0.00    +0.000 A 
ATOM      5  C   UNL     1       2.300   7.110  20.053  0.00  0.00    +0.000 A 
ATOM      6  C   UNL     1       2.655   7.280  18.728  0.00  0.00    +0.000 A 
ATOM      7  N   UNL     1       2.257   8.351  17.999  0.00  0.00    +0.000 NA
ATOM      8  H   UNL     1       1.561  10.421  17.007  0.00  0.00    +0.000 HD
ENDROOT
BRANCH   1  12
ATOM      9  C   UNL     1       0.157  14.207  19.454  0.00  0.00    +0.000 A 
ATOM     10  C   UNL     1       1.476  13.813  19.252  0.00  0.00    +0.000 A 
ATOM     11  C   UNL     1       1.762  12.552  18.735  0.00  0.00    +0.000 A 
ATOM     12  C   UNL     1       0.739  11.646  18.415  0.00  0.00    +0.000 A 
ATOM     13  C   UNL     1      -0.596  12.065  18.568  0.00  0.00    +0.000 A 
ATOM     14  C   UNL     1      -0.877  13.332  19.113  0.00  0.00    +0.000 A 
BRANCH   9  16
ATOM     15  C   UNL     1      -0.330  16.501  19.075  0.00  0.00    +0.000 C 
ATOM     16  O   UNL     1       0.011  15.460  19.980  0.00  0.00    +0.000 OA
ENDBRANCH   9  16
BRANCH  13  17
ATOM     17  O   UNL     1      -1.581  11.162  18.228  0.00  0.00    +0.000 OA
ATOM     18  C   UNL     1      -2.923  11.568  18.481  0.00  0.00    +0.000 C 
ENDBRANCH  13  17
ENDBRANCH   1  12
BRANCH   6  19
ATOM     19  C   UNL     1       3.455   6.282  17.998  0.00  0.00    +0.000 A 
ATOM     20  S   UNL     1       5.101   6.596  17.573  0.00  0.00    +0.000 S 
ATOM     21  C   UNL     1       5.243   5.032  16.910  0.00  0.00    +0.000 A 
ATOM     22  N   UNL     1       4.153   4.305  16.933  0.00  0.00    +0.000 NA
ATOM     23  C   UNL     1       3.124   5.008  17.549  0.00  0.00    +0.000 A 
ATOM     24  C   UNL     1       1.819   4.312  17.703  0.00  0.00    +0.000 C 
BRANCH  21  25
ATOM     25  S   UNL     1       6.760   4.420  16.290  0.00  0.00    +0.000 S 
BRANCH  25  26
ATOM     26  C   UNL     1       6.631   4.902  14.538  0.00  0.00    +0.000 C 
BRANCH  26  27
ATOM     27  C   UNL     1       6.047   3.733  13.743  0.00  0.00    +0.000 C 
BRANCH  27  28
ATOM     28  C   UNL     1       6.561   3.679  12.298  0.00  0.00    +0.000 C 
BRANCH  28  29
ATOM     29  N   UNL     1       5.709   2.920  11.367  0.00  0.00    +0.000 NA
ATOM     30  C   UNL     1       5.923   1.475  11.464  0.00  0.00    +0.000 C 
ATOM     31  C   UNL     1       4.296   3.224  11.619  0.00  0.00    +0.000 C 
ENDBRANCH  28  29
ENDBRANCH  27  28
ENDBRANCH  26  27
ENDBRANCH  25  26
ENDBRANCH  21  25
ENDBRANCH   6  19
TORSDOF 9
ENDMDL
MODEL 2
REMARK VINA RESULT:      -6.6      1.123      1.935
REMARK  Name = 
REMARK  14 active torsions:
REMARK  status: ('A' for Active; 'I' for Inactive)
REMARK    1  A    between atoms: C_1  and  O_2
REMARK    2  A    between atoms: O_2  and  C_3
REMARK    3  A    between atoms: C_6  and  N_7
REMARK    4  A    between atoms: C_12  and  C_13
REMARK    5  A    between atoms: C_15  and  S_16
REMARK    6  A    between atoms: S_16  and  C_17
REMARK    7  A    between atoms: C_17  and  C_18
REMARK    8  A    between atoms: C_18  and  C_19
REMARK    9  A    between atoms: C_19  and  N_20
REMARK   10  A    between atoms: N_20  and  C_21
REMARK   11  A    between atoms: N_20  and  C_22
REMARK   12  A    between atoms: C_24  and  C_25
REMARK   13  A    between atoms: C_27  and  O_28
REMARK   14  A    between atoms: O_28  and  C_29
REMARK                            x       y       z     vdW  Elec       q    Type
REMARK                         _______ _______ _______ _____ _____    ______ ____
ROOT
ATOM      1  N   UNL     1       0.632  10.304  18.018  0.00  0.00    +0.000 N 
ATOM      2  C   UNL     1       1.167   9.236  18.741  0.00  0.00    +0.000 A 
ATOM      3  N   UNL     1       0.867   9.123  20.045  0.00  0.00    +0.000 NA
ATOM      4  C   UNL     1       1.384   8.094  20.726  0.00  0.00    +0.000 A 
ATOM      5  C   UNL     1       2.191   7.155  20.154  0.00  0.00    +0.000 A 
ATOM      6  C   UNL     1       2.456   7.323  18.808  0.00  0.00    +0.000 A 
ATOM      7  N   UNL     1       1.954   8.358  18.090  0.00  0.00    +0.000 NA
ATOM      8  H   UNL     1       1.080  10.369  17.116  0.00  0.00    +0.000 HD
ENDROOT
BRANCH   1  12
ATOM      9  C   UNL     1      -0.474  14.054  19.666  0.00  0.00    +0.000 A 
ATOM     10  C   UNL     1      -1.392  13.011  19.594  0.00  0.00    +0.000 A 
ATOM     11  C   UNL     1      -1.020  11.783  19.051  0.00  0.00    +0.000 A 
ATOM     12  C   UNL     1       0.275  11.568  18.556  0.00  0.00    +0.000 A 
ATOM     13  C   UNL     1       1.218  12.605  18.679  0.00  0.00    +0.000 A 
ATOM     14  C   UNL     1       0.829  13.850  19.207  0.00  0.00    +0.000 A 
BRANCH   9  16
ATOM     15  C   UNL     1      -2.110  15.093  21.040  0.00  0.00    +0.000 C 
ATOM     16  O   UNL     1      -0.966  15.210  20.205  0.00  0.00    +0.000 OA
ENDBRANCH   9  16
BRANCH  13  17
ATOM     17  O   UNL     1       2.489  12.359  18.201  0.00  0.00    +0.000 OA
ATOM     18  C   UNL     1       3.362  13.482  18.126  0.00  0.00    +0.000 C 
ENDBRANCH  13  17
ENDBRANCH   1  12
BRANCH   6  19
ATOM     19  C   UNL     1       3.267   6.361  18.043  0.00  0.00    +0.000 A 
ATOM     20  S   UNL     1       4.804   6.810  17.391  0.00  0.00    +0.000 S 
ATOM     21  C   UNL     1       5.037   5.223  16.812  0.00  0.00    +0.000 A 
ATOM     22  N   UNL     1       4.046   4.392  17.020  0.00  0.00    +0.000 NA
ATOM     23  C   UNL     1       3.028   5.030  17.719  0.00  0.00    +0.000 A 
ATOM     24  C   UNL     1       1.836   4.217  18.083  0.00  0.00    +0.000 C 
BRANCH  21  25
ATOM     25  S   UNL     1       6.525   4.725  16.040  0.00  0.00    +0.000 S 
BRANCH  25  26
ATOM     26  C   UNL     1       5.891   4.085  14.458  0.00  0.00    +0.000 C 
BRANCH  26  27
ATOM     27  C   UNL     1       6.826   4.529  13.332  0.00  0.00    +0.000 C 
BRANCH  27  28
ATOM     28  C   UNL     1       6.674   3.680  12.062  0.00  0.00    +0.000 C 
BRANCH  28  29
ATOM     29  N   UNL     1       5.529   2.753  12.071  0.00  0.00    +0.000 NA
ATOM     30  C   UNL     1       4.350   3.316  11.410  0.00  0.00    +0.000 C 
ATOM     31  C   UNL     1       5.900   1.491  11.422  0.00  0.00    +0.000 C 
ENDBRANCH  28  29
ENDBRANCH  27  28
ENDBRANCH  26  27
ENDBRANCH  25  26
ENDBRANCH  21  25
ENDBRANCH   6  19
TORSDOF 9
ENDMDL
MODEL 3
REMARK VINA RESULT:      -6.5      4.523     10.688
REMARK  Name = 
REMARK  14 active torsions:
REMARK  status: ('A' for Active; 'I' for Inactive)
REMARK    1  A    between atoms: C_1  and  O_2
REMARK    2  A    between atoms: O_2  and  C_3
REMARK    3  A    between atoms: C_6  and  N_7
REMARK    4  A    between atoms: C_12  and  C_13
REMARK    5  A    between atoms: C_15  and  S_16
REMARK    6  A    between atoms: S_16  and  C_17
REMARK    7  A    between atoms: C_17  and  C_18
REMARK    8  A    between atoms: C_18  and  C_19
REMARK    9  A    between atoms: C_19  and  N_20
REMARK   10  A    between atoms: N_20  and  C_21
REMARK   11  A    between atoms: N_20  and  C_22
REMARK   12  A    between atoms: C_24  and  C_25
REMARK   13  A    between atoms: C_27  and  O_28
REMARK   14  A    between atoms: O_28  and  C_29
REMARK                            x       y       z     vdW  Elec       q    Type
REMARK                         _______ _______ _______ _____ _____    ______ ____
ROOT
ATOM      1  N   UNL     1       2.922   7.455  17.967  0.00  0.00    +0.000 N 
ATOM      2  C   UNL     1       2.156   8.079  18.954  0.00  0.00    +0.000 A 
ATOM      3  N   UNL     1       2.034   7.482  20.151  0.00  0.00    +0.000 NA
ATOM      4  C   UNL     1       1.299   8.090  21.089  0.00  0.00    +0.000 A 
ATOM      5  C   UNL     1       0.678   9.288  20.885  0.00  0.00    +0.000 A 
ATOM      6  C   UNL     1       0.849   9.854  19.635  0.00  0.00    +0.000 A 
ATOM      7  N   UNL     1       1.581   9.261  18.661  0.00  0.00    +0.000 NA
ATOM      8  H   UNL     1       2.778   7.912  17.079  0.00  0.00    +0.000 HD
ENDROOT
BRANCH   1  12
ATOM      9  C   UNL     1       3.506   3.269  17.589  0.00  0.00    +0.000 A 
ATOM     10  C   UNL     1       2.243   3.790  17.848  0.00  0.00    +0.000 A 
ATOM     11  C   UNL     1       2.060   5.166  17.971  0.00  0.00    +0.000 A 
ATOM     12  C   UNL     1       3.136   6.057  17.849  0.00  0.00    +0.000 A 
ATOM     13  C   UNL     1       4.404   5.535  17.533  0.00  0.00    +0.000 A 
ATOM     14  C   UNL     1       4.585   4.143  17.434  0.00  0.00    +0.000 A 
BRANCH   9  16
ATOM     15  C   UNL     1       3.705   1.194  18.727  0.00  0.00    +0.000 C 
ATOM     16  O   UNL     1       3.555   1.906  17.507  0.00  0.00    +0.000 OA
ENDBRANCH   9  16
BRANCH  13  17
ATOM     17  O   UNL     1       5.440   6.435  17.400  0.00  0.00    +0.000 OA
ATOM     18  C   UNL     1       6.671   6.075  18.021  0.00  0.00    +0.000 C 
ENDBRANCH  13  17
ENDBRANCH   1  12
BRANCH   6  19
ATOM     19  C   UNL     1       0.284  11.168  19.287  0.00  0.00    +0.000 A 
ATOM     20  S   UNL     1       1.010  12.630  19.855  0.00  0.00    +0.000 S 
ATOM     21  C   UNL     1      -0.129  13.552  18.982  0.00  0.00    +0.000 A 
ATOM     22  N   UNL     1      -1.039  12.864  18.337  0.00  0.00    +0.000 NA
ATOM     23  C   UNL     1      -0.817  11.503  18.504  0.00  0.00    +0.000 A 
ATOM     24  C   UNL     1      -1.734  10.569  17.798  0.00  0.00    +0.000 C 
BRANCH  21  25
ATOM     25  S   UNL     1      -0.053  15.297  18.910  0.00  0.00    +0.000 S 
BRANCH  25  26
ATOM     26  C   UNL     1      -1.277  15.745  20.182  0.00  0.00    +0.000 C 
BRANCH  26  27
ATOM     27  C   UNL     1      -0.625  15.631  21.561  0.00  0.00    +0.000 C 
BRANCH  27  28
ATOM     28  C   UNL     1      -1.322  14.606  22.467  0.00  0.00    +0.000 C 
BRANCH  28  29
ATOM     29  N   UNL     1      -2.454  13.899  21.844  0.00  0.00    +0.000 NA
ATOM     30  C   UNL     1      -2.282  12.445  21.856  0.00  0.00    +0.000 C 
ATOM     31  C   UNL     1      -3.703  14.250  22.529  0.00  0.00    +0.000 C 
ENDBRANCH  28  29
ENDBRANCH  27  28
ENDBRANCH  26  27
ENDBRANCH  25  26
ENDBRANCH  21  25
ENDBRANCH   6  19
TORSDOF 9
ENDMDL
MODEL 4
REMARK VINA RESULT:      -6.5      1.307      1.611
REMARK  Name = 
REMARK  14 active torsions:
REMARK  status: ('A' for Active; 'I' for Inactive)
REMARK    1  A    between atoms: C_1  and  O_2
REMARK    2  A    between atoms: O_2  and  C_3
REMARK    3  A    between atoms: C_6  and  N_7
REMARK    4  A    between atoms: C_12  and  C_13
REMARK    5  A    between atoms: C_15  and  S_16
REMARK    6  A    between atoms: S_16  and  C_17
REMARK    7  A    between atoms: C_17  and  C_18
REMARK    8  A    between atoms: C_18  and  C_19
REMARK    9  A    between atoms: C_19  and  N_20
REMARK   10  A    between atoms: N_20  and  C_21
REMARK   11  A    between atoms: N_20  and  C_22
REMARK   12  A    between atoms: C_24  and  C_25
REMARK   13  A    between atoms: C_27  and  O_28
REMARK   14  A    between atoms: O_28  and  C_29
REMARK                            x       y       z     vdW  Elec       q    Type
REMARK                         _______ _______ _______ _____ _____    ______ ____
ROOT
ATOM      1  N   UNL     1       1.266  11.005  18.035  0.00  0.00    +0.000 N 
ATOM      2  C   UNL     1       1.375   9.947  18.940  0.00  0.00    +0.000 A 
ATOM      3  N   UNL     1       0.873  10.100  20.176  0.00  0.00    +0.000 NA
ATOM      4  C   UNL     1       0.982   9.078  21.033  0.00  0.00    +0.000 A 
ATOM      5  C   UNL     1       1.572   7.893  20.705  0.00  0.00    +0.000 A 
ATOM      6  C   UNL     1       2.063   7.797  19.416  0.00  0.00    +0.000 A 
ATOM      7  N   UNL     1       1.974   8.814  18.525  0.00  0.00    +0.000 NA
ATOM      8  H   UNL     1       1.839  10.825  17.223  0.00  0.00    +0.000 HD
ENDROOT
BRANCH   1  12
ATOM      9  C   UNL     1       1.115  15.128  19.028  0.00  0.00    +0.000 A 
ATOM     10  C   UNL     1       2.336  14.476  18.883  0.00  0.00    +0.000 A 
ATOM     11  C   UNL     1       2.376  13.122  18.557  0.00  0.00    +0.000 A 
ATOM     12  C   UNL     1       1.199  12.380  18.377  0.00  0.00    +0.000 A 
ATOM     13  C   UNL     1      -0.035  13.052  18.470  0.00  0.00    +0.000 A 
ATOM     14  C   UNL     1      -0.068  14.414  18.823  0.00  0.00    +0.000 A 
BRANCH   9  16
ATOM     15  C   UNL     1       2.414  16.866  19.995  0.00  0.00    +0.000 C 
ATOM     16  O   UNL     1       1.211  16.449  19.363  0.00  0.00    +0.000 OA
ENDBRANCH   9  16
BRANCH  13  17
ATOM     17  O   UNL     1      -1.176  12.303  18.270  0.00  0.00    +0.000 OA
ATOM     18  C   UNL     1      -2.130  12.315  19.328  0.00  0.00    +0.000 C 
ENDBRANCH  13  17
ENDBRANCH   1  12
BRANCH   6  19
ATOM     19  C   UNL     1       2.677   6.561  18.902  0.00  0.00    +0.000 A 
ATOM     20  S   UNL     1       3.944   6.617  17.727  0.00  0.00    +0.000 S 
ATOM     21  C   UNL     1       4.090   4.919  17.783  0.00  0.00    +0.000 A 
ATOM     22  N   UNL     1       3.242   4.303  18.569  0.00  0.00    +0.000 NA
ATOM     23  C   UNL     1       2.428   5.228  19.212  0.00  0.00    +0.000 A 
ATOM     24  C   UNL     1       1.432   4.703  20.183  0.00  0.00    +0.000 C 
BRANCH  21  25
ATOM     25  S   UNL     1       5.326   4.063  16.891  0.00  0.00    +0.000 S 
BRANCH  25  26
ATOM     26  C   UNL     1       6.261   5.455  16.181  0.00  0.00    +0.000 C 
BRANCH  26  27
ATOM     27  C   UNL     1       6.522   5.175  14.700  0.00  0.00    +0.000 C 
BRANCH  27  28
ATOM     28  C   UNL     1       5.897   3.856  14.224  0.00  0.00    +0.000 C 
BRANCH  28  29
ATOM     29  N   UNL     1       6.245   3.469  12.846  0.00  0.00    +0.000 NA
ATOM     30  C   UNL     1       5.064   3.296  11.999  0.00  0.00    +0.000 C 
ATOM     31  C   UNL     1       7.132   4.475  12.252  0.00  0.00    +0.000 C 
ENDBRANCH  28  29
ENDBRANCH  27  28
ENDBRANCH  26  27
ENDBRANCH  25  26
ENDBRANCH  21  25
ENDBRANCH   6  19
TORSDOF 9
ENDMDL
MODEL 5
REMARK VINA RESULT:      -6.5      2.399      3.262
REMARK  Name = 
REMARK  14 active torsions:
REMARK  status: ('A' for Active; 'I' for Inactive)
REMARK    1  A    between atoms: C_1  and  O_2
REMARK    2  A    between atoms: O_2  and  C_3
REMARK    3  A    between atoms: C_6  and  N_7
REMARK    4  A    between atoms: C_12  and  C_13
REMARK    5  A    between atoms: C_15  and  S_16
REMARK    6  A    between atoms: S_16  and  C_17
REMARK    7  A    between atoms: C_17  and  C_18
REMARK    8  A    between atoms: C_18  and  C_19
REMARK    9  A    between atoms: C_19  and  N_20
REMARK   10  A    between atoms: N_20  and  C_21
REMARK   11  A    between atoms: N_20  and  C_22
REMARK   12  A    between atoms: C_24  and  C_25
REMARK   13  A    between atoms: C_27  and  O_28
REMARK   14  A    between atoms: O_28  and  C_29
REMARK                            x       y       z     vdW  Elec       q    Type
REMARK                         _______ _______ _______ _____ _____    ______ ____
ROOT
ATOM      1  N   UNL     1       1.066  10.810  18.162  0.00  0.00    +0.000 N 
ATOM      2  C   UNL     1       1.218   9.799  19.113  0.00  0.00    +0.000 A 
ATOM      3  N   UNL     1       0.818  10.032  20.374  0.00  0.00    +0.000 NA
ATOM      4  C   UNL     1       0.967   9.055  21.275  0.00  0.00    +0.000 A 
ATOM      5  C   UNL     1       1.499   7.836  20.969  0.00  0.00    +0.000 A 
ATOM      6  C   UNL     1       1.885   7.657  19.654  0.00  0.00    +0.000 A 
ATOM      7  N   UNL     1       1.752   8.628  18.717  0.00  0.00    +0.000 NA
ATOM      8  H   UNL     1       1.568  10.569  17.320  0.00  0.00    +0.000 HD
ENDROOT
BRANCH   1  12
ATOM      9  C   UNL     1       1.101  14.981  18.935  0.00  0.00    +0.000 A 
ATOM     10  C   UNL     1       2.290  14.279  18.771  0.00  0.00    +0.000 A 
ATOM     11  C   UNL     1       2.269  12.909  18.518  0.00  0.00    +0.000 A 
ATOM     12  C   UNL     1       1.061  12.203  18.432  0.00  0.00    +0.000 A 
ATOM     13  C   UNL     1      -0.143  12.923  18.543  0.00  0.00    +0.000 A 
ATOM     14  C   UNL     1      -0.114  14.301  18.823  0.00  0.00    +0.000 A 
BRANCH   9  16
ATOM     15  C   UNL     1       0.089  17.122  19.128  0.00  0.00    +0.000 C 
ATOM     16  O   UNL     1       1.257  16.315  19.193  0.00  0.00    +0.000 OA
ENDBRANCH   9  16
BRANCH  13  17
ATOM     17  O   UNL     1      -1.317  12.206  18.436  0.00  0.00    +0.000 OA
ATOM     18  C   UNL     1      -2.209  12.288  19.544  0.00  0.00    +0.000 C 
ENDBRANCH  13  17
ENDBRANCH   1  12
BRANCH   6  19
ATOM     19  C   UNL     1       2.425   6.378  19.163  0.00  0.00    +0.000 A 
ATOM     20  S   UNL     1       3.614   6.334  17.909  0.00  0.00    +0.000 S 
ATOM     21  C   UNL     1       3.709   4.636  18.040  0.00  0.00    +0.000 A 
ATOM     22  N   UNL     1       2.895   4.088  18.907  0.00  0.00    +0.000 NA
ATOM     23  C   UNL     1       2.154   5.070  19.554  0.00  0.00    +0.000 A 
ATOM     24  C   UNL     1       1.207   4.627  20.611  0.00  0.00    +0.000 C 
BRANCH  21  25
ATOM     25  S   UNL     1       4.857   3.696  17.114  0.00  0.00    +0.000 S 
BRANCH  25  26
ATOM     26  C   UNL     1       5.293   4.884  15.805  0.00  0.00    +0.000 C 
BRANCH  26  27
ATOM     27  C   UNL     1       6.736   5.346  16.014  0.00  0.00    +0.000 C 
BRANCH  27  28
ATOM     28  C   UNL     1       6.830   6.749  16.628  0.00  0.00    +0.000 C 
BRANCH  28  29
ATOM     29  N   UNL     1       7.927   6.928  17.595  0.00  0.00    +0.000 NA
ATOM     30  C   UNL     1       8.114   8.330  17.975  0.00  0.00    +0.000 C 
ATOM     31  C   UNL     1       7.675   6.124  18.795  0.00  0.00    +0.000 C 
ENDBRANCH  28  29
ENDBRANCH  27  28
ENDBRANCH  26  27
ENDBRANCH  25  26
ENDBRANCH  21  25
ENDBRANCH   6  19
TORSDOF 9
ENDMDL
MODEL 6
REMARK VINA RESULT:      -6.4      4.601     10.237
REMARK  Name = 
REMARK  14 active torsions:
REMARK  status: ('A' for Active; 'I' for Inactive)
REMARK    1  A    between atoms: C_1  and  O_2
REMARK    2  A    between atoms: O_2  and  C_3
REMARK    3  A    between atoms: C_6  and  N_7
REMARK    4  A    between atoms: C_12  and  C_13
REMARK    5  A    between atoms: C_15  and  S_16
REMARK    6  A    between atoms: S_16  and  C_17
REMARK    7  A    between atoms: C_17  and  C_18
REMARK    8  A    between atoms: C_18  and  C_19
REMARK    9  A    between atoms: C_19  and  N_20
REMARK   10  A    between atoms: N_20  and  C_21
REMARK   11  A    between atoms: N_20  and  C_22
REMARK   12  A    between atoms: C_24  and  C_25
REMARK   13  A    between atoms: C_27  and  O_28
REMARK   14  A    between atoms: O_28  and  C_29
REMARK                            x       y       z     vdW  Elec       q    Type
REMARK                         _______ _______ _______ _____ _____    ______ ____
ROOT
ATOM      1  N   UNL     1       2.565   7.566  18.124  0.00  0.00    +0.000 N 
ATOM      2  C   UNL     1       1.903   8.142  19.209  0.00  0.00    +0.000 A 
ATOM      3  N   UNL     1       1.960   7.528  20.402  0.00  0.00    +0.000 NA
ATOM      4  C   UNL     1       1.322   8.092  21.434  0.00  0.00    +0.000 A 
ATOM      5  C   UNL     1       0.627   9.260  21.330  0.00  0.00    +0.000 A 
ATOM      6  C   UNL     1       0.612   9.847  20.078  0.00  0.00    +0.000 A 
ATOM      7  N   UNL     1       1.242   9.299  19.010  0.00  0.00    +0.000 NA
ATOM      8  H   UNL     1       2.289   8.024  17.268  0.00  0.00    +0.000 HD
ENDROOT
BRANCH   1  12
ATOM      9  C   UNL     1       3.293   3.419  17.595  0.00  0.00    +0.000 A 
ATOM     10  C   UNL     1       1.996   3.900  17.746  0.00  0.00    +0.000 A 
ATOM     11  C   UNL     1       1.767   5.263  17.919  0.00  0.00    +0.000 A 
ATOM     12  C   UNL     1       2.826   6.181  17.957  0.00  0.00    +0.000 A 
ATOM     13  C   UNL     1       4.133   5.702  17.750  0.00  0.00    +0.000 A 
ATOM     14  C   UNL     1       4.360   4.321  17.599  0.00  0.00    +0.000 A 
BRANCH   9  16
ATOM     15  C   UNL     1       3.667   1.309  18.619  0.00  0.00    +0.000 C 
ATOM     16  O   UNL     1       3.385   2.063  17.448  0.00  0.00    +0.000 OA
ENDBRANCH   9  16
BRANCH  13  17
ATOM     17  O   UNL     1       5.154   6.629  17.774  0.00  0.00    +0.000 OA
ATOM     18  C   UNL     1       6.157   6.488  16.771  0.00  0.00    +0.000 C 
ENDBRANCH  13  17
ENDBRANCH   1  12
BRANCH   6  19
ATOM     19  C   UNL     1      -0.052  11.136  19.824  0.00  0.00    +0.000 A 
ATOM     20  S   UNL     1       0.328  12.535  20.766  0.00  0.00    +0.000 S 
ATOM     21  C   UNL     1      -0.730  13.478  19.817  0.00  0.00    +0.000 A 
ATOM     22  N   UNL     1      -1.383  12.831  18.883  0.00  0.00    +0.000 NA
ATOM     23  C   UNL     1      -1.007  11.493  18.878  0.00  0.00    +0.000 A 
ATOM     24  C   UNL     1      -1.620  10.616  17.845  0.00  0.00    +0.000 C 
BRANCH  21  25
ATOM     25  S   UNL     1      -0.890  15.205  20.042  0.00  0.00    +0.000 S 
BRANCH  25  26
ATOM     26  C   UNL     1       0.062  15.824  18.619  0.00  0.00    +0.000 C 
BRANCH  26  27
ATOM     27  C   UNL     1       1.386  16.402  19.121  0.00  0.00    +0.000 C 
BRANCH  27  28
ATOM     28  C   UNL     1       2.263  16.955  17.988  0.00  0.00    +0.000 C 
BRANCH  28  29
ATOM     29  N   UNL     1       3.713  16.800  18.197  0.00  0.00    +0.000 NA
ATOM     30  C   UNL     1       4.092  16.931  19.605  0.00  0.00    +0.000 C 
ATOM     31  C   UNL     1       4.155  15.497  17.690  0.00  0.00    +0.000 C 
ENDBRANCH  28  29
ENDBRANCH  27  28
ENDBRANCH  26  27
ENDBRANCH  25  26
ENDBRANCH  21  25
ENDBRANCH   6  19
TORSDOF 9
ENDMDL
MODEL 7
REMARK VINA RESULT:      -6.3      4.719      9.909
REMARK  Name = 
REMARK  14 active torsions:
REMARK  status: ('A' for Active; 'I' for Inactive)
REMARK    1  A    between atoms: C_1  and  O_2
REMARK    2  A    between atoms: O_2  and  C_3
REMARK    3  A    between atoms: C_6  and  N_7
REMARK    4  A    between atoms: C_12  and  C_13
REMARK    5  A    between atoms: C_15  and  S_16
REMARK    6  A    between atoms: S_16  and  C_17
REMARK    7  A    between atoms: C_17  and  C_18
REMARK    8  A    between atoms: C_18  and  C_19
REMARK    9  A    between atoms: C_19  and  N_20
REMARK   10  A    between atoms: N_20  and  C_21
REMARK   11  A    between atoms: N_20  and  C_22
REMARK   12  A    between atoms: C_24  and  C_25
REMARK   13  A    between atoms: C_27  and  O_28
REMARK   14  A    between atoms: O_28  and  C_29
REMARK                            x       y       z     vdW  Elec       q    Type
REMARK                         _______ _______ _______ _____ _____    ______ ____
ROOT
ATOM      1  N   UNL     1       2.532   7.400  18.238  0.00  0.00    +0.000 N 
ATOM      2  C   UNL     1       1.884   8.057  19.285  0.00  0.00    +0.000 A 
ATOM      3  N   UNL     1       1.864   7.479  20.498  0.00  0.00    +0.000 NA
ATOM      4  C   UNL     1       1.241   8.120  21.493  0.00  0.00    +0.000 A 
ATOM      5  C   UNL     1       0.636   9.332  21.333  0.00  0.00    +0.000 A 
ATOM      6  C   UNL     1       0.698   9.877  20.065  0.00  0.00    +0.000 A 
ATOM      7  N   UNL     1       1.315   9.252  19.033  0.00  0.00    +0.000 NA
ATOM      8  H   UNL     1       2.313   7.850  17.361  0.00  0.00    +0.000 HD
ENDROOT
BRANCH   1  12
ATOM      9  C   UNL     1       2.974   3.198  17.847  0.00  0.00    +0.000 A 
ATOM     10  C   UNL     1       1.720   3.793  17.753  0.00  0.00    +0.000 A 
ATOM     11  C   UNL     1       1.584   5.173  17.883  0.00  0.00    +0.000 A 
ATOM     12  C   UNL     1       2.695   5.995  18.120  0.00  0.00    +0.000 A 
ATOM     13  C   UNL     1       3.970   5.401  18.160  0.00  0.00    +0.000 A 
ATOM     14  C   UNL     1       4.097   4.003  18.052  0.00  0.00    +0.000 A 
BRANCH   9  16
ATOM     15  C   UNL     1       3.920   1.117  18.493  0.00  0.00    +0.000 C 
ATOM     16  O   UNL     1       2.971   1.838  17.718  0.00  0.00    +0.000 OA
ENDBRANCH   9  16
BRANCH  13  17
ATOM     17  O   UNL     1       5.047   6.235  18.376  0.00  0.00    +0.000 OA
ATOM     18  C   UNL     1       6.240   5.615  18.847  0.00  0.00    +0.000 C 
ENDBRANCH  13  17
ENDBRANCH   1  12
BRANCH   6  19
ATOM     19  C   UNL     1       0.138  11.203  19.753  0.00  0.00    +0.000 A 
ATOM     20  S   UNL     1       0.689  12.620  20.575  0.00  0.00    +0.000 S 
ATOM     21  C   UNL     1      -0.331  13.591  19.613  0.00  0.00    +0.000 A 
ATOM     22  N   UNL     1      -1.088  12.947  18.760  0.00  0.00    +0.000 NA
ATOM     23  C   UNL     1      -0.832  11.583  18.831  0.00  0.00    +0.000 A 
ATOM     24  C   UNL     1      -1.574  10.699  17.892  0.00  0.00    +0.000 C 
BRANCH  21  25
ATOM     25  S   UNL     1      -0.327  15.336  19.724  0.00  0.00    +0.000 S 
BRANCH  25  26
ATOM     26  C   UNL     1       1.333  15.630  20.414  0.00  0.00    +0.000 C 
BRANCH  26  27
ATOM     27  C   UNL     1       2.128  16.502  19.441  0.00  0.00    +0.000 C 
BRANCH  27  28
ATOM     28  C   UNL     1       2.635  15.722  18.220  0.00  0.00    +0.000 C 
BRANCH  28  29
ATOM     29  N   UNL     1       3.498  14.571  18.537  0.00  0.00    +0.000 NA
ATOM     30  C   UNL     1       2.992  13.320  17.969  0.00  0.00    +0.000 C 
ATOM     31  C   UNL     1       4.859  14.815  18.048  0.00  0.00    +0.000 C 
ENDBRANCH  28  29
ENDBRANCH  27  28
ENDBRANCH  26  27
ENDBRANCH  25  26
ENDBRANCH  21  25
ENDBRANCH   6  19
TORSDOF 9
ENDMDL
MODEL 8
REMARK VINA RESULT:      -6.2      5.053     11.159
REMARK  Name = 
REMARK  14 active torsions:
REMARK  status: ('A' for Active; 'I' for Inactive)
REMARK    1  A    between atoms: C_1  and  O_2
REMARK    2  A    between atoms: O_2  and  C_3
REMARK    3  A    between atoms: C_6  and  N_7
REMARK    4  A    between atoms: C_12  and  C_13
REMARK    5  A    between atoms: C_15  and  S_16
REMARK    6  A    between atoms: S_16  and  C_17
REMARK    7  A    between atoms: C_17  and  C_18
REMARK    8  A    between atoms: C_18  and  C_19
REMARK    9  A    between atoms: C_19  and  N_20
REMARK   10  A    between atoms: N_20  and  C_21
REMARK   11  A    between atoms: N_20  and  C_22
REMARK   12  A    between atoms: C_24  and  C_25
REMARK   13  A    between atoms: C_27  and  O_28
REMARK   14  A    between atoms: O_28  and  C_29
REMARK                            x       y       z     vdW  Elec       q    Type
REMARK                         _______ _______ _______ _____ _____    ______ ____
ROOT
ATOM      1  N   UNL     1       2.306   6.691  20.024  0.00  0.00    +0.000 N 
ATOM      2  C   UNL     1       1.808   7.926  19.604  0.00  0.00    +0.000 A 
ATOM      3  N   UNL     1       1.831   8.221  18.294  0.00  0.00    +0.000 NA
ATOM      4  C   UNL     1       1.349   9.407  17.904  0.00  0.00    +0.000 A 
ATOM      5  C   UNL     1       0.832  10.321  18.775  0.00  0.00    +0.000 A 
ATOM      6  C   UNL     1       0.831   9.955  20.108  0.00  0.00    +0.000 A 
ATOM      7  N   UNL     1       1.316   8.764  20.536  0.00  0.00    +0.000 NA
ATOM      8  H   UNL     1       2.396   6.679  21.029  0.00  0.00    +0.000 HD
ENDROOT
BRANCH   1  12
ATOM      9  C   UNL     1       5.348   4.492  18.045  0.00  0.00    +0.000 A 
ATOM     10  C   UNL     1       5.138   5.836  17.753  0.00  0.00    +0.000 A 
ATOM     11  C   UNL     1       4.136   6.550  18.408  0.00  0.00    +0.000 A 
ATOM     12  C   UNL     1       3.311   5.939  19.363  0.00  0.00    +0.000 A 
ATOM     13  C   UNL     1       3.559   4.594  19.698  0.00  0.00    +0.000 A 
ATOM     14  C   UNL     1       4.557   3.873  19.016  0.00  0.00    +0.000 A 
BRANCH   9  16
ATOM     15  C   UNL     1       7.397   4.746  16.871  0.00  0.00    +0.000 C 
ATOM     16  O   UNL     1       6.348   3.902  17.326  0.00  0.00    +0.000 OA
ENDBRANCH   9  16
BRANCH  13  17
ATOM     17  O   UNL     1       2.745   4.024  20.654  0.00  0.00    +0.000 OA
ATOM     18  C   UNL     1       1.872   2.992  20.204  0.00  0.00    +0.000 C 
ENDBRANCH  13  17
ENDBRANCH   1  12
BRANCH   6  19
ATOM     19  C   UNL     1       0.257  10.815  21.156  0.00  0.00    +0.000 A 
ATOM     20  S   UNL     1       0.032  12.509  20.896  0.00  0.00    +0.000 S 
ATOM     21  C   UNL     1      -0.690  12.664  22.433  0.00  0.00    +0.000 A 
ATOM     22  N   UNL     1      -0.738  11.568  23.149  0.00  0.00    +0.000 NA
ATOM     23  C   UNL     1      -0.199  10.506  22.434  0.00  0.00    +0.000 A 
ATOM     24  C   UNL     1      -0.215   9.167  23.081  0.00  0.00    +0.000 C 
BRANCH  21  25
ATOM     25  S   UNL     1      -1.370  14.175  22.992  0.00  0.00    +0.000 S 
BRANCH  25  26
ATOM     26  C   UNL     1      -3.064  13.654  23.409  0.00  0.00    +0.000 C 
BRANCH  26  27
ATOM     27  C   UNL     1      -3.771  13.196  22.133  0.00  0.00    +0.000 C 
BRANCH  27  28
ATOM     28  C   UNL     1      -5.274  13.513  22.137  0.00  0.00    +0.000 C 
BRANCH  28  29
ATOM     29  N   UNL     1      -6.135  12.415  22.610  0.00  0.00    +0.000 NA
ATOM     30  C   UNL     1      -6.692  12.675  23.939  0.00  0.00    +0.000 C 
ATOM     31  C   UNL     1      -7.225  12.187  21.657  0.00  0.00    +0.000 C 
ENDBRANCH  28  29
ENDBRANCH  27  28
ENDBRANCH  26  27
ENDBRANCH  25  26
ENDBRANCH  21  25
ENDBRANCH   6  19
TORSDOF 9
ENDMDL
MODEL 9
REMARK VINA RESULT:      -6.1      4.500     10.642
REMARK  Name = 
REMARK  14 active torsions:
REMARK  status: ('A' for Active; 'I' for Inactive)
REMARK    1  A    between atoms: C_1  and  O_2
REMARK    2  A    between atoms: O_2  and  C_3
REMARK    3  A    between atoms: C_6  and  N_7
REMARK    4  A    between atoms: C_12  and  C_13
REMARK    5  A    between atoms: C_15  and  S_16
REMARK    6  A    between atoms: S_16  and  C_17
REMARK    7  A    between atoms: C_17  and  C_18
REMARK    8  A    between atoms: C_18  and  C_19
REMARK    9  A    between atoms: C_19  and  N_20
REMARK   10  A    between atoms: N_20  and  C_21
REMARK   11  A    between atoms: N_20  and  C_22
REMARK   12  A    between atoms: C_24  and  C_25
REMARK   13  A    between atoms: C_27  and  O_28
REMARK   14  A    between atoms: O_28  and  C_29
REMARK                            x       y       z     vdW  Elec       q    Type
REMARK                         _______ _______ _______ _____ _____    ______ ____
ROOT
ATOM      1  N   UNL     1       2.969   7.633  17.977  0.00  0.00    +0.000 N 
ATOM      2  C   UNL     1       2.161   8.221  18.952  0.00  0.00    +0.000 A 
ATOM      3  N   UNL     1       2.018   7.599  20.134  0.00  0.00    +0.000 NA
ATOM      4  C   UNL     1       1.242   8.173  21.061  0.00  0.00    +0.000 A 
ATOM      5  C   UNL     1       0.600   9.359  20.861  0.00  0.00    +0.000 A 
ATOM      6  C   UNL     1       0.793   9.952  19.627  0.00  0.00    +0.000 A 
ATOM      7  N   UNL     1       1.567   9.395  18.665  0.00  0.00    +0.000 NA
ATOM      8  H   UNL     1       2.839   8.103  17.093  0.00  0.00    +0.000 HD
ENDROOT
BRANCH   1  12
ATOM      9  C   UNL     1       3.659   3.469  17.545  0.00  0.00    +0.000 A 
ATOM     10  C   UNL     1       2.393   3.950  17.861  0.00  0.00    +0.000 A 
ATOM     11  C   UNL     1       2.176   5.319  18.001  0.00  0.00    +0.000 A 
ATOM     12  C   UNL     1       3.219   6.243  17.840  0.00  0.00    +0.000 A 
ATOM     13  C   UNL     1       4.487   5.760  17.467  0.00  0.00    +0.000 A 
ATOM     14  C   UNL     1       4.705   4.375  17.350  0.00  0.00    +0.000 A 
BRANCH   9  16
ATOM     15  C   UNL     1       3.503   1.366  18.639  0.00  0.00    +0.000 C 
ATOM     16  O   UNL     1       3.745   2.108  17.451  0.00  0.00    +0.000 OA
ENDBRANCH   9  16
BRANCH  13  17
ATOM     17  O   UNL     1       5.490   6.692  17.297  0.00  0.00    +0.000 OA
ATOM     18  C   UNL     1       6.825   6.201  17.367  0.00  0.00    +0.000 C 
ENDBRANCH  13  17
ENDBRANCH   1  12
BRANCH   6  19
ATOM     19  C   UNL     1       0.208  11.260  19.286  0.00  0.00    +0.000 A 
ATOM     20  S   UNL     1       0.974  12.733  19.766  0.00  0.00    +0.000 S 
ATOM     21  C   UNL     1      -0.221  13.637  18.951  0.00  0.00    +0.000 A 
ATOM     22  N   UNL     1      -1.175  12.937  18.388  0.00  0.00    +0.000 NA
ATOM     23  C   UNL     1      -0.944  11.579  18.574  0.00  0.00    +0.000 A 
ATOM     24  C   UNL     1      -1.910  10.631  17.956  0.00  0.00    +0.000 C 
BRANCH  21  25
ATOM     25  S   UNL     1      -0.146  15.379  18.831  0.00  0.00    +0.000 S 
BRANCH  25  26
ATOM     26  C   UNL     1      -0.328  15.850  20.581  0.00  0.00    +0.000 C 
BRANCH  26  27
ATOM     27  C   UNL     1       0.417  17.164  20.822  0.00  0.00    +0.000 C 
BRANCH  27  28
ATOM     28  C   UNL     1       1.521  17.422  19.786  0.00  0.00    +0.000 C 
BRANCH  28  29
ATOM     29  N   UNL     1       2.870  17.002  20.204  0.00  0.00    +0.000 NA
ATOM     30  C   UNL     1       3.697  16.575  19.074  0.00  0.00    +0.000 C 
ATOM     31  C   UNL     1       3.538  18.097  20.914  0.00  0.00    +0.000 C 
ENDBRANCH  28  29
ENDBRANCH  27  28
ENDBRANCH  26  27
ENDBRANCH  25  26
ENDBRANCH  21  25
ENDBRANCH   6  19
TORSDOF 9
ENDMDL
