MODEL 1
REMARK VINA RESULT:      -8.8      0.000      0.000
REMARK  Name = 
REMARK  7 active torsions:
REMARK  status: ('A' for Active; 'I' for Inactive)
REMARK    1  A    between atoms: C_2  and  O_3
REMARK    2  A    between atoms: C_2  and  C_4
REMARK    3  A    between atoms: C_9  and  C_10
REMARK    4  A    between atoms: C_10  and  C_12
REMARK    5  A    between atoms: C_13  and  C_14
REMARK    6  A    between atoms: C_19  and  C_20
REMARK    7  A    between atoms: C_25  and  O_26
REMARK                            x       y       z     vdW  Elec       q    Type
REMARK                         _______ _______ _______ _____ _____    ______ ____
ROOT
ATOM      1  C   UNL     1       2.249   8.219  18.415  0.00  0.00    +0.000 C 
ATOM      2  O   UNL     1       2.896   8.751  17.516  0.00  0.00    +0.000 OA
ENDROOT
BRANCH   1   8
ATOM      3  C   UNL     1      -0.034   9.754  21.100  0.00  0.00    +0.000 A 
ATOM      4  C   UNL     1      -0.796  10.614  20.298  0.00  0.00    +0.000 A 
ATOM      5  C   UNL     1      -0.561  10.667  18.929  0.00  0.00    +0.000 A 
ATOM      6 BR   UNL     1      -1.586  11.833  17.850  0.00  0.00    +0.000 Br
ATOM      7  C   UNL     1       0.431   9.878  18.349  0.00  0.00    +0.000 A 
ATOM      8  C   UNL     1       1.209   9.010  19.137  0.00  0.00    +0.000 A 
ATOM      9  C   UNL     1       0.943   8.929  20.515  0.00  0.00    +0.000 A 
BRANCH   3  11
ATOM     10  O   UNL     1      -0.061  10.691  23.284  0.00  0.00    +0.000 OA
ATOM     11  C   UNL     1      -0.335   9.753  22.557  0.00  0.00    +0.000 C 
BRANCH  11  12
ATOM     12  O   UNL     1      -0.848   8.592  23.016  0.00  0.00    +0.000 OA
ATOM     13  H   UNL     1      -0.388   8.259  23.816  0.00  0.00    +0.000 HD
ENDBRANCH  11  12
ENDBRANCH   3  11
BRANCH   9  14
ATOM     14  O   UNL     1       1.589   8.044  21.341  0.00  0.00    +0.000 OA
ATOM     15  H   UNL     1       2.344   7.650  20.853  0.00  0.00    +0.000 HD
ENDBRANCH   9  14
ENDBRANCH   1   8
BRANCH   1  16
ATOM     16  C   UNL     1       2.461   6.793  18.778  0.00  0.00    +0.000 C 
ATOM     17  C   UNL     1       2.757   5.912  17.810  0.00  0.00    +0.000 C 
BRANCH  17  18
ATOM     18  C   UNL     1       2.658   4.466  18.043  0.00  0.00    +0.000 A 
ATOM     19  C   UNL     1       1.487   3.957  18.624  0.00  0.00    +0.000 A 
ATOM     20  C   UNL     1       1.333   2.585  18.830  0.00  0.00    +0.000 A 
ATOM     21  C   UNL     1       2.344   1.707  18.448  0.00  0.00    +0.000 A 
ATOM     22  C   UNL     1       3.515   2.204  17.868  0.00  0.00    +0.000 A 
ATOM     23  C   UNL     1       3.701   3.582  17.663  0.00  0.00    +0.000 A 
BRANCH  23  24
ATOM     24  C   UNL     1       4.959   4.055  17.078  0.00  0.00    +0.000 A 
ATOM     25  C   UNL     1       5.407   4.307  15.794  0.00  0.00    +0.000 A 
ATOM     26  C   UNL     1       6.758   4.717  15.898  0.00  0.00    +0.000 A 
ATOM     27  C   UNL     1       7.049   4.724  17.241  0.00  0.00    +0.000 A 
ATOM     28  O   UNL     1       5.972   4.319  17.963  0.00  0.00    +0.000 OA
ENDBRANCH  23  24
ENDBRANCH  17  18
ENDBRANCH   1  16
TORSDOF 7
ENDMDL
MODEL 2
REMARK VINA RESULT:      -8.7      0.812      1.073
REMARK  Name = 
REMARK  7 active torsions:
REMARK  status: ('A' for Active; 'I' for Inactive)
REMARK    1  A    between atoms: C_2  and  O_3
REMARK    2  A    between atoms: C_2  and  C_4
REMARK    3  A    between atoms: C_9  and  C_10
REMARK    4  A    between atoms: C_10  and  C_12
REMARK    5  A    between atoms: C_13  and  C_14
REMARK    6  A    between atoms: C_19  and  C_20
REMARK    7  A    between atoms: C_25  and  O_26
REMARK                            x       y       z     vdW  Elec       q    Type
REMARK                         _______ _______ _______ _____ _____    ______ ____
ROOT
ATOM      1  C   UNL     1       2.199   8.246  18.394  0.00  0.00    +0.000 C 
ATOM      2  O   UNL     1       2.654   8.754  17.373  0.00  0.00    +0.000 OA
ENDROOT
BRANCH   1   8
ATOM      3  C   UNL     1       0.263   9.738  21.361  0.00  0.00    +0.000 A 
ATOM      4  C   UNL     1      -0.566  10.636  20.675  0.00  0.00    +0.000 A 
ATOM      5  C   UNL     1      -0.484  10.726  19.290  0.00  0.00    +0.000 A 
ATOM      6 BR   UNL     1      -1.598  11.943  18.366  0.00  0.00    +0.000 Br
ATOM      7  C   UNL     1       0.421   9.938  18.580  0.00  0.00    +0.000 A 
ATOM      8  C   UNL     1       1.264   9.032  19.251  0.00  0.00    +0.000 A 
ATOM      9  C   UNL     1       1.152   8.914  20.647  0.00  0.00    +0.000 A 
BRANCH   3  11
ATOM     10  O   UNL     1       1.087   9.621  23.587  0.00  0.00    +0.000 OA
ATOM     11  C   UNL     1       0.126   9.697  22.842  0.00  0.00    +0.000 C 
BRANCH  11  12
ATOM     12  O   UNL     1      -1.150   9.656  23.281  0.00  0.00    +0.000 OA
ATOM     13  H   UNL     1      -1.785   9.376  22.588  0.00  0.00    +0.000 HD
ENDBRANCH  11  12
ENDBRANCH   3  11
BRANCH   9  14
ATOM     14  O   UNL     1       1.867   7.993  21.370  0.00  0.00    +0.000 OA
ATOM     15  H   UNL     1       1.354   7.753  22.171  0.00  0.00    +0.000 HD
ENDBRANCH   9  14
ENDBRANCH   1   8
BRANCH   1  16
ATOM     16  C   UNL     1       2.541   6.851  18.780  0.00  0.00    +0.000 C 
ATOM     17  C   UNL     1       2.661   5.921  17.820  0.00  0.00    +0.000 C 
BRANCH  17  18
ATOM     18  C   UNL     1       2.671   4.490  18.146  0.00  0.00    +0.000 A 
ATOM     19  C   UNL     1       1.447   3.809  18.224  0.00  0.00    +0.000 A 
ATOM     20  C   UNL     1       1.411   2.440  18.494  0.00  0.00    +0.000 A 
ATOM     21  C   UNL     1       2.598   1.736  18.679  0.00  0.00    +0.000 A 
ATOM     22  C   UNL     1       3.823   2.405  18.603  0.00  0.00    +0.000 A 
ATOM     23  C   UNL     1       3.887   3.785  18.347  0.00  0.00    +0.000 A 
BRANCH  23  24
ATOM     24  C   UNL     1       5.195   4.447  18.306  0.00  0.00    +0.000 A 
ATOM     25  C   UNL     1       5.953   5.172  19.207  0.00  0.00    +0.000 A 
ATOM     26  C   UNL     1       7.129   5.576  18.531  0.00  0.00    +0.000 A 
ATOM     27  C   UNL     1       7.038   5.048  17.266  0.00  0.00    +0.000 A 
ATOM     28  O   UNL     1       5.870   4.369  17.117  0.00  0.00    +0.000 OA
ENDBRANCH  23  24
ENDBRANCH  17  18
ENDBRANCH   1  16
TORSDOF 7
ENDMDL
MODEL 3
REMARK VINA RESULT:      -8.5      2.461      2.978
REMARK  Name = 
REMARK  7 active torsions:
REMARK  status: ('A' for Active; 'I' for Inactive)
REMARK    1  A    between atoms: C_2  and  O_3
REMARK    2  A    between atoms: C_2  and  C_4
REMARK    3  A    between atoms: C_9  and  C_10
REMARK    4  A    between atoms: C_10  and  C_12
REMARK    5  A    between atoms: C_13  and  C_14
REMARK    6  A    between atoms: C_19  and  C_20
REMARK    7  A    between atoms: C_25  and  O_26
REMARK                            x       y       z     vdW  Elec       q    Type
REMARK                         _______ _______ _______ _____ _____    ______ ____
ROOT
ATOM      1  C   UNL     1       2.003   8.457  18.879  0.00  0.00    +0.000 C 
ATOM      2  O   UNL     1       2.400   8.510  17.718  0.00  0.00    +0.000 OA
ENDROOT
BRANCH   1   8
ATOM      3  C   UNL     1       0.181  11.804  19.382  0.00  0.00    +0.000 A 
ATOM      4  C   UNL     1      -0.333  11.602  20.670  0.00  0.00    +0.000 A 
ATOM      5  C   UNL     1      -0.074  10.410  21.335  0.00  0.00    +0.000 A 
ATOM      6 BR   UNL     1      -0.775  10.135  23.069  0.00  0.00    +0.000 Br
ATOM      7  C   UNL     1       0.687   9.411  20.729  0.00  0.00    +0.000 A 
ATOM      8  C   UNL     1       1.211   9.593  19.435  0.00  0.00    +0.000 A 
ATOM      9  C   UNL     1       0.980  10.815  18.780  0.00  0.00    +0.000 A 
BRANCH   3  11
ATOM     10  O   UNL     1       0.170  14.175  19.212  0.00  0.00    +0.000 OA
ATOM     11  C   UNL     1      -0.140  13.101  18.727  0.00  0.00    +0.000 C 
BRANCH  11  12
ATOM     12  O   UNL     1      -0.883  12.987  17.606  0.00  0.00    +0.000 OA
ATOM     13  H   UNL     1      -0.657  12.195  17.074  0.00  0.00    +0.000 HD
ENDBRANCH  11  12
ENDBRANCH   3  11
BRANCH   9  14
ATOM     14  O   UNL     1       1.530  11.114  17.559  0.00  0.00    +0.000 OA
ATOM     15  H   UNL     1       0.926  11.723  17.082  0.00  0.00    +0.000 HD
ENDBRANCH   9  14
ENDBRANCH   1   8
BRANCH   1  16
ATOM     16  C   UNL     1       2.271   7.269  19.733  0.00  0.00    +0.000 C 
ATOM     17  C   UNL     1       2.990   6.254  19.229  0.00  0.00    +0.000 C 
BRANCH  17  18
ATOM     18  C   UNL     1       3.013   4.941  19.885  0.00  0.00    +0.000 A 
ATOM     19  C   UNL     1       2.090   4.684  20.910  0.00  0.00    +0.000 A 
ATOM     20  C   UNL     1       2.052   3.437  21.537  0.00  0.00    +0.000 A 
ATOM     21  C   UNL     1       2.928   2.432  21.138  0.00  0.00    +0.000 A 
ATOM     22  C   UNL     1       3.852   2.677  20.118  0.00  0.00    +0.000 A 
ATOM     23  C   UNL     1       3.922   3.928  19.482  0.00  0.00    +0.000 A 
BRANCH  23  24
ATOM     24  C   UNL     1       4.928   4.146  18.437  0.00  0.00    +0.000 A 
ATOM     25  C   UNL     1       4.931   4.094  17.056  0.00  0.00    +0.000 A 
ATOM     26  C   UNL     1       6.252   4.374  16.631  0.00  0.00    +0.000 A 
ATOM     27  C   UNL     1       6.974   4.612  17.776  0.00  0.00    +0.000 A 
ATOM     28  O   UNL     1       6.186   4.470  18.874  0.00  0.00    +0.000 OA
ENDBRANCH  23  24
ENDBRANCH  17  18
ENDBRANCH   1  16
TORSDOF 7
ENDMDL
MODEL 4
REMARK VINA RESULT:      -8.5      2.225      2.634
REMARK  Name = 
REMARK  7 active torsions:
REMARK  status: ('A' for Active; 'I' for Inactive)
REMARK    1  A    between atoms: C_2  and  O_3
REMARK    2  A    between atoms: C_2  and  C_4
REMARK    3  A    between atoms: C_9  and  C_10
REMARK    4  A    between atoms: C_10  and  C_12
REMARK    5  A    between atoms: C_13  and  C_14
REMARK    6  A    between atoms: C_19  and  C_20
REMARK    7  A    between atoms: C_25  and  O_26
REMARK                            x       y       z     vdW  Elec       q    Type
REMARK                         _______ _______ _______ _____ _____    ______ ____
ROOT
ATOM      1  C   UNL     1       2.273   8.316  18.148  0.00  0.00    +0.000 C 
ATOM      2  O   UNL     1       2.801   8.623  17.082  0.00  0.00    +0.000 OA
ENDROOT
BRANCH   1   8
ATOM      3  C   UNL     1       0.795  11.628  19.425  0.00  0.00    +0.000 A 
ATOM      4  C   UNL     1       0.262  11.193  20.646  0.00  0.00    +0.000 A 
ATOM      5  C   UNL     1       0.401   9.863  21.022  0.00  0.00    +0.000 A 
ATOM      6 BR   UNL     1      -0.325   9.277  22.667  0.00  0.00    +0.000 Br
ATOM      7  C   UNL     1       1.058   8.956  20.192  0.00  0.00    +0.000 A 
ATOM      8  C   UNL     1       1.598   9.371  18.961  0.00  0.00    +0.000 A 
ATOM      9  C   UNL     1       1.491  10.725  18.600  0.00  0.00    +0.000 A 
BRANCH   3  11
ATOM     10  O   UNL     1       0.988  13.966  19.806  0.00  0.00    +0.000 OA
ATOM     11  C   UNL     1       0.605  13.063  19.083  0.00  0.00    +0.000 C 
BRANCH  11  12
ATOM     12  O   UNL     1      -0.108  13.276  17.956  0.00  0.00    +0.000 OA
ATOM     13  H   UNL     1       0.302  13.939  17.361  0.00  0.00    +0.000 HD
ENDBRANCH  11  12
ENDBRANCH   3  11
BRANCH   9  14
ATOM     14  O   UNL     1       2.068  11.235  17.464  0.00  0.00    +0.000 OA
ATOM     15  H   UNL     1       1.581  10.895  16.683  0.00  0.00    +0.000 HD
ENDBRANCH   9  14
ENDBRANCH   1   8
BRANCH   1  16
ATOM     16  C   UNL     1       2.266   6.910  18.630  0.00  0.00    +0.000 C 
ATOM     17  C   UNL     1       3.038   6.005  18.009  0.00  0.00    +0.000 C 
BRANCH  17  18
ATOM     18  C   UNL     1       2.838   4.566  18.216  0.00  0.00    +0.000 A 
ATOM     19  C   UNL     1       1.671   4.135  18.864  0.00  0.00    +0.000 A 
ATOM     20  C   UNL     1       1.420   2.774  19.049  0.00  0.00    +0.000 A 
ATOM     21  C   UNL     1       2.329   1.831  18.579  0.00  0.00    +0.000 A 
ATOM     22  C   UNL     1       3.495   2.248  17.932  0.00  0.00    +0.000 A 
ATOM     23  C   UNL     1       3.778   3.613  17.746  0.00  0.00    +0.000 A 
BRANCH  23  24
ATOM     24  C   UNL     1       5.029   4.001  17.087  0.00  0.00    +0.000 A 
ATOM     25  C   UNL     1       5.436   4.157  15.774  0.00  0.00    +0.000 A 
ATOM     26  C   UNL     1       6.803   4.521  15.803  0.00  0.00    +0.000 A 
ATOM     27  C   UNL     1       7.146   4.598  17.131  0.00  0.00    +0.000 A 
ATOM     28  O   UNL     1       6.084   4.279  17.916  0.00  0.00    +0.000 OA
ENDBRANCH  23  24
ENDBRANCH  17  18
ENDBRANCH   1  16
TORSDOF 7
ENDMDL
MODEL 5
REMARK VINA RESULT:      -8.4      2.836      8.245
REMARK  Name = 
REMARK  7 active torsions:
REMARK  status: ('A' for Active; 'I' for Inactive)
REMARK    1  A    between atoms: C_2  and  O_3
REMARK    2  A    between atoms: C_2  and  C_4
REMARK    3  A    between atoms: C_9  and  C_10
REMARK    4  A    between atoms: C_10  and  C_12
REMARK    5  A    between atoms: C_13  and  C_14
REMARK    6  A    between atoms: C_19  and  C_20
REMARK    7  A    between atoms: C_25  and  O_26
REMARK                            x       y       z     vdW  Elec       q    Type
REMARK                         _______ _______ _______ _____ _____    ______ ____
ROOT
ATOM      1  C   UNL     1       2.951   7.627  17.948  0.00  0.00    +0.000 C 
ATOM      2  O   UNL     1       3.110   8.534  17.135  0.00  0.00    +0.000 OA
ENDROOT
BRANCH   1   8
ATOM      3  C   UNL     1       5.573   4.902  17.255  0.00  0.00    +0.000 A 
ATOM      4  C   UNL     1       4.774   3.761  17.410  0.00  0.00    +0.000 A 
ATOM      5  C   UNL     1       3.427   3.901  17.721  0.00  0.00    +0.000 A 
ATOM      6 BR   UNL     1       2.353   2.361  17.936  0.00  0.00    +0.000 Br
ATOM      7  C   UNL     1       2.866   5.167  17.887  0.00  0.00    +0.000 A 
ATOM      8  C   UNL     1       3.651   6.325  17.739  0.00  0.00    +0.000 A 
ATOM      9  C   UNL     1       5.004   6.182  17.386  0.00  0.00    +0.000 A 
BRANCH   3  11
ATOM     10  O   UNL     1       7.489   4.979  15.851  0.00  0.00    +0.000 OA
ATOM     11  C   UNL     1       7.007   4.678  16.929  0.00  0.00    +0.000 C 
BRANCH  11  12
ATOM     12  O   UNL     1       7.700   4.029  17.889  0.00  0.00    +0.000 OA
ATOM     13  H   UNL     1       8.591   3.745  17.593  0.00  0.00    +0.000 HD
ENDBRANCH  11  12
ENDBRANCH   3  11
BRANCH   9  14
ATOM     14  O   UNL     1       5.818   7.256  17.130  0.00  0.00    +0.000 OA
ATOM     15  H   UNL     1       5.766   7.472  16.175  0.00  0.00    +0.000 HD
ENDBRANCH   9  14
ENDBRANCH   1   8
BRANCH   1  16
ATOM     16  C   UNL     1       2.097   7.809  19.151  0.00  0.00    +0.000 C 
ATOM     17  C   UNL     1       1.329   8.906  19.244  0.00  0.00    +0.000 C 
BRANCH  17  18
ATOM     18  C   UNL     1       0.726   9.303  20.522  0.00  0.00    +0.000 A 
ATOM     19  C   UNL     1       1.256   8.777  21.710  0.00  0.00    +0.000 A 
ATOM     20  C   UNL     1       0.738   9.156  22.949  0.00  0.00    +0.000 A 
ATOM     21  C   UNL     1      -0.308  10.073  23.014  0.00  0.00    +0.000 A 
ATOM     22  C   UNL     1      -0.844  10.603  21.838  0.00  0.00    +0.000 A 
ATOM     23  C   UNL     1      -0.351  10.226  20.576  0.00  0.00    +0.000 A 
BRANCH  23  24
ATOM     24  C   UNL     1      -0.966  10.789  19.370  0.00  0.00    +0.000 A 
ATOM     25  C   UNL     1      -1.839  10.317  18.407  0.00  0.00    +0.000 A 
ATOM     26  C   UNL     1      -2.020  11.357  17.464  0.00  0.00    +0.000 A 
ATOM     27  C   UNL     1      -1.273  12.416  17.922  0.00  0.00    +0.000 A 
ATOM     28  O   UNL     1      -0.627  12.081  19.069  0.00  0.00    +0.000 OA
ENDBRANCH  23  24
ENDBRANCH  17  18
ENDBRANCH   1  16
TORSDOF 7
ENDMDL
MODEL 6
REMARK VINA RESULT:      -8.4      1.135      1.388
REMARK  Name = 
REMARK  7 active torsions:
REMARK  status: ('A' for Active; 'I' for Inactive)
REMARK    1  A    between atoms: C_2  and  O_3
REMARK    2  A    between atoms: C_2  and  C_4
REMARK    3  A    between atoms: C_9  and  C_10
REMARK    4  A    between atoms: C_10  and  C_12
REMARK    5  A    between atoms: C_13  and  C_14
REMARK    6  A    between atoms: C_19  and  C_20
REMARK    7  A    between atoms: C_25  and  O_26
REMARK                            x       y       z     vdW  Elec       q    Type
REMARK                         _______ _______ _______ _____ _____    ______ ____
ROOT
ATOM      1  C   UNL     1       1.956   8.668  18.182  0.00  0.00    +0.000 C 
ATOM      2  O   UNL     1       2.648   9.344  17.425  0.00  0.00    +0.000 OA
ENDROOT
BRANCH   1   8
ATOM      3  C   UNL     1       0.193   9.830  21.395  0.00  0.00    +0.000 A 
ATOM      4  C   UNL     1      -0.688  10.774  20.852  0.00  0.00    +0.000 A 
ATOM      5  C   UNL     1      -0.695  11.000  19.481  0.00  0.00    +0.000 A 
ATOM      6 BR   UNL     1      -1.880  12.279  18.751  0.00  0.00    +0.000 Br
ATOM      7  C   UNL     1       0.172  10.301  18.643  0.00  0.00    +0.000 A 
ATOM      8  C   UNL     1       1.067   9.351  19.168  0.00  0.00    +0.000 A 
ATOM      9  C   UNL     1       1.045   9.095  20.550  0.00  0.00    +0.000 A 
BRANCH   3  11
ATOM     10  O   UNL     1       1.158   9.605  23.555  0.00  0.00    +0.000 OA
ATOM     11  C   UNL     1       0.151   9.643  22.871  0.00  0.00    +0.000 C 
BRANCH  11  12
ATOM     12  O   UNL     1      -1.085   9.426  23.368  0.00  0.00    +0.000 OA
ATOM     13  H   UNL     1      -1.306  10.017  24.119  0.00  0.00    +0.000 HD
ENDBRANCH  11  12
ENDBRANCH   3  11
BRANCH   9  14
ATOM     14  O   UNL     1       1.816   8.122  21.134  0.00  0.00    +0.000 OA
ATOM     15  H   UNL     1       1.890   7.364  20.514  0.00  0.00    +0.000 HD
ENDBRANCH   9  14
ENDBRANCH   1   8
BRANCH   1  16
ATOM     16  C   UNL     1       1.966   7.183  18.118  0.00  0.00    +0.000 C 
ATOM     17  C   UNL     1       3.084   6.524  18.459  0.00  0.00    +0.000 C 
BRANCH  17  18
ATOM     18  C   UNL     1       3.267   5.109  18.112  0.00  0.00    +0.000 A 
ATOM     19  C   UNL     1       2.130   4.310  17.920  0.00  0.00    +0.000 A 
ATOM     20  C   UNL     1       2.256   2.969  17.553  0.00  0.00    +0.000 A 
ATOM     21  C   UNL     1       3.520   2.417  17.364  0.00  0.00    +0.000 A 
ATOM     22  C   UNL     1       4.659   3.203  17.552  0.00  0.00    +0.000 A 
ATOM     23  C   UNL     1       4.561   4.552  17.937  0.00  0.00    +0.000 A 
BRANCH  23  24
ATOM     24  C   UNL     1       5.787   5.327  18.150  0.00  0.00    +0.000 A 
ATOM     25  C   UNL     1       6.437   6.337  17.465  0.00  0.00    +0.000 A 
ATOM     26  C   UNL     1       7.616   6.638  18.188  0.00  0.00    +0.000 A 
ATOM     27  C   UNL     1       7.603   5.818  19.291  0.00  0.00    +0.000 A 
ATOM     28  O   UNL     1       6.505   5.017  19.275  0.00  0.00    +0.000 OA
ENDBRANCH  23  24
ENDBRANCH  17  18
ENDBRANCH   1  16
TORSDOF 7
ENDMDL
MODEL 7
REMARK VINA RESULT:      -8.4      2.099      2.600
REMARK  Name = 
REMARK  7 active torsions:
REMARK  status: ('A' for Active; 'I' for Inactive)
REMARK    1  A    between atoms: C_2  and  O_3
REMARK    2  A    between atoms: C_2  and  C_4
REMARK    3  A    between atoms: C_9  and  C_10
REMARK    4  A    between atoms: C_10  and  C_12
REMARK    5  A    between atoms: C_13  and  C_14
REMARK    6  A    between atoms: C_19  and  C_20
REMARK    7  A    between atoms: C_25  and  O_26
REMARK                            x       y       z     vdW  Elec       q    Type
REMARK                         _______ _______ _______ _____ _____    ______ ____
ROOT
ATOM      1  C   UNL     1       2.251   8.241  18.705  0.00  0.00    +0.000 C 
ATOM      2  O   UNL     1       2.947   8.727  17.817  0.00  0.00    +0.000 OA
ENDROOT
BRANCH   1   8
ATOM      3  C   UNL     1      -0.602  10.719  19.412  0.00  0.00    +0.000 A 
ATOM      4  C   UNL     1      -0.713  10.561  20.799  0.00  0.00    +0.000 A 
ATOM      5  C   UNL     1       0.131   9.678  21.461  0.00  0.00    +0.000 A 
ATOM      6 BR   UNL     1      -0.025   9.461  23.333  0.00  0.00    +0.000 Br
ATOM      7  C   UNL     1       1.082   8.942  20.755  0.00  0.00    +0.000 A 
ATOM      8  C   UNL     1       1.208   9.083  19.361  0.00  0.00    +0.000 A 
ATOM      9  C   UNL     1       0.380  10.007  18.699  0.00  0.00    +0.000 A 
BRANCH   3  11
ATOM     10  O   UNL     1      -2.739  11.667  18.986  0.00  0.00    +0.000 OA
ATOM     11  C   UNL     1      -1.540  11.677  18.767  0.00  0.00    +0.000 C 
BRANCH  11  12
ATOM     12  O   UNL     1      -0.965  12.489  17.855  0.00  0.00    +0.000 OA
ATOM     13  H   UNL     1      -1.566  12.721  17.115  0.00  0.00    +0.000 HD
ENDBRANCH  11  12
ENDBRANCH   3  11
BRANCH   9  14
ATOM     14  O   UNL     1       0.498  10.276  17.359  0.00  0.00    +0.000 OA
ATOM     15  H   UNL     1       0.810   9.467  16.901  0.00  0.00    +0.000 HD
ENDBRANCH   9  14
ENDBRANCH   1   8
BRANCH   1  16
ATOM     16  C   UNL     1       2.408   6.822  19.120  0.00  0.00    +0.000 C 
ATOM     17  C   UNL     1       2.729   5.905  18.195  0.00  0.00    +0.000 C 
BRANCH  17  18
ATOM     18  C   UNL     1       2.581   4.469  18.464  0.00  0.00    +0.000 A 
ATOM     19  C   UNL     1       1.375   4.009  19.014  0.00  0.00    +0.000 A 
ATOM     20  C   UNL     1       1.175   2.648  19.252  0.00  0.00    +0.000 A 
ATOM     21  C   UNL     1       2.175   1.734  18.934  0.00  0.00    +0.000 A 
ATOM     22  C   UNL     1       3.380   2.181  18.386  0.00  0.00    +0.000 A 
ATOM     23  C   UNL     1       3.613   3.547  18.151  0.00  0.00    +0.000 A 
BRANCH  23  24
ATOM     24  C   UNL     1       4.905   3.970  17.601  0.00  0.00    +0.000 A 
ATOM     25  C   UNL     1       5.407   4.176  16.330  0.00  0.00    +0.000 A 
ATOM     26  C   UNL     1       6.765   4.550  16.474  0.00  0.00    +0.000 A 
ATOM     27  C   UNL     1       7.006   4.582  17.826  0.00  0.00    +0.000 A 
ATOM     28  O   UNL     1       5.892   4.226  18.517  0.00  0.00    +0.000 OA
ENDBRANCH  23  24
ENDBRANCH  17  18
ENDBRANCH   1  16
TORSDOF 7
ENDMDL
MODEL 8
REMARK VINA RESULT:      -8.3      2.334      2.853
REMARK  Name = 
REMARK  7 active torsions:
REMARK  status: ('A' for Active; 'I' for Inactive)
REMARK    1  A    between atoms: C_2  and  O_3
REMARK    2  A    between atoms: C_2  and  C_4
REMARK    3  A    between atoms: C_9  and  C_10
REMARK    4  A    between atoms: C_10  and  C_12
REMARK    5  A    between atoms: C_13  and  C_14
REMARK    6  A    between atoms: C_19  and  C_20
REMARK    7  A    between atoms: C_25  and  O_26
REMARK                            x       y       z     vdW  Elec       q    Type
REMARK                         _______ _______ _______ _____ _____    ______ ____
ROOT
ATOM      1  C   UNL     1       2.158   8.549  18.210  0.00  0.00    +0.000 C 
ATOM      2  O   UNL     1       2.565   8.880  17.100  0.00  0.00    +0.000 OA
ENDROOT
BRANCH   1   8
ATOM      3  C   UNL     1       0.743  11.810  19.675  0.00  0.00    +0.000 A 
ATOM      4  C   UNL     1       0.231  11.323  20.885  0.00  0.00    +0.000 A 
ATOM      5  C   UNL     1       0.364   9.975  21.195  0.00  0.00    +0.000 A 
ATOM      6 BR   UNL     1      -0.333   9.318  22.825  0.00  0.00    +0.000 Br
ATOM      7  C   UNL     1       0.994   9.102  20.309  0.00  0.00    +0.000 A 
ATOM      8  C   UNL     1       1.512   9.570  19.087  0.00  0.00    +0.000 A 
ATOM      9  C   UNL     1       1.412  10.941  18.794  0.00  0.00    +0.000 A 
BRANCH   3  11
ATOM     10  O   UNL     1      -0.006  13.678  18.411  0.00  0.00    +0.000 OA
ATOM     11  C   UNL     1       0.561  13.262  19.406  0.00  0.00    +0.000 C 
BRANCH  11  12
ATOM     12  O   UNL     1       1.158  14.073  20.305  0.00  0.00    +0.000 OA
ATOM     13  H   UNL     1       1.038  15.025  20.104  0.00  0.00    +0.000 HD
ENDBRANCH  11  12
ENDBRANCH   3  11
BRANCH   9  14
ATOM     14  O   UNL     1       1.970  11.499  17.671  0.00  0.00    +0.000 OA
ATOM     15  H   UNL     1       1.476  11.184  16.884  0.00  0.00    +0.000 HD
ENDBRANCH   9  14
ENDBRANCH   1   8
BRANCH   1  16
ATOM     16  C   UNL     1       2.268   7.146  18.687  0.00  0.00    +0.000 C 
ATOM     17  C   UNL     1       3.005   6.274  17.981  0.00  0.00    +0.000 C 
BRANCH  17  18
ATOM     18  C   UNL     1       2.893   4.828  18.207  0.00  0.00    +0.000 A 
ATOM     19  C   UNL     1       1.617   4.247  18.229  0.00  0.00    +0.000 A 
ATOM     20  C   UNL     1       1.465   2.870  18.403  0.00  0.00    +0.000 A 
ATOM     21  C   UNL     1       2.588   2.060  18.546  0.00  0.00    +0.000 A 
ATOM     22  C   UNL     1       3.864   2.628  18.525  0.00  0.00    +0.000 A 
ATOM     23  C   UNL     1       4.044   4.013  18.367  0.00  0.00    +0.000 A 
BRANCH  23  24
ATOM     24  C   UNL     1       5.403   4.565  18.381  0.00  0.00    +0.000 A 
ATOM     25  C   UNL     1       6.141   5.323  19.271  0.00  0.00    +0.000 A 
ATOM     26  C   UNL     1       7.400   5.562  18.669  0.00  0.00    +0.000 A 
ATOM     27  C   UNL     1       7.371   4.910  17.460  0.00  0.00    +0.000 A 
ATOM     28  O   UNL     1       6.167   4.309  17.272  0.00  0.00    +0.000 OA
ENDBRANCH  23  24
ENDBRANCH  17  18
ENDBRANCH   1  16
TORSDOF 7
ENDMDL
MODEL 9
REMARK VINA RESULT:      -8.3      2.386      2.884
REMARK  Name = 
REMARK  7 active torsions:
REMARK  status: ('A' for Active; 'I' for Inactive)
REMARK    1  A    between atoms: C_2  and  O_3
REMARK    2  A    between atoms: C_2  and  C_4
REMARK    3  A    between atoms: C_9  and  C_10
REMARK    4  A    between atoms: C_10  and  C_12
REMARK    5  A    between atoms: C_13  and  C_14
REMARK    6  A    between atoms: C_19  and  C_20
REMARK    7  A    between atoms: C_25  and  O_26
REMARK                            x       y       z     vdW  Elec       q    Type
REMARK                         _______ _______ _______ _____ _____    ______ ____
ROOT
ATOM      1  C   UNL     1       1.978   8.407  18.614  0.00  0.00    +0.000 C 
ATOM      2  O   UNL     1       2.299   8.707  17.467  0.00  0.00    +0.000 OA
ENDROOT
BRANCH   1   8
ATOM      3  C   UNL     1      -0.864  10.843  19.490  0.00  0.00    +0.000 A 
ATOM      4  C   UNL     1      -0.890  10.685  20.882  0.00  0.00    +0.000 A 
ATOM      5  C   UNL     1       0.006   9.815  21.492  0.00  0.00    +0.000 A 
ATOM      6 BR   UNL     1      -0.034   9.599  23.370  0.00  0.00    +0.000 Br
ATOM      7  C   UNL     1       0.924   9.093  20.731  0.00  0.00    +0.000 A 
ATOM      8  C   UNL     1       0.964   9.235  19.331  0.00  0.00    +0.000 A 
ATOM      9  C   UNL     1       0.084  10.144  18.720  0.00  0.00    +0.000 A 
BRANCH   3  11
ATOM     10  O   UNL     1      -2.694  11.434  18.093  0.00  0.00    +0.000 OA
ATOM     11  C   UNL     1      -1.855  11.786  18.903  0.00  0.00    +0.000 C 
BRANCH  11  12
ATOM     12  O   UNL     1      -1.681  13.073  19.272  0.00  0.00    +0.000 OA
ATOM     13  H   UNL     1      -2.253  13.337  20.024  0.00  0.00    +0.000 HD
ENDBRANCH  11  12
ENDBRANCH   3  11
BRANCH   9  14
ATOM     14  O   UNL     1       0.117  10.414  17.375  0.00  0.00    +0.000 OA
ATOM     15  H   UNL     1       1.011  10.200  17.032  0.00  0.00    +0.000 HD
ENDBRANCH   9  14
ENDBRANCH   1   8
BRANCH   1  16
ATOM     16  C   UNL     1       2.560   7.219  19.293  0.00  0.00    +0.000 C 
ATOM     17  C   UNL     1       2.250   5.995  18.841  0.00  0.00    +0.000 C 
BRANCH  17  18
ATOM     18  C   UNL     1       2.518   4.797  19.647  0.00  0.00    +0.000 A 
ATOM     19  C   UNL     1       1.728   4.558  20.781  0.00  0.00    +0.000 A 
ATOM     20  C   UNL     1       1.923   3.413  21.555  0.00  0.00    +0.000 A 
ATOM     21  C   UNL     1       2.902   2.491  21.197  0.00  0.00    +0.000 A 
ATOM     22  C   UNL     1       3.695   2.719  20.070  0.00  0.00    +0.000 A 
ATOM     23  C   UNL     1       3.530   3.871  19.281  0.00  0.00    +0.000 A 
BRANCH  23  24
ATOM     24  C   UNL     1       4.406   4.080  18.124  0.00  0.00    +0.000 A 
ATOM     25  C   UNL     1       4.287   3.889  16.760  0.00  0.00    +0.000 A 
ATOM     26  C   UNL     1       5.525   4.253  16.179  0.00  0.00    +0.000 A 
ATOM     27  C   UNL     1       6.319   4.676  17.217  0.00  0.00    +0.000 A 
ATOM     28  O   UNL     1       5.656   4.569  18.398  0.00  0.00    +0.000 OA
ENDBRANCH  23  24
ENDBRANCH  17  18
ENDBRANCH   1  16
TORSDOF 7
ENDMDL
