MODEL 1
REMARK VINA RESULT:      -8.8      0.000      0.000
REMARK  Name = 
REMARK  5 active torsions:
REMARK  status: ('A' for Active; 'I' for Inactive)
REMARK    1  A    between atoms: C_2  and  O_3
REMARK    2  A    between atoms: C_2  and  C_4
REMARK    3  A    between atoms: C_8  and  C_9
REMARK    4  A    between atoms: C_9  and  O_11
REMARK    5  A    between atoms: O_11  and  C_12
REMARK                            x       y       z     vdW  Elec       q    Type
REMARK                         _______ _______ _______ _____ _____    ______ ____
ROOT
ATOM      1  C   UNL     1       6.684   4.538  16.072  0.00  0.00    +0.000 C 
ATOM      2  O   UNL     1       7.579   5.009  16.759  0.00  0.00    +0.000 OA
ENDROOT
BRANCH   1   7
ATOM      3  C   UNL     1       6.147   3.544  12.422  0.00  0.00    +0.000 A 
ATOM      4  C   UNL     1       7.078   4.378  11.789  0.00  0.00    +0.000 A 
ATOM      5  C   UNL     1       7.858   5.246  12.553  0.00  0.00    +0.000 A 
ATOM      6  C   UNL     1       7.696   5.294  13.940  0.00  0.00    +0.000 A 
ATOM      7  C   UNL     1       6.742   4.488  14.580  0.00  0.00    +0.000 A 
ATOM      8  C   UNL     1       5.963   3.611  13.811  0.00  0.00    +0.000 A 
BRANCH   3  10
ATOM      9  O   UNL     1       5.740   1.493  11.306  0.00  0.00    +0.000 OA
ATOM     10  C   UNL     1       5.323   2.581  11.646  0.00  0.00    +0.000 C 
BRANCH  10  11
ATOM     11  O   UNL     1       4.100   3.050  11.324  0.00  0.00    +0.000 OA
ATOM     12  H   UNL     1       3.346   2.526  11.650  0.00  0.00    +0.000 HD
ENDBRANCH  10  11
ENDBRANCH   3  10
ENDBRANCH   1   7
BRANCH   1  13
ATOM     13  O   UNL     1       5.563   3.890  16.552  0.00  0.00    +0.000 OA
BRANCH  13  14
ATOM     14  C   UNL     1       4.508   4.730  16.989  0.00  0.00    +0.000 A 
ATOM     15  C   UNL     1       4.692   6.119  17.022  0.00  0.00    +0.000 A 
ATOM     16  C   UNL     1       3.742   6.933  17.625  0.00  0.00    +0.000 A 
ATOM     17  C   UNL     1       2.641   6.360  18.254  0.00  0.00    +0.000 A 
ATOM     18  C   UNL     1       2.461   4.968  18.269  0.00  0.00    +0.000 A 
ATOM     19  C   UNL     1       1.399   4.410  18.996  0.00  0.00    +0.000 A 
ATOM     20  C   UNL     1       1.197   3.032  19.022  0.00  0.00    +0.000 A 
ATOM     21  C   UNL     1       2.021   2.200  18.273  0.00  0.00    +0.000 A 
ATOM     22  C   UNL     1       3.099   2.739  17.560  0.00  0.00    +0.000 A 
ATOM     23  C   UNL     1       3.371   4.126  17.584  0.00  0.00    +0.000 A 
ENDBRANCH  13  14
ENDBRANCH   1  13
TORSDOF 5
ENDMDL
MODEL 2
REMARK VINA RESULT:      -8.4      0.966      1.351
REMARK  Name = 
REMARK  5 active torsions:
REMARK  status: ('A' for Active; 'I' for Inactive)
REMARK    1  A    between atoms: C_2  and  O_3
REMARK    2  A    between atoms: C_2  and  C_4
REMARK    3  A    between atoms: C_8  and  C_9
REMARK    4  A    between atoms: C_9  and  O_11
REMARK    5  A    between atoms: O_11  and  C_12
REMARK                            x       y       z     vdW  Elec       q    Type
REMARK                         _______ _______ _______ _____ _____    ______ ____
ROOT
ATOM      1  C   UNL     1       5.438   4.287  16.520  0.00  0.00    +0.000 C 
ATOM      2  O   UNL     1       6.193   4.336  17.480  0.00  0.00    +0.000 OA
ENDROOT
BRANCH   1   7
ATOM      3  C   UNL     1       5.901   3.545  12.800  0.00  0.00    +0.000 A 
ATOM      4  C   UNL     1       7.028   4.330  12.520  0.00  0.00    +0.000 A 
ATOM      5  C   UNL     1       7.612   5.084  13.537  0.00  0.00    +0.000 A 
ATOM      6  C   UNL     1       7.065   5.069  14.822  0.00  0.00    +0.000 A 
ATOM      7  C   UNL     1       5.916   4.314  15.104  0.00  0.00    +0.000 A 
ATOM      8  C   UNL     1       5.333   3.551  14.082  0.00  0.00    +0.000 A 
BRANCH   3  10
ATOM      9  O   UNL     1       4.227   3.006  11.211  0.00  0.00    +0.000 OA
ATOM     10  C   UNL     1       5.271   2.701  11.752  0.00  0.00    +0.000 C 
BRANCH  10  11
ATOM     11  O   UNL     1       5.940   1.557  11.500  0.00  0.00    +0.000 OA
ATOM     12  H   UNL     1       5.923   1.250  10.577  0.00  0.00    +0.000 HD
ENDBRANCH  10  11
ENDBRANCH   3  10
ENDBRANCH   1   7
BRANCH   1  13
ATOM     13  O   UNL     1       4.074   4.084  16.584  0.00  0.00    +0.000 OA
BRANCH  13  14
ATOM     14  C   UNL     1       3.371   4.917  17.492  0.00  0.00    +0.000 A 
ATOM     15  C   UNL     1       3.636   6.293  17.522  0.00  0.00    +0.000 A 
ATOM     16  C   UNL     1       3.100   7.083  18.530  0.00  0.00    +0.000 A 
ATOM     17  C   UNL     1       2.354   6.493  19.546  0.00  0.00    +0.000 A 
ATOM     18  C   UNL     1       2.114   5.111  19.557  0.00  0.00    +0.000 A 
ATOM     19  C   UNL     1       1.446   4.527  20.644  0.00  0.00    +0.000 A 
ATOM     20  C   UNL     1       1.192   3.158  20.676  0.00  0.00    +0.000 A 
ATOM     21  C   UNL     1       1.551   2.365  19.591  0.00  0.00    +0.000 A 
ATOM     22  C   UNL     1       2.237   2.928  18.508  0.00  0.00    +0.000 A 
ATOM     23  C   UNL     1       2.576   4.301  18.491  0.00  0.00    +0.000 A 
ENDBRANCH  13  14
ENDBRANCH   1  13
TORSDOF 5
ENDMDL
MODEL 3
REMARK VINA RESULT:      -8.4      0.975      2.375
REMARK  Name = 
REMARK  5 active torsions:
REMARK  status: ('A' for Active; 'I' for Inactive)
REMARK    1  A    between atoms: C_2  and  O_3
REMARK    2  A    between atoms: C_2  and  C_4
REMARK    3  A    between atoms: C_8  and  C_9
REMARK    4  A    between atoms: C_9  and  O_11
REMARK    5  A    between atoms: O_11  and  C_12
REMARK                            x       y       z     vdW  Elec       q    Type
REMARK                         _______ _______ _______ _____ _____    ______ ____
ROOT
ATOM      1  C   UNL     1       5.859   4.585  16.259  0.00  0.00    +0.000 C 
ATOM      2  O   UNL     1       6.682   4.448  17.152  0.00  0.00    +0.000 OA
ENDROOT
BRANCH   1   7
ATOM      3  C   UNL     1       5.964   3.525  12.589  0.00  0.00    +0.000 A 
ATOM      4  C   UNL     1       7.074   4.254  12.142  0.00  0.00    +0.000 A 
ATOM      5  C   UNL     1       7.763   5.075  13.034  0.00  0.00    +0.000 A 
ATOM      6  C   UNL     1       7.337   5.181  14.360  0.00  0.00    +0.000 A 
ATOM      7  C   UNL     1       6.205   4.482  14.808  0.00  0.00    +0.000 A 
ATOM      8  C   UNL     1       5.516   3.652  13.912  0.00  0.00    +0.000 A 
BRANCH   3  10
ATOM      9  O   UNL     1       4.151   2.907  11.193  0.00  0.00    +0.000 OA
ATOM     10  C   UNL     1       5.224   2.613  11.678  0.00  0.00    +0.000 C 
BRANCH  10  11
ATOM     11  O   UNL     1       5.835   1.426  11.485  0.00  0.00    +0.000 OA
ATOM     12  H   UNL     1       5.339   0.640  11.777  0.00  0.00    +0.000 HD
ENDBRANCH  10  11
ENDBRANCH   3  10
ENDBRANCH   1   7
BRANCH   1  13
ATOM     13  O   UNL     1       4.498   4.734  16.440  0.00  0.00    +0.000 OA
BRANCH  13  14
ATOM     14  C   UNL     1       3.932   3.975  17.495  0.00  0.00    +0.000 A 
ATOM     15  C   UNL     1       3.865   2.579  17.390  0.00  0.00    +0.000 A 
ATOM     16  C   UNL     1       3.144   1.845  18.322  0.00  0.00    +0.000 A 
ATOM     17  C   UNL     1       2.436   2.504  19.322  0.00  0.00    +0.000 A 
ATOM     18  C   UNL     1       2.455   3.904  19.418  0.00  0.00    +0.000 A 
ATOM     19  C   UNL     1       1.652   4.550  20.370  0.00  0.00    +0.000 A 
ATOM     20  C   UNL     1       1.658   5.937  20.488  0.00  0.00    +0.000 A 
ATOM     21  C   UNL     1       2.513   6.693  19.693  0.00  0.00    +0.000 A 
ATOM     22  C   UNL     1       3.304   6.067  18.723  0.00  0.00    +0.000 A 
ATOM     23  C   UNL     1       3.255   4.666  18.532  0.00  0.00    +0.000 A 
ENDBRANCH  13  14
ENDBRANCH   1  13
TORSDOF 5
ENDMDL
MODEL 4
REMARK VINA RESULT:      -8.3      2.930      5.183
REMARK  Name = 
REMARK  5 active torsions:
REMARK  status: ('A' for Active; 'I' for Inactive)
REMARK    1  A    between atoms: C_2  and  O_3
REMARK    2  A    between atoms: C_2  and  C_4
REMARK    3  A    between atoms: C_8  and  C_9
REMARK    4  A    between atoms: C_9  and  O_11
REMARK    5  A    between atoms: O_11  and  C_12
REMARK                            x       y       z     vdW  Elec       q    Type
REMARK                         _______ _______ _______ _____ _____    ______ ____
ROOT
ATOM      1  C   UNL     1       3.832   3.120  17.477  0.00  0.00    +0.000 C 
ATOM      2  O   UNL     1       3.851   1.899  17.524  0.00  0.00    +0.000 OA
ENDROOT
BRANCH   1   7
ATOM      3  C   UNL     1       6.912   5.320  17.999  0.00  0.00    +0.000 A 
ATOM      4  C   UNL     1       7.235   5.630  16.671  0.00  0.00    +0.000 A 
ATOM      5  C   UNL     1       6.453   5.120  15.635  0.00  0.00    +0.000 A 
ATOM      6  C   UNL     1       5.366   4.291  15.922  0.00  0.00    +0.000 A 
ATOM      7  C   UNL     1       5.056   3.946  17.246  0.00  0.00    +0.000 A 
ATOM      8  C   UNL     1       5.839   4.465  18.288  0.00  0.00    +0.000 A 
BRANCH   3  10
ATOM      9  O   UNL     1       7.749   5.329  20.217  0.00  0.00    +0.000 OA
ATOM     10  C   UNL     1       7.699   5.872  19.132  0.00  0.00    +0.000 C 
BRANCH  10  11
ATOM     11  O   UNL     1       8.306   7.044  18.852  0.00  0.00    +0.000 OA
ATOM     12  H   UNL     1       8.914   7.036  18.091  0.00  0.00    +0.000 HD
ENDBRANCH  10  11
ENDBRANCH   3  10
ENDBRANCH   1   7
BRANCH   1  13
ATOM     13  O   UNL     1       2.697   3.906  17.509  0.00  0.00    +0.000 OA
BRANCH  13  14
ATOM     14  C   UNL     1       2.444   4.570  18.736  0.00  0.00    +0.000 A 
ATOM     15  C   UNL     1       2.010   3.835  19.849  0.00  0.00    +0.000 A 
ATOM     16  C   UNL     1       1.577   4.494  20.992  0.00  0.00    +0.000 A 
ATOM     17  C   UNL     1       1.513   5.883  21.005  0.00  0.00    +0.000 A 
ATOM     18  C   UNL     1       1.902   6.636  19.886  0.00  0.00    +0.000 A 
ATOM     19  C   UNL     1       1.732   8.028  19.888  0.00  0.00    +0.000 A 
ATOM     20  C   UNL     1       2.115   8.797  18.791  0.00  0.00    +0.000 A 
ATOM     21  C   UNL     1       2.727   8.186  17.702  0.00  0.00    +0.000 A 
ATOM     22  C   UNL     1       2.884   6.796  17.675  0.00  0.00    +0.000 A 
ATOM     23  C   UNL     1       2.430   5.988  18.743  0.00  0.00    +0.000 A 
ENDBRANCH  13  14
ENDBRANCH   1  13
TORSDOF 5
ENDMDL
MODEL 5
REMARK VINA RESULT:      -8.0      2.108      3.950
REMARK  Name = 
REMARK  5 active torsions:
REMARK  status: ('A' for Active; 'I' for Inactive)
REMARK    1  A    between atoms: C_2  and  O_3
REMARK    2  A    between atoms: C_2  and  C_4
REMARK    3  A    between atoms: C_8  and  C_9
REMARK    4  A    between atoms: C_9  and  O_11
REMARK    5  A    between atoms: O_11  and  C_12
REMARK                            x       y       z     vdW  Elec       q    Type
REMARK                         _______ _______ _______ _____ _____    ______ ____
ROOT
ATOM      1  C   UNL     1       3.507   7.029  17.631  0.00  0.00    +0.000 C 
ATOM      2  O   UNL     1       3.452   8.222  17.891  0.00  0.00    +0.000 OA
ENDROOT
BRANCH   1   7
ATOM      3  C   UNL     1       6.437   5.138  16.069  0.00  0.00    +0.000 A 
ATOM      4  C   UNL     1       7.146   4.768  17.220  0.00  0.00    +0.000 A 
ATOM      5  C   UNL     1       6.665   5.139  18.475  0.00  0.00    +0.000 A 
ATOM      6  C   UNL     1       5.492   5.890  18.581  0.00  0.00    +0.000 A 
ATOM      7  C   UNL     1       4.794   6.296  17.433  0.00  0.00    +0.000 A 
ATOM      8  C   UNL     1       5.275   5.917  16.172  0.00  0.00    +0.000 A 
BRANCH   3  10
ATOM      9  O   UNL     1       7.673   5.403  14.063  0.00  0.00    +0.000 OA
ATOM     10  C   UNL     1       6.898   4.732  14.716  0.00  0.00    +0.000 C 
BRANCH  10  11
ATOM     11  O   UNL     1       6.342   3.585  14.274  0.00  0.00    +0.000 OA
ATOM     12  H   UNL     1       6.558   2.785  14.785  0.00  0.00    +0.000 HD
ENDBRANCH  10  11
ENDBRANCH   3  10
ENDBRANCH   1   7
BRANCH   1  13
ATOM     13  O   UNL     1       2.429   6.167  17.596  0.00  0.00    +0.000 OA
BRANCH  13  14
ATOM     14  C   UNL     1       2.268   5.338  18.735  0.00  0.00    +0.000 A 
ATOM     15  C   UNL     1       1.957   5.912  19.976  0.00  0.00    +0.000 A 
ATOM     16  C   UNL     1       1.988   5.138  21.128  0.00  0.00    +0.000 A 
ATOM     17  C   UNL     1       2.390   3.808  21.056  0.00  0.00    +0.000 A 
ATOM     18  C   UNL     1       2.746   3.226  19.830  0.00  0.00    +0.000 A 
ATOM     19  C   UNL     1       3.245   1.916  19.797  0.00  0.00    +0.000 A 
ATOM     20  C   UNL     1       3.601   1.315  18.592  0.00  0.00    +0.000 A 
ATOM     21  C   UNL     1       3.406   1.999  17.397  0.00  0.00    +0.000 A 
ATOM     22  C   UNL     1       2.929   3.315  17.413  0.00  0.00    +0.000 A 
ATOM     23  C   UNL     1       2.637   3.973  18.631  0.00  0.00    +0.000 A 
ENDBRANCH  13  14
ENDBRANCH   1  13
TORSDOF 5
ENDMDL
MODEL 6
REMARK VINA RESULT:      -8.0      3.084      6.978
REMARK  Name = 
REMARK  5 active torsions:
REMARK  status: ('A' for Active; 'I' for Inactive)
REMARK    1  A    between atoms: C_2  and  O_3
REMARK    2  A    between atoms: C_2  and  C_4
REMARK    3  A    between atoms: C_8  and  C_9
REMARK    4  A    between atoms: C_9  and  O_11
REMARK    5  A    between atoms: O_11  and  C_12
REMARK                            x       y       z     vdW  Elec       q    Type
REMARK                         _______ _______ _______ _____ _____    ______ ____
ROOT
ATOM      1  C   UNL     1       2.762   6.641  18.786  0.00  0.00    +0.000 C 
ATOM      2  O   UNL     1       2.376   7.613  19.418  0.00  0.00    +0.000 OA
ENDROOT
BRANCH   1   7
ATOM      3  C   UNL     1       1.855   3.272  20.345  0.00  0.00    +0.000 A 
ATOM      4  C   UNL     1       1.340   2.602  19.227  0.00  0.00    +0.000 A 
ATOM      5  C   UNL     1       1.293   3.253  17.995  0.00  0.00    +0.000 A 
ATOM      6  C   UNL     1       1.742   4.571  17.882  0.00  0.00    +0.000 A 
ATOM      7  C   UNL     1       2.227   5.262  19.003  0.00  0.00    +0.000 A 
ATOM      8  C   UNL     1       2.279   4.605  20.241  0.00  0.00    +0.000 A 
BRANCH   3  10
ATOM      9  O   UNL     1       1.000   2.481  22.410  0.00  0.00    +0.000 OA
ATOM     10  C   UNL     1       1.954   2.601  21.667  0.00  0.00    +0.000 C 
BRANCH  10  11
ATOM     11  O   UNL     1       3.201   2.187  21.975  0.00  0.00    +0.000 OA
ATOM     12  H   UNL     1       3.303   1.232  22.135  0.00  0.00    +0.000 HD
ENDBRANCH  10  11
ENDBRANCH   3  10
ENDBRANCH   1   7
BRANCH   1  13
ATOM     13  O   UNL     1       3.642   6.675  17.722  0.00  0.00    +0.000 OA
BRANCH  13  14
ATOM     14  C   UNL     1       4.848   5.952  17.899  0.00  0.00    +0.000 A 
ATOM     15  C   UNL     1       5.540   6.038  19.115  0.00  0.00    +0.000 A 
ATOM     16  C   UNL     1       6.812   5.493  19.233  0.00  0.00    +0.000 A 
ATOM     17  C   UNL     1       7.423   4.920  18.122  0.00  0.00    +0.000 A 
ATOM     18  C   UNL     1       6.764   4.863  16.884  0.00  0.00    +0.000 A 
ATOM     19  C   UNL     1       7.439   4.373  15.756  0.00  0.00    +0.000 A 
ATOM     20  C   UNL     1       6.805   4.302  14.519  0.00  0.00    +0.000 A 
ATOM     21  C   UNL     1       5.468   4.665  14.407  0.00  0.00    +0.000 A 
ATOM     22  C   UNL     1       4.786   5.176  15.517  0.00  0.00    +0.000 A 
ATOM     23  C   UNL     1       5.433   5.332  16.765  0.00  0.00    +0.000 A 
ENDBRANCH  13  14
ENDBRANCH   1  13
TORSDOF 5
ENDMDL
MODEL 7
REMARK VINA RESULT:      -7.9      4.522      8.292
REMARK  Name = 
REMARK  5 active torsions:
REMARK  status: ('A' for Active; 'I' for Inactive)
REMARK    1  A    between atoms: C_2  and  O_3
REMARK    2  A    between atoms: C_2  and  C_4
REMARK    3  A    between atoms: C_8  and  C_9
REMARK    4  A    between atoms: C_9  and  O_11
REMARK    5  A    between atoms: O_11  and  C_12
REMARK                            x       y       z     vdW  Elec       q    Type
REMARK                         _______ _______ _______ _____ _____    ______ ____
ROOT
ATOM      1  C   UNL     1       2.308   8.249  18.396  0.00  0.00    +0.000 C 
ATOM      2  O   UNL     1       2.453   8.323  17.184  0.00  0.00    +0.000 OA
ENDROOT
BRANCH   1   7
ATOM      3  C   UNL     1       0.058   9.669  21.139  0.00  0.00    +0.000 A 
ATOM      4  C   UNL     1      -0.655  10.632  20.413  0.00  0.00    +0.000 A 
ATOM      5  C   UNL     1      -0.393  10.805  19.055  0.00  0.00    +0.000 A 
ATOM      6  C   UNL     1       0.588  10.033  18.428  0.00  0.00    +0.000 A 
ATOM      7  C   UNL     1       1.333   9.091  19.153  0.00  0.00    +0.000 A 
ATOM      8  C   UNL     1       1.064   8.913  20.518  0.00  0.00    +0.000 A 
BRANCH   3  10
ATOM      9  O   UNL     1       0.215  10.155  23.454  0.00  0.00    +0.000 OA
ATOM     10  C   UNL     1      -0.216   9.430  22.580  0.00  0.00    +0.000 C 
BRANCH  10  11
ATOM     11  O   UNL     1      -0.943   8.319  22.818  0.00  0.00    +0.000 OA
ATOM     12  H   UNL     1      -1.907   8.414  22.723  0.00  0.00    +0.000 HD
ENDBRANCH  10  11
ENDBRANCH   3  10
ENDBRANCH   1   7
BRANCH   1  13
ATOM     13  O   UNL     1       2.916   7.323  19.220  0.00  0.00    +0.000 OA
BRANCH  13  14
ATOM     14  C   UNL     1       3.291   6.103  18.602  0.00  0.00    +0.000 A 
ATOM     15  C   UNL     1       4.234   6.108  17.564  0.00  0.00    +0.000 A 
ATOM     16  C   UNL     1       4.463   4.955  16.827  0.00  0.00    +0.000 A 
ATOM     17  C   UNL     1       3.708   3.814  17.077  0.00  0.00    +0.000 A 
ATOM     18  C   UNL     1       2.730   3.800  18.083  0.00  0.00    +0.000 A 
ATOM     19  C   UNL     1       1.913   2.672  18.247  0.00  0.00    +0.000 A 
ATOM     20  C   UNL     1       0.938   2.633  19.241  0.00  0.00    +0.000 A 
ATOM     21  C   UNL     1       0.808   3.702  20.121  0.00  0.00    +0.000 A 
ATOM     22  C   UNL     1       1.600   4.845  19.957  0.00  0.00    +0.000 A 
ATOM     23  C   UNL     1       2.541   4.938  18.905  0.00  0.00    +0.000 A 
ENDBRANCH  13  14
ENDBRANCH   1  13
TORSDOF 5
ENDMDL
MODEL 8
REMARK VINA RESULT:      -7.8      2.023      4.222
REMARK  Name = 
REMARK  5 active torsions:
REMARK  status: ('A' for Active; 'I' for Inactive)
REMARK    1  A    between atoms: C_2  and  O_3
REMARK    2  A    between atoms: C_2  and  C_4
REMARK    3  A    between atoms: C_8  and  C_9
REMARK    4  A    between atoms: C_9  and  O_11
REMARK    5  A    between atoms: O_11  and  C_12
REMARK                            x       y       z     vdW  Elec       q    Type
REMARK                         _______ _______ _______ _____ _____    ______ ____
ROOT
ATOM      1  C   UNL     1       3.493   3.304  17.446  0.00  0.00    +0.000 C 
ATOM      2  O   UNL     1       3.313   2.100  17.554  0.00  0.00    +0.000 OA
ENDROOT
BRANCH   1   7
ATOM      3  C   UNL     1       6.598   4.520  15.581  0.00  0.00    +0.000 A 
ATOM      4  C   UNL     1       7.415   4.890  16.657  0.00  0.00    +0.000 A 
ATOM      5  C   UNL     1       6.946   4.743  17.962  0.00  0.00    +0.000 A 
ATOM      6  C   UNL     1       5.661   4.245  18.191  0.00  0.00    +0.000 A 
ATOM      7  C   UNL     1       4.822   3.904  17.119  0.00  0.00    +0.000 A 
ATOM      8  C   UNL     1       5.297   4.047  15.807  0.00  0.00    +0.000 A 
BRANCH   3  10
ATOM      9  O   UNL     1       7.813   5.520  13.808  0.00  0.00    +0.000 OA
ATOM     10  C   UNL     1       7.075   4.629  14.178  0.00  0.00    +0.000 C 
BRANCH  10  11
ATOM     11  O   UNL     1       6.575   3.681  13.359  0.00  0.00    +0.000 OA
ATOM     12  H   UNL     1       7.174   3.366  12.659  0.00  0.00    +0.000 HD
ENDBRANCH  10  11
ENDBRANCH   3  10
ENDBRANCH   1   7
BRANCH   1  13
ATOM     13  O   UNL     1       2.505   4.268  17.491  0.00  0.00    +0.000 OA
BRANCH  13  14
ATOM     14  C   UNL     1       2.348   4.930  18.735  0.00  0.00    +0.000 A 
ATOM     15  C   UNL     1       2.052   4.187  19.886  0.00  0.00    +0.000 A 
ATOM     16  C   UNL     1       1.708   4.837  21.064  0.00  0.00    +0.000 A 
ATOM     17  C   UNL     1       1.594   6.223  21.080  0.00  0.00    +0.000 A 
ATOM     18  C   UNL     1       1.844   6.982  19.926  0.00  0.00    +0.000 A 
ATOM     19  C   UNL     1       1.624   8.368  19.940  0.00  0.00    +0.000 A 
ATOM     20  C   UNL     1       1.870   9.142  18.810  0.00  0.00    +0.000 A 
ATOM     21  C   UNL     1       2.395   8.548  17.668  0.00  0.00    +0.000 A 
ATOM     22  C   UNL     1       2.600   7.164  17.629  0.00  0.00    +0.000 A 
ATOM     23  C   UNL     1       2.283   6.346  18.739  0.00  0.00    +0.000 A 
ENDBRANCH  13  14
ENDBRANCH   1  13
TORSDOF 5
ENDMDL
MODEL 9
REMARK VINA RESULT:      -7.8      4.534      8.631
REMARK  Name = 
REMARK  5 active torsions:
REMARK  status: ('A' for Active; 'I' for Inactive)
REMARK    1  A    between atoms: C_2  and  O_3
REMARK    2  A    between atoms: C_2  and  C_4
REMARK    3  A    between atoms: C_8  and  C_9
REMARK    4  A    between atoms: C_9  and  O_11
REMARK    5  A    between atoms: O_11  and  C_12
REMARK                            x       y       z     vdW  Elec       q    Type
REMARK                         _______ _______ _______ _____ _____    ______ ____
ROOT
ATOM      1  C   UNL     1       2.236   8.444  18.217  0.00  0.00    +0.000 C 
ATOM      2  O   UNL     1       2.381   8.712  17.034  0.00  0.00    +0.000 OA
ENDROOT
BRANCH   1   7
ATOM      3  C   UNL     1       0.305   9.684  21.273  0.00  0.00    +0.000 A 
ATOM      4  C   UNL     1      -0.658  10.495  20.657  0.00  0.00    +0.000 A 
ATOM      5  C   UNL     1      -0.662  10.626  19.268  0.00  0.00    +0.000 A 
ATOM      6  C   UNL     1       0.301   9.967  18.500  0.00  0.00    +0.000 A 
ATOM      7  C   UNL     1       1.291   9.181  19.110  0.00  0.00    +0.000 A 
ATOM      8  C   UNL     1       1.290   9.045  20.506  0.00  0.00    +0.000 A 
BRANCH   3  10
ATOM      9  O   UNL     1       1.343   9.550  23.400  0.00  0.00    +0.000 OA
ATOM     10  C   UNL     1       0.321   9.491  22.746  0.00  0.00    +0.000 C 
BRANCH  10  11
ATOM     11  O   UNL     1      -0.889   9.203  23.269  0.00  0.00    +0.000 OA
ATOM     12  H   UNL     1      -1.241   9.851  23.905  0.00  0.00    +0.000 HD
ENDBRANCH  10  11
ENDBRANCH   3  10
ENDBRANCH   1   7
BRANCH   1  13
ATOM     13  O   UNL     1       2.814   7.375  18.873  0.00  0.00    +0.000 OA
BRANCH  13  14
ATOM     14  C   UNL     1       2.850   6.157  18.148  0.00  0.00    +0.000 A 
ATOM     15  C   UNL     1       1.778   5.258  18.242  0.00  0.00    +0.000 A 
ATOM     16  C   UNL     1       1.885   3.986  17.696  0.00  0.00    +0.000 A 
ATOM     17  C   UNL     1       3.083   3.585  17.113  0.00  0.00    +0.000 A 
ATOM     18  C   UNL     1       4.183   4.454  17.047  0.00  0.00    +0.000 A 
ATOM     19  C   UNL     1       5.409   3.993  16.548  0.00  0.00    +0.000 A 
ATOM     20  C   UNL     1       6.513   4.838  16.468  0.00  0.00    +0.000 A 
ATOM     21  C   UNL     1       6.386   6.174  16.834  0.00  0.00    +0.000 A 
ATOM     22  C   UNL     1       5.175   6.645  17.355  0.00  0.00    +0.000 A 
ATOM     23  C   UNL     1       4.065   5.785  17.519  0.00  0.00    +0.000 A 
ENDBRANCH  13  14
ENDBRANCH   1  13
TORSDOF 5
ENDMDL
