MODEL 1
REMARK VINA RESULT:      -8.3      0.000      0.000
REMARK  Name = 
REMARK  11 active torsions:
REMARK  status: ('A' for Active; 'I' for Inactive)
REMARK    1  A    between atoms: C_1  and  O_2
REMARK    2  A    between atoms: O_2  and  C_3
REMARK    3  A    between atoms: C_5  and  C_6
REMARK    4  A    between atoms: C_13  and  O_14
REMARK    5  A    between atoms: O_14  and  C_15
REMARK    6  A    between atoms: N_17  and  C_18
REMARK    7  A    between atoms: N_17  and  C_19
REMARK    8  A    between atoms: C_30  and  O_31
REMARK    9  A    between atoms: O_31  and  C_32
REMARK   10  A    between atoms: C_33  and  O_34
REMARK   11  A    between atoms: O_34  and  C_35
REMARK                            x       y       z     vdW  Elec       q    Type
REMARK                         _______ _______ _______ _____ _____    ______ ____
ROOT
ATOM      1  C   UNL     1       0.850   9.502  19.385  0.00  0.00    +0.000 C 
ATOM      2  C   UNL     1       1.045  10.891  18.639  0.00  0.00    +0.000 A 
ATOM      3  C   UNL     1       2.258  11.545  18.424  0.00  0.00    +0.000 A 
ATOM      4  C   UNL     1       2.224  12.949  18.454  0.00  0.00    +0.000 A 
ATOM      5  C   UNL     1       1.065  13.703  18.470  0.00  0.00    +0.000 A 
ATOM      6  C   UNL     1      -0.176  13.133  18.419  0.00  0.00    +0.000 A 
ATOM      7  C   UNL     1      -0.186  11.739  18.608  0.00  0.00    +0.000 A 
ATOM      8  C   UNL     1      -1.377  11.254  19.473  0.00  0.00    +0.000 C 
ATOM      9  C   UNL     1      -0.522  11.080  20.751  0.00  0.00    +0.000 C 
ATOM     10  C   UNL     1      -0.885  11.341  22.173  0.00  0.00    +0.000 C 
ATOM     11  O   UNL     1       0.201  10.684  22.881  0.00  0.00    +0.000 OA
ATOM     12  C   UNL     1       0.872   9.805  22.048  0.00  0.00    +0.000 C 
ATOM     13  O   UNL     1       1.851   9.161  22.380  0.00  0.00    +0.000 OA
ATOM     14  C   UNL     1       0.120   9.723  20.748  0.00  0.00    +0.000 C 
ATOM     15  O   UNL     1       1.276  15.013  18.806  0.00  0.00    +0.000 OA
ATOM     16  C   UNL     1       2.642  14.920  19.252  0.00  0.00    +0.000 C 
ATOM     17  O   UNL     1       3.309  13.751  18.715  0.00  0.00    +0.000 OA
ENDROOT
BRANCH   1  20
ATOM     18  C   UNL     1       2.415   6.002  20.126  0.00  0.00    +0.000 A 
ATOM     19  C   UNL     1       1.508   7.106  20.217  0.00  0.00    +0.000 A 
ATOM     20  C   UNL     1       1.575   8.157  19.322  0.00  0.00    +0.000 A 
ATOM     21  C   UNL     1       2.532   8.008  18.280  0.00  0.00    +0.000 A 
ATOM     22  C   UNL     1       3.406   6.909  18.125  0.00  0.00    +0.000 A 
ATOM     23  C   UNL     1       3.365   5.888  19.077  0.00  0.00    +0.000 A 
BRANCH  18  25
ATOM     24  C   UNL     1       1.407   3.985  20.859  0.00  0.00    +0.000 C 
ATOM     25  O   UNL     1       2.374   5.006  21.071  0.00  0.00    +0.000 OA
ENDBRANCH  18  25
BRANCH  22  26
ATOM     26  O   UNL     1       4.224   7.050  17.028  0.00  0.00    +0.000 OA
ATOM     27  C   UNL     1       5.638   7.048  17.176  0.00  0.00    +0.000 C 
ENDBRANCH  22  26
BRANCH  23  28
ATOM     28  O   UNL     1       4.312   4.914  18.926  0.00  0.00    +0.000 OA
ATOM     29  C   UNL     1       4.044   3.726  18.207  0.00  0.00    +0.000 C 
ENDBRANCH  23  28
ENDBRANCH   1  20
BRANCH   8  30
ATOM     30  O   UNL     1      -1.898  10.059  18.838  0.00  0.00    +0.000 OA
BRANCH  30  31
ATOM     31  C   UNL     1      -2.426  10.276  17.583  0.00  0.00    +0.000 C 
ATOM     32  O   UNL     1      -1.891   9.823  16.575  0.00  0.00    +0.000 OA
ATOM     33  N   UNL     1      -3.615  10.997  17.548  0.00  0.00    +0.000 N 
ATOM     34  C   UNL     1      -4.268  11.609  18.701  0.00  0.00    +0.000 C 
ATOM     35  C   UNL     1      -4.235  11.302  16.263  0.00  0.00    +0.000 C 
ENDBRANCH  30  31
ENDBRANCH   8  30
TORSDOF 6
ENDMDL
MODEL 2
REMARK VINA RESULT:      -8.2      0.464      2.133
REMARK  Name = 
REMARK  11 active torsions:
REMARK  status: ('A' for Active; 'I' for Inactive)
REMARK    1  A    between atoms: C_1  and  O_2
REMARK    2  A    between atoms: O_2  and  C_3
REMARK    3  A    between atoms: C_5  and  C_6
REMARK    4  A    between atoms: C_13  and  O_14
REMARK    5  A    between atoms: O_14  and  C_15
REMARK    6  A    between atoms: N_17  and  C_18
REMARK    7  A    between atoms: N_17  and  C_19
REMARK    8  A    between atoms: C_30  and  O_31
REMARK    9  A    between atoms: O_31  and  C_32
REMARK   10  A    between atoms: C_33  and  O_34
REMARK   11  A    between atoms: O_34  and  C_35
REMARK                            x       y       z     vdW  Elec       q    Type
REMARK                         _______ _______ _______ _____ _____    ______ ____
ROOT
ATOM      1  C   UNL     1       1.010   9.738  19.249  0.00  0.00    +0.000 C 
ATOM      2  C   UNL     1       1.041  11.203  18.633  0.00  0.00    +0.000 A 
ATOM      3  C   UNL     1       2.170  12.008  18.486  0.00  0.00    +0.000 A 
ATOM      4  C   UNL     1       1.975  13.390  18.643  0.00  0.00    +0.000 A 
ATOM      5  C   UNL     1       0.737  14.002  18.719  0.00  0.00    +0.000 A 
ATOM      6  C   UNL     1      -0.430  13.300  18.609  0.00  0.00    +0.000 A 
ATOM      7  C   UNL     1      -0.279  11.902  18.670  0.00  0.00    +0.000 A 
ATOM      8  C   UNL     1      -1.403  11.208  19.481  0.00  0.00    +0.000 C 
ATOM      9  C   UNL     1      -0.528  11.017  20.743  0.00  0.00    +0.000 C 
ATOM     10  C   UNL     1      -0.914  11.105  22.180  0.00  0.00    +0.000 C 
ATOM     11  O   UNL     1       0.244  10.516  22.833  0.00  0.00    +0.000 OA
ATOM     12  C   UNL     1       1.008   9.799  21.928  0.00  0.00    +0.000 C 
ATOM     13  O   UNL     1       2.057   9.244  22.207  0.00  0.00    +0.000 OA
ATOM     14  C   UNL     1       0.265   9.750  20.621  0.00  0.00    +0.000 C 
ATOM     15  O   UNL     1       0.797  15.291  19.173  0.00  0.00    +0.000 OA
ATOM     16  C   UNL     1       2.166  15.316  19.618  0.00  0.00    +0.000 C 
ATOM     17  O   UNL     1       2.961  14.285  18.982  0.00  0.00    +0.000 OA
ENDROOT
BRANCH   1  20
ATOM     18  C   UNL     1       3.400   6.944  17.933  0.00  0.00    +0.000 A 
ATOM     19  C   UNL     1       2.822   8.246  18.085  0.00  0.00    +0.000 A 
ATOM     20  C   UNL     1       1.884   8.496  19.069  0.00  0.00    +0.000 A 
ATOM     21  C   UNL     1       1.618   7.409  19.947  0.00  0.00    +0.000 A 
ATOM     22  C   UNL     1       2.208   6.128  19.863  0.00  0.00    +0.000 A 
ATOM     23  C   UNL     1       3.107   5.877  18.823  0.00  0.00    +0.000 A 
BRANCH  18  25
ATOM     24  C   UNL     1       5.636   7.034  17.152  0.00  0.00    +0.000 C 
ATOM     25  O   UNL     1       4.276   6.703  16.903  0.00  0.00    +0.000 OA
ENDBRANCH  18  25
BRANCH  22  26
ATOM     26  O   UNL     1       1.749   5.282  20.845  0.00  0.00    +0.000 OA
ATOM     27  C   UNL     1       0.964   4.145  20.510  0.00  0.00    +0.000 C 
ENDBRANCH  22  26
BRANCH  23  28
ATOM     28  O   UNL     1       3.553   4.588  18.738  0.00  0.00    +0.000 OA
ATOM     29  C   UNL     1       4.784   4.191  19.309  0.00  0.00    +0.000 C 
ENDBRANCH  23  28
ENDBRANCH   1  20
BRANCH   8  30
ATOM     30  O   UNL     1      -1.786  10.023  18.737  0.00  0.00    +0.000 OA
BRANCH  30  31
ATOM     31  C   UNL     1      -2.381  10.292  17.522  0.00  0.00    +0.000 C 
ATOM     32  O   UNL     1      -1.891   9.898  16.467  0.00  0.00    +0.000 OA
ATOM     33  N   UNL     1      -3.582  10.992  17.584  0.00  0.00    +0.000 N 
ATOM     34  C   UNL     1      -4.184  11.534  18.797  0.00  0.00    +0.000 C 
ATOM     35  C   UNL     1      -4.271  11.348  16.348  0.00  0.00    +0.000 C 
ENDBRANCH  30  31
ENDBRANCH   8  30
TORSDOF 6
ENDMDL
MODEL 3
REMARK VINA RESULT:      -7.9      0.709      1.001
REMARK  Name = 
REMARK  11 active torsions:
REMARK  status: ('A' for Active; 'I' for Inactive)
REMARK    1  A    between atoms: C_1  and  O_2
REMARK    2  A    between atoms: O_2  and  C_3
REMARK    3  A    between atoms: C_5  and  C_6
REMARK    4  A    between atoms: C_13  and  O_14
REMARK    5  A    between atoms: O_14  and  C_15
REMARK    6  A    between atoms: N_17  and  C_18
REMARK    7  A    between atoms: N_17  and  C_19
REMARK    8  A    between atoms: C_30  and  O_31
REMARK    9  A    between atoms: O_31  and  C_32
REMARK   10  A    between atoms: C_33  and  O_34
REMARK   11  A    between atoms: O_34  and  C_35
REMARK                            x       y       z     vdW  Elec       q    Type
REMARK                         _______ _______ _______ _____ _____    ______ ____
ROOT
ATOM      1  C   UNL     1       0.752   9.891  19.419  0.00  0.00    +0.000 C 
ATOM      2  C   UNL     1       1.036  11.300  18.740  0.00  0.00    +0.000 A 
ATOM      3  C   UNL     1       2.288  11.889  18.564  0.00  0.00    +0.000 A 
ATOM      4  C   UNL     1       2.336  13.290  18.659  0.00  0.00    +0.000 A 
ATOM      5  C   UNL     1       1.224  14.111  18.702  0.00  0.00    +0.000 A 
ATOM      6  C   UNL     1      -0.048  13.618  18.617  0.00  0.00    +0.000 A 
ATOM      7  C   UNL     1      -0.142  12.220  18.740  0.00  0.00    +0.000 A 
ATOM      8  C   UNL     1      -1.368  11.767  19.575  0.00  0.00    +0.000 C 
ATOM      9  C   UNL     1      -0.536  11.483  20.848  0.00  0.00    +0.000 C 
ATOM     10  C   UNL     1      -0.897  11.700  22.278  0.00  0.00    +0.000 C 
ATOM     11  O   UNL     1       0.142  10.948  22.962  0.00  0.00    +0.000 OA
ATOM     12  C   UNL     1       0.767  10.070  22.094  0.00  0.00    +0.000 C 
ATOM     13  O   UNL     1       1.704   9.354  22.402  0.00  0.00    +0.000 OA
ATOM     14  C   UNL     1       0.024  10.093  20.786  0.00  0.00    +0.000 C 
ATOM     15  O   UNL     1       1.508  15.388  19.100  0.00  0.00    +0.000 OA
ATOM     16  C   UNL     1       2.862  15.194  19.550  0.00  0.00    +0.000 C 
ATOM     17  O   UNL     1       3.464  14.014  18.964  0.00  0.00    +0.000 OA
ENDROOT
BRANCH   1  20
ATOM     18  C   UNL     1       2.113   6.280  20.011  0.00  0.00    +0.000 A 
ATOM     19  C   UNL     1       1.273   7.431  20.152  0.00  0.00    +0.000 A 
ATOM     20  C   UNL     1       1.397   8.510  19.299  0.00  0.00    +0.000 A 
ATOM     21  C   UNL     1       2.340   8.348  18.246  0.00  0.00    +0.000 A 
ATOM     22  C   UNL     1       3.147   7.207  18.041  0.00  0.00    +0.000 A 
ATOM     23  C   UNL     1       3.051   6.153  18.952  0.00  0.00    +0.000 A 
BRANCH  18  25
ATOM     24  C   UNL     1       1.099   4.217  20.590  0.00  0.00    +0.000 C 
ATOM     25  O   UNL     1       2.018   5.251  20.917  0.00  0.00    +0.000 OA
ENDBRANCH  18  25
BRANCH  22  26
ATOM     26  O   UNL     1       3.967   7.343  16.945  0.00  0.00    +0.000 OA
ATOM     27  C   UNL     1       5.371   7.154  17.065  0.00  0.00    +0.000 C 
ENDBRANCH  22  26
BRANCH  23  28
ATOM     28  O   UNL     1       3.939   5.131  18.757  0.00  0.00    +0.000 OA
ATOM     29  C   UNL     1       3.610   4.006  17.966  0.00  0.00    +0.000 C 
ENDBRANCH  23  28
ENDBRANCH   1  20
BRANCH   8  30
ATOM     30  O   UNL     1      -1.953  10.635  18.881  0.00  0.00    +0.000 OA
BRANCH  30  31
ATOM     31  C   UNL     1      -3.055  10.955  18.117  0.00  0.00    +0.000 C 
ATOM     32  O   UNL     1      -3.979  11.623  18.574  0.00  0.00    +0.000 OA
ATOM     33  N   UNL     1      -3.024  10.509  16.800  0.00  0.00    +0.000 N 
ATOM     34  C   UNL     1      -1.985   9.667  16.217  0.00  0.00    +0.000 C 
ATOM     35  C   UNL     1      -4.158  10.776  15.922  0.00  0.00    +0.000 C 
ENDBRANCH  30  31
ENDBRANCH   8  30
TORSDOF 6
ENDMDL
MODEL 4
REMARK VINA RESULT:      -7.5      0.917      2.377
REMARK  Name = 
REMARK  11 active torsions:
REMARK  status: ('A' for Active; 'I' for Inactive)
REMARK    1  A    between atoms: C_1  and  O_2
REMARK    2  A    between atoms: O_2  and  C_3
REMARK    3  A    between atoms: C_5  and  C_6
REMARK    4  A    between atoms: C_13  and  O_14
REMARK    5  A    between atoms: O_14  and  C_15
REMARK    6  A    between atoms: N_17  and  C_18
REMARK    7  A    between atoms: N_17  and  C_19
REMARK    8  A    between atoms: C_30  and  O_31
REMARK    9  A    between atoms: O_31  and  C_32
REMARK   10  A    between atoms: C_33  and  O_34
REMARK   11  A    between atoms: O_34  and  C_35
REMARK                            x       y       z     vdW  Elec       q    Type
REMARK                         _______ _______ _______ _____ _____    ______ ____
ROOT
ATOM      1  C   UNL     1       0.892  10.074  19.422  0.00  0.00    +0.000 C 
ATOM      2  C   UNL     1       0.977  11.582  18.928  0.00  0.00    +0.000 A 
ATOM      3  C   UNL     1       2.133  12.361  18.864  0.00  0.00    +0.000 A 
ATOM      4  C   UNL     1       1.976  13.732  19.132  0.00  0.00    +0.000 A 
ATOM      5  C   UNL     1       0.757  14.374  19.239  0.00  0.00    +0.000 A 
ATOM      6  C   UNL     1      -0.429  13.720  19.055  0.00  0.00    +0.000 A 
ATOM      7  C   UNL     1      -0.322  12.318  19.004  0.00  0.00    +0.000 A 
ATOM      8  C   UNL     1      -1.480  11.595  19.738  0.00  0.00    +0.000 C 
ATOM      9  C   UNL     1      -0.633  11.275  20.993  0.00  0.00    +0.000 C 
ATOM     10  C   UNL     1      -1.041  11.258  22.427  0.00  0.00    +0.000 C 
ATOM     11  O   UNL     1       0.087  10.581  23.046  0.00  0.00    +0.000 OA
ATOM     12  C   UNL     1       0.844   9.916  22.097  0.00  0.00    +0.000 C 
ATOM     13  O   UNL     1       1.871   9.308  22.344  0.00  0.00    +0.000 OA
ATOM     14  C   UNL     1       0.123   9.997  20.779  0.00  0.00    +0.000 C 
ATOM     15  O   UNL     1       0.847  15.619  19.799  0.00  0.00    +0.000 OA
ATOM     16  C   UNL     1       2.209  15.564  20.264  0.00  0.00    +0.000 C 
ATOM     17  O   UNL     1       2.983  14.564  19.557  0.00  0.00    +0.000 OA
ENDROOT
BRANCH   1  20
ATOM     18  C   UNL     1       3.149   7.284  17.885  0.00  0.00    +0.000 A 
ATOM     19  C   UNL     1       2.606   8.589  18.110  0.00  0.00    +0.000 A 
ATOM     20  C   UNL     1       1.731   8.824  19.153  0.00  0.00    +0.000 A 
ATOM     21  C   UNL     1       1.495   7.714  20.011  0.00  0.00    +0.000 A 
ATOM     22  C   UNL     1       2.055   6.427  19.854  0.00  0.00    +0.000 A 
ATOM     23  C   UNL     1       2.888   6.194  18.757  0.00  0.00    +0.000 A 
BRANCH  18  25
ATOM     24  C   UNL     1       5.360   7.120  17.044  0.00  0.00    +0.000 C 
ATOM     25  O   UNL     1       3.961   7.061  16.799  0.00  0.00    +0.000 OA
ENDBRANCH  18  25
BRANCH  22  26
ATOM     26  O   UNL     1       1.638   5.558  20.835  0.00  0.00    +0.000 OA
ATOM     27  C   UNL     1       0.959   4.356  20.494  0.00  0.00    +0.000 C 
ENDBRANCH  22  26
BRANCH  23  28
ATOM     28  O   UNL     1       3.304   4.901  18.607  0.00  0.00    +0.000 OA
ATOM     29  C   UNL     1       4.491   4.430  19.215  0.00  0.00    +0.000 C 
ENDBRANCH  23  28
ENDBRANCH   1  20
BRANCH   8  30
ATOM     30  O   UNL     1      -1.885  10.488  18.893  0.00  0.00    +0.000 OA
BRANCH  30  31
ATOM     31  C   UNL     1      -2.951  10.774  18.067  0.00  0.00    +0.000 C 
ATOM     32  O   UNL     1      -3.909  11.433  18.462  0.00  0.00    +0.000 OA
ATOM     33  N   UNL     1      -2.841  10.308  16.761  0.00  0.00    +0.000 N 
ATOM     34  C   UNL     1      -1.759   9.475  16.248  0.00  0.00    +0.000 C 
ATOM     35  C   UNL     1      -3.932  10.538  15.820  0.00  0.00    +0.000 C 
ENDBRANCH  30  31
ENDBRANCH   8  30
TORSDOF 6
ENDMDL
MODEL 5
REMARK VINA RESULT:      -7.3      2.203      4.755
REMARK  Name = 
REMARK  11 active torsions:
REMARK  status: ('A' for Active; 'I' for Inactive)
REMARK    1  A    between atoms: C_1  and  O_2
REMARK    2  A    between atoms: O_2  and  C_3
REMARK    3  A    between atoms: C_5  and  C_6
REMARK    4  A    between atoms: C_13  and  O_14
REMARK    5  A    between atoms: O_14  and  C_15
REMARK    6  A    between atoms: N_17  and  C_18
REMARK    7  A    between atoms: N_17  and  C_19
REMARK    8  A    between atoms: C_30  and  O_31
REMARK    9  A    between atoms: O_31  and  C_32
REMARK   10  A    between atoms: C_33  and  O_34
REMARK   11  A    between atoms: O_34  and  C_35
REMARK                            x       y       z     vdW  Elec       q    Type
REMARK                         _______ _______ _______ _____ _____    ______ ____
ROOT
ATOM      1  C   UNL     1       0.827  10.423  20.137  0.00  0.00    +0.000 C 
ATOM      2  C   UNL     1       0.321  11.138  21.464  0.00  0.00    +0.000 A 
ATOM      3  C   UNL     1      -0.592  10.616  22.380  0.00  0.00    +0.000 A 
ATOM      4  C   UNL     1      -1.444  11.542  23.006  0.00  0.00    +0.000 A 
ATOM      5  C   UNL     1      -1.297  12.914  22.934  0.00  0.00    +0.000 A 
ATOM      6  C   UNL     1      -0.262  13.501  22.261  0.00  0.00    +0.000 A 
ATOM      7  C   UNL     1       0.478  12.624  21.448  0.00  0.00    +0.000 A 
ATOM      8  C   UNL     1       0.892  13.257  20.095  0.00  0.00    +0.000 C 
ATOM      9  C   UNL     1      -0.212  12.531  19.290  0.00  0.00    +0.000 C 
ATOM     10  C   UNL     1      -1.018  13.024  18.137  0.00  0.00    +0.000 C 
ATOM     11  O   UNL     1      -1.615  11.793  17.646  0.00  0.00    +0.000 OA
ATOM     12  C   UNL     1      -0.944  10.688  18.143  0.00  0.00    +0.000 C 
ATOM     13  O   UNL     1      -1.270   9.534  17.922  0.00  0.00    +0.000 OA
ATOM     14  C   UNL     1       0.273  11.171  18.882  0.00  0.00    +0.000 C 
ATOM     15  O   UNL     1      -2.402  13.601  23.356  0.00  0.00    +0.000 OA
ATOM     16  C   UNL     1      -3.334  12.507  23.443  0.00  0.00    +0.000 C 
ATOM     17  O   UNL     1      -2.661  11.230  23.563  0.00  0.00    +0.000 OA
ENDROOT
BRANCH   1  20
ATOM     18  C   UNL     1       1.886   6.667  20.237  0.00  0.00    +0.000 A 
ATOM     19  C   UNL     1       1.204   7.873  20.599  0.00  0.00    +0.000 A 
ATOM     20  C   UNL     1       1.296   9.005  19.813  0.00  0.00    +0.000 A 
ATOM     21  C   UNL     1       2.031   8.848  18.605  0.00  0.00    +0.000 A 
ATOM     22  C   UNL     1       2.672   7.660  18.187  0.00  0.00    +0.000 A 
ATOM     23  C   UNL     1       2.618   6.545  19.026  0.00  0.00    +0.000 A 
BRANCH  18  25
ATOM     24  C   UNL     1       1.113   4.453  20.588  0.00  0.00    +0.000 C 
ATOM     25  O   UNL     1       1.836   5.578  21.073  0.00  0.00    +0.000 OA
ENDBRANCH  18  25
BRANCH  22  26
ATOM     26  O   UNL     1       3.309   7.814  16.978  0.00  0.00    +0.000 OA
ATOM     27  C   UNL     1       4.654   7.387  16.811  0.00  0.00    +0.000 C 
ENDBRANCH  22  26
BRANCH  23  28
ATOM     28  O   UNL     1       3.351   5.469  18.612  0.00  0.00    +0.000 OA
ATOM     29  C   UNL     1       4.535   5.079  19.279  0.00  0.00    +0.000 C 
ENDBRANCH  23  28
ENDBRANCH   1  20
BRANCH   8  30
ATOM     30  O   UNL     1       2.270  12.873  19.856  0.00  0.00    +0.000 OA
BRANCH  30  31
ATOM     31  C   UNL     1       2.978  13.772  19.086  0.00  0.00    +0.000 C 
ATOM     32  O   UNL     1       2.775  13.881  17.880  0.00  0.00    +0.000 OA
ATOM     33  N   UNL     1       3.892  14.563  19.775  0.00  0.00    +0.000 N 
ATOM     34  C   UNL     1       4.217  14.442  21.192  0.00  0.00    +0.000 C 
ATOM     35  C   UNL     1       4.707  15.525  19.041  0.00  0.00    +0.000 C 
ENDBRANCH  30  31
ENDBRANCH   8  30
TORSDOF 6
ENDMDL
MODEL 6
REMARK VINA RESULT:      -7.3      3.566      8.329
REMARK  Name = 
REMARK  11 active torsions:
REMARK  status: ('A' for Active; 'I' for Inactive)
REMARK    1  A    between atoms: C_1  and  O_2
REMARK    2  A    between atoms: O_2  and  C_3
REMARK    3  A    between atoms: C_5  and  C_6
REMARK    4  A    between atoms: C_13  and  O_14
REMARK    5  A    between atoms: O_14  and  C_15
REMARK    6  A    between atoms: N_17  and  C_18
REMARK    7  A    between atoms: N_17  and  C_19
REMARK    8  A    between atoms: C_30  and  O_31
REMARK    9  A    between atoms: O_31  and  C_32
REMARK   10  A    between atoms: C_33  and  O_34
REMARK   11  A    between atoms: O_34  and  C_35
REMARK                            x       y       z     vdW  Elec       q    Type
REMARK                         _______ _______ _______ _____ _____    ______ ____
ROOT
ATOM      1  C   UNL     1      -0.937  12.750  21.266  0.00  0.00    +0.000 C 
ATOM      2  C   UNL     1      -1.366  12.416  19.772  0.00  0.00    +0.000 A 
ATOM      3  C   UNL     1      -2.672  12.281  19.304  0.00  0.00    +0.000 A 
ATOM      4  C   UNL     1      -2.875  11.332  18.287  0.00  0.00    +0.000 A 
ATOM      5  C   UNL     1      -1.860  10.697  17.595  0.00  0.00    +0.000 A 
ATOM      6  C   UNL     1      -0.540  10.973  17.822  0.00  0.00    +0.000 A 
ATOM      7  C   UNL     1      -0.295  11.747  18.972  0.00  0.00    +0.000 A 
ATOM      8  C   UNL     1       0.963  11.288  19.753  0.00  0.00    +0.000 C 
ATOM      9  C   UNL     1       0.153  10.544  20.841  0.00  0.00    +0.000 C 
ATOM     10  C   UNL     1       0.471   9.271  21.549  0.00  0.00    +0.000 C 
ATOM     11  O   UNL     1      -0.487   9.294  22.641  0.00  0.00    +0.000 OA
ATOM     12  C   UNL     1      -1.002  10.567  22.819  0.00  0.00    +0.000 C 
ATOM     13  O   UNL     1      -1.859  10.849  23.638  0.00  0.00    +0.000 OA
ATOM     14  C   UNL     1      -0.251  11.507  21.917  0.00  0.00    +0.000 C 
ATOM     15  O   UNL     1      -2.287   9.610  16.883  0.00  0.00    +0.000 OA
ATOM     16  C   UNL     1      -3.616   9.489  17.422  0.00  0.00    +0.000 C 
ATOM     17  O   UNL     1      -4.078  10.730  18.009  0.00  0.00    +0.000 OA
ENDROOT
BRANCH   1  20
ATOM     18  C   UNL     1      -1.341  15.151  24.318  0.00  0.00    +0.000 A 
ATOM     19  C   UNL     1      -0.692  14.398  23.288  0.00  0.00    +0.000 A 
ATOM     20  C   UNL     1      -1.425  13.760  22.305  0.00  0.00    +0.000 A 
ATOM     21  C   UNL     1      -2.829  13.984  22.352  0.00  0.00    +0.000 A 
ATOM     22  C   UNL     1      -3.501  14.764  23.319  0.00  0.00    +0.000 A 
ATOM     23  C   UNL     1      -2.748  15.349  24.340  0.00  0.00    +0.000 A 
BRANCH  18  25
ATOM     24  C   UNL     1      -0.011  16.979  25.032  0.00  0.00    +0.000 C 
ATOM     25  O   UNL     1      -0.594  15.715  25.324  0.00  0.00    +0.000 OA
ENDBRANCH  18  25
BRANCH  22  26
ATOM     26  O   UNL     1      -4.859  14.790  23.110  0.00  0.00    +0.000 OA
ATOM     27  C   UNL     1      -5.662  13.664  23.438  0.00  0.00    +0.000 C 
ENDBRANCH  22  26
BRANCH  23  28
ATOM     28  O   UNL     1      -3.473  15.996  25.301  0.00  0.00    +0.000 OA
ATOM     29  C   UNL     1      -3.782  17.372  25.195  0.00  0.00    +0.000 C 
ENDBRANCH  23  28
ENDBRANCH   1  20
BRANCH   8  30
ATOM     30  O   UNL     1       1.676  12.490  20.142  0.00  0.00    +0.000 OA
BRANCH  30  31
ATOM     31  C   UNL     1       2.292  13.140  19.094  0.00  0.00    +0.000 C 
ATOM     32  O   UNL     1       2.841  12.518  18.188  0.00  0.00    +0.000 OA
ATOM     33  N   UNL     1       2.209  14.529  19.115  0.00  0.00    +0.000 N 
ATOM     34  C   UNL     1       1.624  15.324  20.189  0.00  0.00    +0.000 C 
ATOM     35  C   UNL     1       2.856  15.305  18.063  0.00  0.00    +0.000 C 
ENDBRANCH  30  31
ENDBRANCH   8  30
TORSDOF 6
ENDMDL
MODEL 7
REMARK VINA RESULT:      -7.2      4.090      8.790
REMARK  Name = 
REMARK  11 active torsions:
REMARK  status: ('A' for Active; 'I' for Inactive)
REMARK    1  A    between atoms: C_1  and  O_2
REMARK    2  A    between atoms: O_2  and  C_3
REMARK    3  A    between atoms: C_5  and  C_6
REMARK    4  A    between atoms: C_13  and  O_14
REMARK    5  A    between atoms: O_14  and  C_15
REMARK    6  A    between atoms: N_17  and  C_18
REMARK    7  A    between atoms: N_17  and  C_19
REMARK    8  A    between atoms: C_30  and  O_31
REMARK    9  A    between atoms: O_31  and  C_32
REMARK   10  A    between atoms: C_33  and  O_34
REMARK   11  A    between atoms: O_34  and  C_35
REMARK                            x       y       z     vdW  Elec       q    Type
REMARK                         _______ _______ _______ _____ _____    ______ ____
ROOT
ATOM      1  C   UNL     1      -1.609  13.342  21.532  0.00  0.00    +0.000 C 
ATOM      2  C   UNL     1      -1.689  12.866  20.017  0.00  0.00    +0.000 A 
ATOM      3  C   UNL     1      -2.852  12.555  19.314  0.00  0.00    +0.000 A 
ATOM      4  C   UNL     1      -2.749  11.527  18.362  0.00  0.00    +0.000 A 
ATOM      5  C   UNL     1      -1.557  10.968  17.940  0.00  0.00    +0.000 A 
ATOM      6  C   UNL     1      -0.346  11.404  18.398  0.00  0.00    +0.000 A 
ATOM      7  C   UNL     1      -0.417  12.273  19.502  0.00  0.00    +0.000 A 
ATOM      8  C   UNL     1       0.694  12.009  20.551  0.00  0.00    +0.000 C 
ATOM      9  C   UNL     1      -0.245  11.250  21.519  0.00  0.00    +0.000 C 
ATOM     10  C   UNL     1       0.044  10.069  22.382  0.00  0.00    +0.000 C 
ATOM     11  O   UNL     1      -1.115  10.053  23.259  0.00  0.00    +0.000 OA
ATOM     12  C   UNL     1      -1.777  11.269  23.222  0.00  0.00    +0.000 C 
ATOM     13  O   UNL     1      -2.806  11.505  23.830  0.00  0.00    +0.000 OA
ATOM     14  C   UNL     1      -0.953  12.229  22.409  0.00  0.00    +0.000 C 
ATOM     15  O   UNL     1      -1.722   9.796  17.254  0.00  0.00    +0.000 OA
ATOM     16  C   UNL     1      -3.115   9.560  17.529  0.00  0.00    +0.000 C 
ATOM     17  O   UNL     1      -3.806  10.776  17.906  0.00  0.00    +0.000 OA
ENDROOT
BRANCH   1  20
ATOM     18  C   UNL     1      -2.868  15.860  24.237  0.00  0.00    +0.000 A 
ATOM     19  C   UNL     1      -1.949  15.119  23.426  0.00  0.00    +0.000 A 
ATOM     20  C   UNL     1      -2.395  14.355  22.364  0.00  0.00    +0.000 A 
ATOM     21  C   UNL     1      -3.791  14.437  22.100  0.00  0.00    +0.000 A 
ATOM     22  C   UNL     1      -4.720  15.199  22.842  0.00  0.00    +0.000 A 
ATOM     23  C   UNL     1      -4.258  15.915  23.949  0.00  0.00    +0.000 A 
BRANCH  18  25
ATOM     24  C   UNL     1      -1.448  15.882  26.135  0.00  0.00    +0.000 C 
ATOM     25  O   UNL     1      -2.407  16.555  25.329  0.00  0.00    +0.000 OA
ENDBRANCH  18  25
BRANCH  22  26
ATOM     26  O   UNL     1      -5.999  15.075  22.353  0.00  0.00    +0.000 OA
ATOM     27  C   UNL     1      -6.658  13.815  22.366  0.00  0.00    +0.000 C 
ENDBRANCH  22  26
BRANCH  23  28
ATOM     28  O   UNL     1      -5.226  16.539  24.685  0.00  0.00    +0.000 OA
ATOM     29  C   UNL     1      -5.539  17.904  24.491  0.00  0.00    +0.000 C 
ENDBRANCH  23  28
ENDBRANCH   1  20
BRANCH   8  30
ATOM     30  O   UNL     1       1.191  13.306  20.969  0.00  0.00    +0.000 OA
BRANCH  30  31
ATOM     31  C   UNL     1       1.938  13.956  20.009  0.00  0.00    +0.000 C 
ATOM     32  O   UNL     1       2.823  13.376  19.385  0.00  0.00    +0.000 OA
ATOM     33  N   UNL     1       1.589  15.281  19.771  0.00  0.00    +0.000 N 
ATOM     34  C   UNL     1       0.589  16.039  20.516  0.00  0.00    +0.000 C 
ATOM     35  C   UNL     1       2.341  16.059  18.792  0.00  0.00    +0.000 C 
ENDBRANCH  30  31
ENDBRANCH   8  30
TORSDOF 6
ENDMDL
MODEL 8
REMARK VINA RESULT:      -7.2      4.457      9.167
REMARK  Name = 
REMARK  11 active torsions:
REMARK  status: ('A' for Active; 'I' for Inactive)
REMARK    1  A    between atoms: C_1  and  O_2
REMARK    2  A    between atoms: O_2  and  C_3
REMARK    3  A    between atoms: C_5  and  C_6
REMARK    4  A    between atoms: C_13  and  O_14
REMARK    5  A    between atoms: O_14  and  C_15
REMARK    6  A    between atoms: N_17  and  C_18
REMARK    7  A    between atoms: N_17  and  C_19
REMARK    8  A    between atoms: C_30  and  O_31
REMARK    9  A    between atoms: O_31  and  C_32
REMARK   10  A    between atoms: C_33  and  O_34
REMARK   11  A    between atoms: O_34  and  C_35
REMARK                            x       y       z     vdW  Elec       q    Type
REMARK                         _______ _______ _______ _____ _____    ______ ____
ROOT
ATOM      1  C   UNL     1      -2.364  13.517  21.700  0.00  0.00    +0.000 C 
ATOM      2  C   UNL     1      -2.471  13.109  20.167  0.00  0.00    +0.000 A 
ATOM      3  C   UNL     1      -3.604  12.605  19.529  0.00  0.00    +0.000 A 
ATOM      4  C   UNL     1      -3.378  11.666  18.508  0.00  0.00    +0.000 A 
ATOM      5  C   UNL     1      -2.138  11.380  17.969  0.00  0.00    +0.000 A 
ATOM      6  C   UNL     1      -1.003  12.028  18.367  0.00  0.00    +0.000 A 
ATOM      7  C   UNL     1      -1.154  12.810  19.528  0.00  0.00    +0.000 A 
ATOM      8  C   UNL     1       0.068  12.725  20.477  0.00  0.00    +0.000 C 
ATOM      9  C   UNL     1      -0.621  11.745  21.457  0.00  0.00    +0.000 C 
ATOM     10  C   UNL     1      -0.035  10.607  22.221  0.00  0.00    +0.000 C 
ATOM     11  O   UNL     1      -1.093  10.315  23.174  0.00  0.00    +0.000 OA
ATOM     12  C   UNL     1      -1.982  11.373  23.262  0.00  0.00    +0.000 C 
ATOM     13  O   UNL     1      -2.985  11.367  23.954  0.00  0.00    +0.000 OA
ATOM     14  C   UNL     1      -1.432  12.517  22.456  0.00  0.00    +0.000 C 
ATOM     15  O   UNL     1      -2.124  10.234  17.222  0.00  0.00    +0.000 OA
ATOM     16  C   UNL     1      -3.416   9.709  17.579  0.00  0.00    +0.000 C 
ATOM     17  O   UNL     1      -4.300  10.742  18.080  0.00  0.00    +0.000 OA
ENDROOT
BRANCH   1  20
ATOM     18  C   UNL     1      -5.296  15.431  23.427  0.00  0.00    +0.000 A 
ATOM     19  C   UNL     1      -4.633  14.482  22.584  0.00  0.00    +0.000 A 
ATOM     20  C   UNL     1      -3.264  14.309  22.649  0.00  0.00    +0.000 A 
ATOM     21  C   UNL     1      -2.602  15.067  23.655  0.00  0.00    +0.000 A 
ATOM     22  C   UNL     1      -3.228  15.972  24.541  0.00  0.00    +0.000 A 
ATOM     23  C   UNL     1      -4.604  16.178  24.417  0.00  0.00    +0.000 A 
BRANCH  18  25
ATOM     24  C   UNL     1      -7.487  14.610  23.812  0.00  0.00    +0.000 C 
ATOM     25  O   UNL     1      -6.648  15.634  23.293  0.00  0.00    +0.000 OA
ENDBRANCH  18  25
BRANCH  22  26
ATOM     26  O   UNL     1      -2.329  16.561  25.398  0.00  0.00    +0.000 OA
ATOM     27  C   UNL     1      -1.397  15.769  26.124  0.00  0.00    +0.000 C 
ENDBRANCH  22  26
BRANCH  23  28
ATOM     28  O   UNL     1      -5.123  17.146  25.230  0.00  0.00    +0.000 OA
ATOM     29  C   UNL     1      -5.240  18.489  24.801  0.00  0.00    +0.000 C 
ENDBRANCH  23  28
ENDBRANCH   1  20
BRANCH   8  30
ATOM     30  O   UNL     1       0.333  14.073  20.941  0.00  0.00    +0.000 OA
BRANCH  30  31
ATOM     31  C   UNL     1       1.668  14.421  20.922  0.00  0.00    +0.000 C 
ATOM     32  O   UNL     1       2.465  13.944  21.725  0.00  0.00    +0.000 OA
ATOM     33  N   UNL     1       2.045  15.302  19.914  0.00  0.00    +0.000 N 
ATOM     34  C   UNL     1       1.138  15.944  18.969  0.00  0.00    +0.000 C 
ATOM     35  C   UNL     1       3.431  15.749  19.830  0.00  0.00    +0.000 C 
ENDBRANCH  30  31
ENDBRANCH   8  30
TORSDOF 6
ENDMDL
MODEL 9
REMARK VINA RESULT:      -7.1      3.672      8.382
REMARK  Name = 
REMARK  11 active torsions:
REMARK  status: ('A' for Active; 'I' for Inactive)
REMARK    1  A    between atoms: C_1  and  O_2
REMARK    2  A    between atoms: O_2  and  C_3
REMARK    3  A    between atoms: C_5  and  C_6
REMARK    4  A    between atoms: C_13  and  O_14
REMARK    5  A    between atoms: O_14  and  C_15
REMARK    6  A    between atoms: N_17  and  C_18
REMARK    7  A    between atoms: N_17  and  C_19
REMARK    8  A    between atoms: C_30  and  O_31
REMARK    9  A    between atoms: O_31  and  C_32
REMARK   10  A    between atoms: C_33  and  O_34
REMARK   11  A    between atoms: O_34  and  C_35
REMARK                            x       y       z     vdW  Elec       q    Type
REMARK                         _______ _______ _______ _____ _____    ______ ____
ROOT
ATOM      1  C   UNL     1      -1.362  13.088  21.294  0.00  0.00    +0.000 C 
ATOM      2  C   UNL     1      -1.861  12.811  19.811  0.00  0.00    +0.000 A 
ATOM      3  C   UNL     1      -3.137  12.390  19.439  0.00  0.00    +0.000 A 
ATOM      4  C   UNL     1      -3.212  11.533  18.328  0.00  0.00    +0.000 A 
ATOM      5  C   UNL     1      -2.156  11.261  17.477  0.00  0.00    +0.000 A 
ATOM      6  C   UNL     1      -0.930  11.846  17.628  0.00  0.00    +0.000 A 
ATOM      7  C   UNL     1      -0.756  12.532  18.844  0.00  0.00    +0.000 A 
ATOM      8  C   UNL     1       0.657  12.339  19.451  0.00  0.00    +0.000 C 
ATOM      9  C   UNL     1       0.187  11.299  20.496  0.00  0.00    +0.000 C 
ATOM     10  C   UNL     1       0.891  10.087  21.003  0.00  0.00    +0.000 C 
ATOM     11  O   UNL     1       0.088   9.744  22.166  0.00  0.00    +0.000 OA
ATOM     12  C   UNL     1      -0.704  10.813  22.549  0.00  0.00    +0.000 C 
ATOM     13  O   UNL     1      -1.505  10.775  23.467  0.00  0.00    +0.000 OA
ATOM     14  C   UNL     1      -0.319  12.006  21.719  0.00  0.00    +0.000 C 
ATOM     15  O   UNL     1      -2.377  10.181  16.668  0.00  0.00    +0.000 OA
ATOM     16  C   UNL     1      -3.564   9.661  17.295  0.00  0.00    +0.000 C 
ATOM     17  O   UNL     1      -4.251  10.670  18.075  0.00  0.00    +0.000 OA
ENDROOT
BRANCH   1  20
ATOM     18  C   UNL     1      -3.694  14.911  23.840  0.00  0.00    +0.000 A 
ATOM     19  C   UNL     1      -3.299  14.017  22.794  0.00  0.00    +0.000 A 
ATOM     20  C   UNL     1      -1.964  13.821  22.493  0.00  0.00    +0.000 A 
ATOM     21  C   UNL     1      -1.044  14.494  23.344  0.00  0.00    +0.000 A 
ATOM     22  C   UNL     1      -1.395  15.341  24.419  0.00  0.00    +0.000 A 
ATOM     23  C   UNL     1      -2.749  15.574  24.667  0.00  0.00    +0.000 A 
BRANCH  18  25
ATOM     24  C   UNL     1      -5.925  14.147  23.594  0.00  0.00    +0.000 C 
ATOM     25  O   UNL     1      -5.029  15.142  24.071  0.00  0.00    +0.000 OA
ENDBRANCH  18  25
BRANCH  22  26
ATOM     26  O   UNL     1      -0.288  15.854  25.055  0.00  0.00    +0.000 OA
ATOM     27  C   UNL     1       0.356  17.019  24.555  0.00  0.00    +0.000 C 
ENDBRANCH  22  26
BRANCH  23  28
ATOM     28  O   UNL     1      -3.013  16.488  25.649  0.00  0.00    +0.000 OA
ATOM     29  C   UNL     1      -3.215  17.856  25.352  0.00  0.00    +0.000 C 
ENDBRANCH  23  28
ENDBRANCH   1  20
BRANCH   8  30
ATOM     30  O   UNL     1       1.088  13.637  19.932  0.00  0.00    +0.000 OA
BRANCH  30  31
ATOM     31  C   UNL     1       1.726  14.405  18.981  0.00  0.00    +0.000 C 
ATOM     32  O   UNL     1       2.385  13.891  18.080  0.00  0.00    +0.000 OA
ATOM     33  N   UNL     1       1.534  15.778  19.089  0.00  0.00    +0.000 N 
ATOM     34  C   UNL     1       0.813  16.449  20.165  0.00  0.00    +0.000 C 
ATOM     35  C   UNL     1       2.192  16.673  18.143  0.00  0.00    +0.000 C 
ENDBRANCH  30  31
ENDBRANCH   8  30
TORSDOF 6
ENDMDL
