MODEL 1
REMARK VINA RESULT:      -7.7      0.000      0.000
REMARK  Name = 
REMARK  5 active torsions:
REMARK  status: ('A' for Active; 'I' for Inactive)
REMARK    1  A    between atoms: C_1  and  C_2
REMARK    2  A    between atoms: N_6  and  C_7
REMARK    3  A    between atoms: C_7  and  C_8
REMARK    4  A    between atoms: N_10  and  C_11
REMARK    5  A    between atoms: C_11  and  C_12
REMARK                            x       y       z     vdW  Elec       q    Type
REMARK                         _______ _______ _______ _____ _____    ______ ____
ROOT
ATOM      1  C   UNL     1       2.566   1.413  18.852  0.00  0.00    +0.000 C 
ATOM      2  C   UNL     1       2.764   2.892  18.994  0.00  0.00    +0.000 A 
ATOM      3  C   UNL     1       1.928   3.613  19.744  0.00  0.00    +0.000 A 
ATOM      4  C   UNL     1       2.108   5.064  19.804  0.00  0.00    +0.000 A 
ATOM      5  O   UNL     1       1.283   5.703  20.451  0.00  0.00    +0.000 OA
ATOM      6  N   UNL     1       3.175   5.575  19.091  0.00  0.00    +0.000 N 
ATOM      7  C   UNL     1       3.998   4.731  18.341  0.00  0.00    +0.000 A 
ATOM      8  N   UNL     1       5.046   5.258  17.618  0.00  0.00    +0.000 N 
ATOM      9  C   UNL     1       4.857   6.052  16.401  0.00  0.00    +0.000 C 
ATOM     10  C   UNL     1       5.792   5.600  15.272  0.00  0.00    +0.000 C 
ATOM     11  O   UNL     1       7.157   5.571  15.711  0.00  0.00    +0.000 OA
ATOM     12  C   UNL     1       7.299   4.614  16.769  0.00  0.00    +0.000 C 
ATOM     13  C   UNL     1       6.440   4.981  17.986  0.00  0.00    +0.000 C 
ATOM     14  N   UNL     1       3.813   3.438  18.301  0.00  0.00    +0.000 NA
ENDROOT
BRANCH   6  15
ATOM     15  C   UNL     1       3.445   7.018  19.133  0.00  0.00    +0.000 C 
BRANCH  15  16
ATOM     16  C   UNL     1       2.403   8.017  18.610  0.00  0.00    +0.000 C 
ATOM     17  O   UNL     1       2.328   8.327  17.424  0.00  0.00    +0.000 OA
ATOM     18  N   UNL     1       1.582   8.528  19.597  0.00  0.00    +0.000 N 
ATOM     19  H   UNL     1       1.853   8.382  20.560  0.00  0.00    +0.000 HD
BRANCH  18  20
ATOM     20  C   UNL     1       0.717   9.664  19.367  0.00  0.00    +0.000 C 
BRANCH  20  21
ATOM     21  C   UNL     1       0.061  10.149  20.639  0.00  0.00    +0.000 A 
ATOM     22  C   UNL     1       0.183   9.356  21.796  0.00  0.00    +0.000 A 
ATOM     23  C   UNL     1      -0.427   9.727  22.996  0.00  0.00    +0.000 A 
ATOM     24  C   UNL     1      -1.166  10.904  23.065  0.00  0.00    +0.000 A 
ATOM     25  C   UNL     1      -1.294  11.708  21.934  0.00  0.00    +0.000 A 
ATOM     26  C   UNL     1      -0.690  11.334  20.728  0.00  0.00    +0.000 A 
ATOM     27 BR   UNL     1      -0.947  12.491  19.241  0.00  0.00    +0.000 Br
ENDBRANCH  20  21
ENDBRANCH  18  20
ENDBRANCH  15  16
ENDBRANCH   6  15
TORSDOF 4
ENDMDL
MODEL 2
REMARK VINA RESULT:      -7.5      1.854      2.372
REMARK  Name = 
REMARK  5 active torsions:
REMARK  status: ('A' for Active; 'I' for Inactive)
REMARK    1  A    between atoms: C_1  and  C_2
REMARK    2  A    between atoms: N_6  and  C_7
REMARK    3  A    between atoms: C_7  and  C_8
REMARK    4  A    between atoms: N_10  and  C_11
REMARK    5  A    between atoms: C_11  and  C_12
REMARK                            x       y       z     vdW  Elec       q    Type
REMARK                         _______ _______ _______ _____ _____    ______ ____
ROOT
ATOM      1  C   UNL     1       4.867   1.509  20.620  0.00  0.00    +0.000 C 
ATOM      2  C   UNL     1       4.161   2.678  20.002  0.00  0.00    +0.000 A 
ATOM      3  C   UNL     1       2.862   2.877  20.232  0.00  0.00    +0.000 A 
ATOM      4  C   UNL     1       2.188   3.987  19.557  0.00  0.00    +0.000 A 
ATOM      5  O   UNL     1       0.980   4.102  19.742  0.00  0.00    +0.000 OA
ATOM      6  N   UNL     1       2.979   4.776  18.745  0.00  0.00    +0.000 N 
ATOM      7  C   UNL     1       4.335   4.486  18.576  0.00  0.00    +0.000 A 
ATOM      8  N   UNL     1       5.108   5.270  17.747  0.00  0.00    +0.000 N 
ATOM      9  C   UNL     1       4.986   5.248  16.287  0.00  0.00    +0.000 C 
ATOM     10  C   UNL     1       6.354   5.160  15.599  0.00  0.00    +0.000 C 
ATOM     11  O   UNL     1       7.236   6.189  16.069  0.00  0.00    +0.000 OA
ATOM     12  C   UNL     1       7.471   6.015  17.472  0.00  0.00    +0.000 C 
ATOM     13  C   UNL     1       6.172   6.126  18.283  0.00  0.00    +0.000 C 
ATOM     14  N   UNL     1       4.912   3.486  19.188  0.00  0.00    +0.000 NA
ENDROOT
BRANCH   6  15
ATOM     15  C   UNL     1       2.385   5.932  18.063  0.00  0.00    +0.000 C 
BRANCH  15  16
ATOM     16  C   UNL     1       2.396   7.315  18.730  0.00  0.00    +0.000 C 
ATOM     17  O   UNL     1       2.573   7.461  19.936  0.00  0.00    +0.000 OA
ATOM     18  N   UNL     1       2.182   8.357  17.847  0.00  0.00    +0.000 N 
ATOM     19  H   UNL     1       1.837   8.131  16.924  0.00  0.00    +0.000 HD
BRANCH  18  20
ATOM     20  C   UNL     1       1.897   9.702  18.297  0.00  0.00    +0.000 C 
BRANCH  20  21
ATOM     21  C   UNL     1       0.415   9.994  18.321  0.00  0.00    +0.000 A 
ATOM     22  C   UNL     1      -0.382   9.479  17.281  0.00  0.00    +0.000 A 
ATOM     23  C   UNL     1      -1.753   9.741  17.222  0.00  0.00    +0.000 A 
ATOM     24  C   UNL     1      -2.355  10.517  18.207  0.00  0.00    +0.000 A 
ATOM     25  C   UNL     1      -1.587  11.031  19.250  0.00  0.00    +0.000 A 
ATOM     26  C   UNL     1      -0.211  10.777  19.306  0.00  0.00    +0.000 A 
ATOM     27 BR   UNL     1       0.747  11.545  20.758  0.00  0.00    +0.000 Br
ENDBRANCH  20  21
ENDBRANCH  18  20
ENDBRANCH  15  16
ENDBRANCH   6  15
TORSDOF 4
ENDMDL
MODEL 3
REMARK VINA RESULT:      -7.5      1.698      2.181
REMARK  Name = 
REMARK  5 active torsions:
REMARK  status: ('A' for Active; 'I' for Inactive)
REMARK    1  A    between atoms: C_1  and  C_2
REMARK    2  A    between atoms: N_6  and  C_7
REMARK    3  A    between atoms: C_7  and  C_8
REMARK    4  A    between atoms: N_10  and  C_11
REMARK    5  A    between atoms: C_11  and  C_12
REMARK                            x       y       z     vdW  Elec       q    Type
REMARK                         _______ _______ _______ _____ _____    ______ ____
ROOT
ATOM      1  C   UNL     1       4.925   1.289  21.084  0.00  0.00    +0.000 C 
ATOM      2  C   UNL     1       4.221   2.390  20.349  0.00  0.00    +0.000 A 
ATOM      3  C   UNL     1       2.922   2.612  20.556  0.00  0.00    +0.000 A 
ATOM      4  C   UNL     1       2.250   3.648  19.770  0.00  0.00    +0.000 A 
ATOM      5  O   UNL     1       1.042   3.783  19.940  0.00  0.00    +0.000 OA
ATOM      6  N   UNL     1       3.043   4.350  18.883  0.00  0.00    +0.000 N 
ATOM      7  C   UNL     1       4.399   4.042  18.746  0.00  0.00    +0.000 A 
ATOM      8  N   UNL     1       5.174   4.737  17.842  0.00  0.00    +0.000 N 
ATOM      9  C   UNL     1       5.053   4.567  16.392  0.00  0.00    +0.000 C 
ATOM     10  C   UNL     1       6.422   4.408  15.718  0.00  0.00    +0.000 C 
ATOM     11  O   UNL     1       7.305   5.479  16.082  0.00  0.00    +0.000 OA
ATOM     12  C   UNL     1       7.537   5.448  17.496  0.00  0.00    +0.000 C 
ATOM     13  C   UNL     1       6.238   5.643  18.290  0.00  0.00    +0.000 C 
ATOM     14  N   UNL     1       4.974   3.110  19.458  0.00  0.00    +0.000 NA
ENDROOT
BRANCH   6  15
ATOM     15  C   UNL     1       2.451   5.431  18.086  0.00  0.00    +0.000 C 
BRANCH  15  16
ATOM     16  C   UNL     1       2.545   6.887  18.564  0.00  0.00    +0.000 C 
ATOM     17  O   UNL     1       3.275   7.711  18.020  0.00  0.00    +0.000 OA
ATOM     18  N   UNL     1       1.744   7.164  19.656  0.00  0.00    +0.000 N 
ATOM     19  H   UNL     1       1.348   6.383  20.162  0.00  0.00    +0.000 HD
BRANCH  18  20
ATOM     20  C   UNL     1       1.876   8.386  20.418  0.00  0.00    +0.000 C 
BRANCH  20  21
ATOM     21  C   UNL     1       0.776   9.374  20.107  0.00  0.00    +0.000 A 
ATOM     22  C   UNL     1       0.617   9.796  18.773  0.00  0.00    +0.000 A 
ATOM     23  C   UNL     1      -0.356  10.734  18.422  0.00  0.00    +0.000 A 
ATOM     24  C   UNL     1      -1.197  11.262  19.396  0.00  0.00    +0.000 A 
ATOM     25  C   UNL     1      -1.063  10.853  20.722  0.00  0.00    +0.000 A 
ATOM     26  C   UNL     1      -0.081   9.919  21.078  0.00  0.00    +0.000 A 
ATOM     27 BR   UNL     1       0.031   9.448  22.916  0.00  0.00    +0.000 Br
ENDBRANCH  20  21
ENDBRANCH  18  20
ENDBRANCH  15  16
ENDBRANCH   6  15
TORSDOF 4
ENDMDL
MODEL 4
REMARK VINA RESULT:      -7.4      1.389      3.731
REMARK  Name = 
REMARK  5 active torsions:
REMARK  status: ('A' for Active; 'I' for Inactive)
REMARK    1  A    between atoms: C_1  and  C_2
REMARK    2  A    between atoms: N_6  and  C_7
REMARK    3  A    between atoms: C_7  and  C_8
REMARK    4  A    between atoms: N_10  and  C_11
REMARK    5  A    between atoms: C_11  and  C_12
REMARK                            x       y       z     vdW  Elec       q    Type
REMARK                         _______ _______ _______ _____ _____    ______ ____
ROOT
ATOM      1  C   UNL     1       5.935   3.393  14.794  0.00  0.00    +0.000 C 
ATOM      2  C   UNL     1       5.396   4.417  15.747  0.00  0.00    +0.000 A 
ATOM      3  C   UNL     1       5.905   5.651  15.766  0.00  0.00    +0.000 A 
ATOM      4  C   UNL     1       5.404   6.605  16.756  0.00  0.00    +0.000 A 
ATOM      5  O   UNL     1       5.938   7.710  16.787  0.00  0.00    +0.000 OA
ATOM      6  N   UNL     1       4.399   6.149  17.588  0.00  0.00    +0.000 N 
ATOM      7  C   UNL     1       3.931   4.838  17.481  0.00  0.00    +0.000 A 
ATOM      8  N   UNL     1       2.942   4.390  18.331  0.00  0.00    +0.000 N 
ATOM      9  C   UNL     1       3.171   4.127  19.754  0.00  0.00    +0.000 C 
ATOM     10  C   UNL     1       2.578   2.781  20.191  0.00  0.00    +0.000 C 
ATOM     11  O   UNL     1       1.196   2.681  19.821  0.00  0.00    +0.000 OA
ATOM     12  C   UNL     1       1.076   2.739  18.394  0.00  0.00    +0.000 C 
ATOM     13  C   UNL     1       1.599   4.068  17.833  0.00  0.00    +0.000 C 
ATOM     14  N   UNL     1       4.397   4.004  16.590  0.00  0.00    +0.000 NA
ENDROOT
BRANCH   6  15
ATOM     15  C   UNL     1       3.818   7.059  18.582  0.00  0.00    +0.000 C 
BRANCH  15  16
ATOM     16  C   UNL     1       2.701   8.034  18.182  0.00  0.00    +0.000 C 
ATOM     17  O   UNL     1       2.653   8.558  17.073  0.00  0.00    +0.000 OA
ATOM     18  N   UNL     1       1.779   8.261  19.187  0.00  0.00    +0.000 N 
ATOM     19  H   UNL     1       2.015   7.959  20.122  0.00  0.00    +0.000 HD
BRANCH  18  20
ATOM     20  C   UNL     1       0.807   9.330  19.112  0.00  0.00    +0.000 C 
BRANCH  20  21
ATOM     21  C   UNL     1       0.335   9.768  20.478  0.00  0.00    +0.000 A 
ATOM     22  C   UNL     1      -0.062   8.777  21.396  0.00  0.00    +0.000 A 
ATOM     23  C   UNL     1      -0.542   9.115  22.663  0.00  0.00    +0.000 A 
ATOM     24  C   UNL     1      -0.626  10.451  23.042  0.00  0.00    +0.000 A 
ATOM     25  C   UNL     1      -0.231  11.449  22.152  0.00  0.00    +0.000 A 
ATOM     26  C   UNL     1       0.242  11.113  20.877  0.00  0.00    +0.000 A 
ATOM     27 BR   UNL     1       0.731  12.551  19.734  0.00  0.00    +0.000 Br
ENDBRANCH  20  21
ENDBRANCH  18  20
ENDBRANCH  15  16
ENDBRANCH   6  15
TORSDOF 4
ENDMDL
MODEL 5
REMARK VINA RESULT:      -7.1      2.053      2.560
REMARK  Name = 
REMARK  5 active torsions:
REMARK  status: ('A' for Active; 'I' for Inactive)
REMARK    1  A    between atoms: C_1  and  C_2
REMARK    2  A    between atoms: N_6  and  C_7
REMARK    3  A    between atoms: C_7  and  C_8
REMARK    4  A    between atoms: N_10  and  C_11
REMARK    5  A    between atoms: C_11  and  C_12
REMARK                            x       y       z     vdW  Elec       q    Type
REMARK                         _______ _______ _______ _____ _____    ______ ____
ROOT
ATOM      1  C   UNL     1       3.847   0.973  18.425  0.00  0.00    +0.000 C 
ATOM      2  C   UNL     1       3.466   2.409  18.223  0.00  0.00    +0.000 A 
ATOM      3  C   UNL     1       2.200   2.737  17.958  0.00  0.00    +0.000 A 
ATOM      4  C   UNL     1       1.875   4.139  17.696  0.00  0.00    +0.000 A 
ATOM      5  O   UNL     1       0.713   4.397  17.394  0.00  0.00    +0.000 OA
ATOM      6  N   UNL     1       2.925   5.034  17.779  0.00  0.00    +0.000 N 
ATOM      7  C   UNL     1       4.216   4.587  18.070  0.00  0.00    +0.000 A 
ATOM      8  N   UNL     1       5.258   5.488  18.131  0.00  0.00    +0.000 N 
ATOM      9  C   UNL     1       5.817   6.140  16.944  0.00  0.00    +0.000 C 
ATOM     10  C   UNL     1       7.351   6.099  16.937  0.00  0.00    +0.000 C 
ATOM     11  O   UNL     1       7.888   6.616  18.163  0.00  0.00    +0.000 OA
ATOM     12  C   UNL     1       7.459   5.795  19.257  0.00  0.00    +0.000 C 
ATOM     13  C   UNL     1       5.931   5.789  19.399  0.00  0.00    +0.000 C 
ATOM     14  N   UNL     1       4.480   3.328  18.297  0.00  0.00    +0.000 NA
ENDROOT
BRANCH   6  15
ATOM     15  C   UNL     1       2.672   6.464  17.568  0.00  0.00    +0.000 C 
BRANCH  15  16
ATOM     16  C   UNL     1       2.381   7.385  18.761  0.00  0.00    +0.000 C 
ATOM     17  O   UNL     1       2.515   7.014  19.924  0.00  0.00    +0.000 OA
ATOM     18  N   UNL     1       1.953   8.647  18.395  0.00  0.00    +0.000 N 
ATOM     19  H   UNL     1       1.671   8.791  17.435  0.00  0.00    +0.000 HD
BRANCH  18  20
ATOM     20  C   UNL     1       1.383   9.573  19.349  0.00  0.00    +0.000 C 
BRANCH  20  21
ATOM     21  C   UNL     1       0.185  10.303  18.789  0.00  0.00    +0.000 A 
ATOM     22  C   UNL     1      -0.632   9.630  17.860  0.00  0.00    +0.000 A 
ATOM     23  C   UNL     1      -1.734  10.258  17.277  0.00  0.00    +0.000 A 
ATOM     24  C   UNL     1      -2.048  11.570  17.618  0.00  0.00    +0.000 A 
ATOM     25  C   UNL     1      -1.259  12.253  18.541  0.00  0.00    +0.000 A 
ATOM     26  C   UNL     1      -0.147  11.628  19.120  0.00  0.00    +0.000 A 
ATOM     27 BR   UNL     1       0.875  12.658  20.349  0.00  0.00    +0.000 Br
ENDBRANCH  20  21
ENDBRANCH  18  20
ENDBRANCH  15  16
ENDBRANCH   6  15
TORSDOF 4
ENDMDL
MODEL 6
REMARK VINA RESULT:      -7.1      1.795      2.122
REMARK  Name = 
REMARK  5 active torsions:
REMARK  status: ('A' for Active; 'I' for Inactive)
REMARK    1  A    between atoms: C_1  and  C_2
REMARK    2  A    between atoms: N_6  and  C_7
REMARK    3  A    between atoms: C_7  and  C_8
REMARK    4  A    between atoms: N_10  and  C_11
REMARK    5  A    between atoms: C_11  and  C_12
REMARK                            x       y       z     vdW  Elec       q    Type
REMARK                         _______ _______ _______ _____ _____    ______ ____
ROOT
ATOM      1  C   UNL     1       3.616   1.045  18.585  0.00  0.00    +0.000 C 
ATOM      2  C   UNL     1       3.344   2.477  18.939  0.00  0.00    +0.000 A 
ATOM      3  C   UNL     1       2.161   2.831  19.443  0.00  0.00    +0.000 A 
ATOM      4  C   UNL     1       1.904   4.247  19.712  0.00  0.00    +0.000 A 
ATOM      5  O   UNL     1       0.784   4.544  20.115  0.00  0.00    +0.000 OA
ATOM      6  N   UNL     1       2.945   5.115  19.446  0.00  0.00    +0.000 N 
ATOM      7  C   UNL     1       4.150   4.640  18.923  0.00  0.00    +0.000 A 
ATOM      8  N   UNL     1       5.173   5.521  18.644  0.00  0.00    +0.000 N 
ATOM      9  C   UNL     1       5.130   6.463  17.522  0.00  0.00    +0.000 C 
ATOM     10  C   UNL     1       6.438   6.460  16.721  0.00  0.00    +0.000 C 
ATOM     11  O   UNL     1       7.570   6.666  17.579  0.00  0.00    +0.000 OA
ATOM     12  C   UNL     1       7.661   5.587  18.518  0.00  0.00    +0.000 C 
ATOM     13  C   UNL     1       6.420   5.510  19.417  0.00  0.00    +0.000 C 
ATOM     14  N   UNL     1       4.353   3.371  18.689  0.00  0.00    +0.000 NA
ENDROOT
BRANCH   6  15
ATOM     15  C   UNL     1       2.778   6.547  19.725  0.00  0.00    +0.000 C 
BRANCH  15  16
ATOM     16  C   UNL     1       2.161   7.476  18.669  0.00  0.00    +0.000 C 
ATOM     17  O   UNL     1       1.930   7.104  17.522  0.00  0.00    +0.000 OA
ATOM     18  N   UNL     1       1.907   8.752  19.136  0.00  0.00    +0.000 N 
ATOM     19  H   UNL     1       2.322   9.025  20.017  0.00  0.00    +0.000 HD
BRANCH  18  20
ATOM     20  C   UNL     1       1.575   9.845  18.248  0.00  0.00    +0.000 C 
BRANCH  20  21
ATOM     21  C   UNL     1       0.168  10.349  18.465  0.00  0.00    +0.000 A 
ATOM     22  C   UNL     1      -0.863   9.812  17.671  0.00  0.00    +0.000 A 
ATOM     23  C   UNL     1      -2.180  10.259  17.795  0.00  0.00    +0.000 A 
ATOM     24  C   UNL     1      -2.495  11.246  18.723  0.00  0.00    +0.000 A 
ATOM     25  C   UNL     1      -1.492  11.786  19.526  0.00  0.00    +0.000 A 
ATOM     26  C   UNL     1      -0.169  11.346  19.397  0.00  0.00    +0.000 A 
ATOM     27 BR   UNL     1       1.125  12.167  20.523  0.00  0.00    +0.000 Br
ENDBRANCH  20  21
ENDBRANCH  18  20
ENDBRANCH  15  16
ENDBRANCH   6  15
TORSDOF 4
ENDMDL
MODEL 7
REMARK VINA RESULT:      -7.1      2.103      4.352
REMARK  Name = 
REMARK  5 active torsions:
REMARK  status: ('A' for Active; 'I' for Inactive)
REMARK    1  A    between atoms: C_1  and  C_2
REMARK    2  A    between atoms: N_6  and  C_7
REMARK    3  A    between atoms: C_7  and  C_8
REMARK    4  A    between atoms: N_10  and  C_11
REMARK    5  A    between atoms: C_11  and  C_12
REMARK                            x       y       z     vdW  Elec       q    Type
REMARK                         _______ _______ _______ _____ _____    ______ ____
ROOT
ATOM      1  C   UNL     1       5.889   3.881  13.908  0.00  0.00    +0.000 C 
ATOM      2  C   UNL     1       5.517   4.625  15.155  0.00  0.00    +0.000 A 
ATOM      3  C   UNL     1       5.995   5.851  15.374  0.00  0.00    +0.000 A 
ATOM      4  C   UNL     1       5.669   6.521  16.634  0.00  0.00    +0.000 A 
ATOM      5  O   UNL     1       6.177   7.621  16.829  0.00  0.00    +0.000 OA
ATOM      6  N   UNL     1       4.846   5.825  17.498  0.00  0.00    +0.000 N 
ATOM      7  C   UNL     1       4.393   4.545  17.170  0.00  0.00    +0.000 A 
ATOM      8  N   UNL     1       3.589   3.854  18.051  0.00  0.00    +0.000 N 
ATOM      9  C   UNL     1       4.085   3.288  19.309  0.00  0.00    +0.000 C 
ATOM     10  C   UNL     1       3.612   1.843  19.513  0.00  0.00    +0.000 C 
ATOM     11  O   UNL     1       2.187   1.742  19.381  0.00  0.00    +0.000 OA
ATOM     12  C   UNL     1       1.802   2.116  18.052  0.00  0.00    +0.000 C 
ATOM     13  C   UNL     1       2.184   3.569  17.737  0.00  0.00    +0.000 C 
ATOM     14  N   UNL     1       4.701   3.967  16.039  0.00  0.00    +0.000 NA
ENDROOT
BRANCH   6  15
ATOM     15  C   UNL     1       4.443   6.445  18.766  0.00  0.00    +0.000 C 
BRANCH  15  16
ATOM     16  C   UNL     1       3.074   7.129  18.893  0.00  0.00    +0.000 C 
ATOM     17  O   UNL     1       2.187   6.693  19.622  0.00  0.00    +0.000 OA
ATOM     18  N   UNL     1       2.944   8.259  18.107  0.00  0.00    +0.000 N 
ATOM     19  H   UNL     1       3.638   8.416  17.388  0.00  0.00    +0.000 HD
BRANCH  18  20
ATOM     20  C   UNL     1       1.666   8.896  17.879  0.00  0.00    +0.000 C 
BRANCH  20  21
ATOM     21  C   UNL     1       1.608  10.286  18.468  0.00  0.00    +0.000 A 
ATOM     22  C   UNL     1       2.315  11.315  17.817  0.00  0.00    +0.000 A 
ATOM     23  C   UNL     1       2.334  12.615  18.327  0.00  0.00    +0.000 A 
ATOM     24  C   UNL     1       1.638  12.914  19.494  0.00  0.00    +0.000 A 
ATOM     25  C   UNL     1       0.925  11.913  20.150  0.00  0.00    +0.000 A 
ATOM     26  C   UNL     1       0.912  10.606  19.646  0.00  0.00    +0.000 A 
ATOM     27 BR   UNL     1      -0.072   9.313  20.632  0.00  0.00    +0.000 Br
ENDBRANCH  20  21
ENDBRANCH  18  20
ENDBRANCH  15  16
ENDBRANCH   6  15
TORSDOF 4
ENDMDL
MODEL 8
REMARK VINA RESULT:      -7.0      3.448      8.606
REMARK  Name = 
REMARK  5 active torsions:
REMARK  status: ('A' for Active; 'I' for Inactive)
REMARK    1  A    between atoms: C_1  and  C_2
REMARK    2  A    between atoms: N_6  and  C_7
REMARK    3  A    between atoms: C_7  and  C_8
REMARK    4  A    between atoms: N_10  and  C_11
REMARK    5  A    between atoms: C_11  and  C_12
REMARK                            x       y       z     vdW  Elec       q    Type
REMARK                         _______ _______ _______ _____ _____    ______ ____
ROOT
ATOM      1  C   UNL     1      -3.681  11.263  17.135  0.00  0.00    +0.000 C 
ATOM      2  C   UNL     1      -2.424  11.026  17.918  0.00  0.00    +0.000 A 
ATOM      3  C   UNL     1      -1.472  10.226  17.433  0.00  0.00    +0.000 A 
ATOM      4  C   UNL     1      -0.290   9.961  18.253  0.00  0.00    +0.000 A 
ATOM      5  O   UNL     1       0.536   9.171  17.804  0.00  0.00    +0.000 OA
ATOM      6  N   UNL     1      -0.240  10.601  19.477  0.00  0.00    +0.000 N 
ATOM      7  C   UNL     1      -1.290  11.425  19.889  0.00  0.00    +0.000 A 
ATOM      8  N   UNL     1      -1.237  12.042  21.121  0.00  0.00    +0.000 N 
ATOM      9  C   UNL     1      -1.394  11.315  22.384  0.00  0.00    +0.000 C 
ATOM     10  C   UNL     1      -2.364  12.026  23.336  0.00  0.00    +0.000 C 
ATOM     11  O   UNL     1      -1.992  13.398  23.525  0.00  0.00    +0.000 OA
ATOM     12  C   UNL     1      -2.065  14.091  22.272  0.00  0.00    +0.000 C 
ATOM     13  C   UNL     1      -1.099  13.498  21.237  0.00  0.00    +0.000 C 
ATOM     14  N   UNL     1      -2.337  11.644  19.138  0.00  0.00    +0.000 NA
ENDROOT
BRANCH   6  15
ATOM     15  C   UNL     1       0.932  10.415  20.341  0.00  0.00    +0.000 C 
BRANCH  15  16
ATOM     16  C   UNL     1       1.138   9.093  21.093  0.00  0.00    +0.000 C 
ATOM     17  O   UNL     1       0.892   8.972  22.290  0.00  0.00    +0.000 OA
ATOM     18  N   UNL     1       1.630   8.075  20.298  0.00  0.00    +0.000 N 
ATOM     19  H   UNL     1       2.001   8.321  19.390  0.00  0.00    +0.000 HD
BRANCH  18  20
ATOM     20  C   UNL     1       2.137   6.839  20.854  0.00  0.00    +0.000 C 
BRANCH  20  21
ATOM     21  C   UNL     1       1.888   5.659  19.945  0.00  0.00    +0.000 A 
ATOM     22  C   UNL     1       1.135   4.579  20.445  0.00  0.00    +0.000 A 
ATOM     23  C   UNL     1       0.898   3.442  19.670  0.00  0.00    +0.000 A 
ATOM     24  C   UNL     1       1.401   3.366  18.375  0.00  0.00    +0.000 A 
ATOM     25  C   UNL     1       2.143   4.426  17.857  0.00  0.00    +0.000 A 
ATOM     26  C   UNL     1       2.390   5.563  18.635  0.00  0.00    +0.000 A 
ATOM     27 BR   UNL     1       3.432   6.940  17.840  0.00  0.00    +0.000 Br
ENDBRANCH  20  21
ENDBRANCH  18  20
ENDBRANCH  15  16
ENDBRANCH   6  15
TORSDOF 4
ENDMDL
MODEL 9
REMARK VINA RESULT:      -7.0      3.629      8.913
REMARK  Name = 
REMARK  5 active torsions:
REMARK  status: ('A' for Active; 'I' for Inactive)
REMARK    1  A    between atoms: C_1  and  C_2
REMARK    2  A    between atoms: N_6  and  C_7
REMARK    3  A    between atoms: C_7  and  C_8
REMARK    4  A    between atoms: N_10  and  C_11
REMARK    5  A    between atoms: C_11  and  C_12
REMARK                            x       y       z     vdW  Elec       q    Type
REMARK                         _______ _______ _______ _____ _____    ______ ____
ROOT
ATOM      1  C   UNL     1      -3.931  11.252  17.236  0.00  0.00    +0.000 C 
ATOM      2  C   UNL     1      -2.654  11.159  18.017  0.00  0.00    +0.000 A 
ATOM      3  C   UNL     1      -1.622  10.464  17.535  0.00  0.00    +0.000 A 
ATOM      4  C   UNL     1      -0.416  10.335  18.354  0.00  0.00    +0.000 A 
ATOM      5  O   UNL     1       0.490   9.636  17.908  0.00  0.00    +0.000 OA
ATOM      6  N   UNL     1      -0.434  10.986  19.572  0.00  0.00    +0.000 N 
ATOM      7  C   UNL     1      -1.566  11.695  19.981  0.00  0.00    +0.000 A 
ATOM      8  N   UNL     1      -1.578  12.324  21.208  0.00  0.00    +0.000 N 
ATOM      9  C   UNL     1      -1.652  11.595  22.477  0.00  0.00    +0.000 C 
ATOM     10  C   UNL     1      -2.692  12.204  23.426  0.00  0.00    +0.000 C 
ATOM     11  O   UNL     1      -2.471  13.610  23.604  0.00  0.00    +0.000 OA
ATOM     12  C   UNL     1      -2.622  14.280  22.346  0.00  0.00    +0.000 C 
ATOM     13  C   UNL     1      -1.599  13.787  21.313  0.00  0.00    +0.000 C 
ATOM     14  N   UNL     1      -2.632  11.793  19.232  0.00  0.00    +0.000 NA
ENDROOT
BRANCH   6  15
ATOM     15  C   UNL     1       0.753  10.936  20.434  0.00  0.00    +0.000 C 
BRANCH  15  16
ATOM     16  C   UNL     1       1.108   9.647  21.189  0.00  0.00    +0.000 C 
ATOM     17  O   UNL     1       1.362   9.639  22.390  0.00  0.00    +0.000 OA
ATOM     18  N   UNL     1       1.121   8.521  20.387  0.00  0.00    +0.000 N 
ATOM     19  H   UNL     1       1.110   8.655  19.385  0.00  0.00    +0.000 HD
BRANCH  18  20
ATOM     20  C   UNL     1       1.677   7.263  20.834  0.00  0.00    +0.000 C 
BRANCH  20  21
ATOM     21  C   UNL     1       2.391   6.529  19.724  0.00  0.00    +0.000 A 
ATOM     22  C   UNL     1       2.885   7.277  18.639  0.00  0.00    +0.000 A 
ATOM     23  C   UNL     1       3.524   6.658  17.563  0.00  0.00    +0.000 A 
ATOM     24  C   UNL     1       3.690   5.277  17.554  0.00  0.00    +0.000 A 
ATOM     25  C   UNL     1       3.215   4.516  18.622  0.00  0.00    +0.000 A 
ATOM     26  C   UNL     1       2.567   5.135  19.698  0.00  0.00    +0.000 A 
ATOM     27 BR   UNL     1       1.939   4.002  21.090  0.00  0.00    +0.000 Br
ENDBRANCH  20  21
ENDBRANCH  18  20
ENDBRANCH  15  16
ENDBRANCH   6  15
TORSDOF 4
ENDMDL
