MODEL 1
REMARK VINA RESULT:      -8.7      0.000      0.000
REMARK  Name = 
REMARK  7 active torsions:
REMARK  status: ('A' for Active; 'I' for Inactive)
REMARK    1  A    between atoms: C_1  and  C_2
REMARK    2  A    between atoms: N_4  and  C_5
REMARK    3  A    between atoms: C_7  and  C_8
REMARK    4  A    between atoms: C_8  and  C_9
REMARK    5  A    between atoms: C_8  and  N_10
REMARK    6  A    between atoms: C_15  and  O_16
REMARK    7  A    between atoms: C_18  and  C_19
REMARK                            x       y       z     vdW  Elec       q    Type
REMARK                         _______ _______ _______ _____ _____    ______ ____
ROOT
ATOM      1  N   UNL     1       5.618   3.872  18.625  0.00  0.00    +0.000 N 
ATOM      2  C   UNL     1       4.795   4.719  19.321  0.00  0.00    +0.000 C 
ATOM      3  O   UNL     1       5.149   5.840  19.655  0.00  0.00    +0.000 OA
ATOM      4  N   UNL     1       3.534   4.210  19.569  0.00  0.00    +0.000 N 
ATOM      5  C   UNL     1       3.164   2.796  19.566  0.00  0.00    +0.000 C 
ATOM      6  C   UNL     1       1.653   2.857  19.416  0.00  0.00    +0.000 C 
ATOM      7  C   UNL     1       1.255   4.053  20.281  0.00  0.00    +0.000 C 
ATOM      8  C   UNL     1       2.510   4.967  20.304  0.00  0.00    +0.000 C 
ATOM      9  H   UNL     1       5.198   3.089  18.161  0.00  0.00    +0.000 HD
ENDROOT
BRANCH   8  10
ATOM     10  C   UNL     1       2.201   6.356  19.784  0.00  0.00    +0.000 A 
ATOM     11  C   UNL     1       2.367   6.703  18.434  0.00  0.00    +0.000 A 
ATOM     12  C   UNL     1       2.078   7.993  17.980  0.00  0.00    +0.000 A 
ATOM     13  C   UNL     1       1.608   8.954  18.872  0.00  0.00    +0.000 A 
ATOM     14  C   UNL     1       1.429   8.617  20.206  0.00  0.00    +0.000 A 
ATOM     15  F   UNL     1       0.968   9.537  21.062  0.00  0.00    +0.000 F 
ATOM     16  C   UNL     1       1.714   7.334  20.666  0.00  0.00    +0.000 A 
ENDBRANCH   8  10
BRANCH   1  17
ATOM     17  C   UNL     1       6.868   4.313  18.029  0.00  0.00    +0.000 C 
ATOM     18  C   UNL     1       7.386   5.565  18.746  0.00  0.00    +0.000 C 
BRANCH  17  25
ATOM     19  C   UNL     1       5.648   7.030  16.681  0.00  0.00    +0.000 C 
ATOM     20  C   UNL     1       6.057   5.777  16.001  0.00  0.00    +0.000 A 
ATOM     21  N   UNL     1       5.933   5.675  14.673  0.00  0.00    +0.000 NA
ATOM     22  N   UNL     1       6.378   4.444  14.392  0.00  0.00    +0.000 N 
ATOM     23  C   UNL     1       6.387   3.969  13.030  0.00  0.00    +0.000 C 
ATOM     24  C   UNL     1       6.779   3.749  15.495  0.00  0.00    +0.000 A 
ATOM     25  C   UNL     1       6.590   4.587  16.579  0.00  0.00    +0.000 A 
ENDBRANCH  17  25
ENDBRANCH   1  17
BRANCH   6  26
ATOM     26  O   UNL     1       1.323   3.094  18.043  0.00  0.00    +0.000 OA
ATOM     27  H   UNL     1       0.395   2.817  17.918  0.00  0.00    +0.000 HD
ENDBRANCH   6  26
TORSDOF 4
ENDMDL
MODEL 2
REMARK VINA RESULT:      -8.7      0.904      1.319
REMARK  Name = 
REMARK  7 active torsions:
REMARK  status: ('A' for Active; 'I' for Inactive)
REMARK    1  A    between atoms: C_1  and  C_2
REMARK    2  A    between atoms: N_4  and  C_5
REMARK    3  A    between atoms: C_7  and  C_8
REMARK    4  A    between atoms: C_8  and  C_9
REMARK    5  A    between atoms: C_8  and  N_10
REMARK    6  A    between atoms: C_15  and  O_16
REMARK    7  A    between atoms: C_18  and  C_19
REMARK                            x       y       z     vdW  Elec       q    Type
REMARK                         _______ _______ _______ _____ _____    ______ ____
ROOT
ATOM      1  N   UNL     1       5.436   3.830  18.492  0.00  0.00    +0.000 N 
ATOM      2  C   UNL     1       4.648   4.602  19.305  0.00  0.00    +0.000 C 
ATOM      3  O   UNL     1       5.035   5.669  19.760  0.00  0.00    +0.000 OA
ATOM      4  N   UNL     1       3.383   4.091  19.524  0.00  0.00    +0.000 N 
ATOM      5  C   UNL     1       2.983   2.695  19.362  0.00  0.00    +0.000 C 
ATOM      6  C   UNL     1       1.470   2.801  19.260  0.00  0.00    +0.000 C 
ATOM      7  C   UNL     1       1.119   3.893  20.272  0.00  0.00    +0.000 C 
ATOM      8  C   UNL     1       2.393   4.774  20.371  0.00  0.00    +0.000 C 
ATOM      9  H   UNL     1       4.988   3.117  17.948  0.00  0.00    +0.000 HD
ENDROOT
BRANCH   8  10
ATOM     10  C   UNL     1       2.103   6.220  20.027  0.00  0.00    +0.000 A 
ATOM     11  C   UNL     1       1.589   7.124  20.969  0.00  0.00    +0.000 A 
ATOM     12  C   UNL     1       1.326   8.454  20.626  0.00  0.00    +0.000 A 
ATOM     13  C   UNL     1       1.584   8.900  19.331  0.00  0.00    +0.000 A 
ATOM     14  C   UNL     1       2.103   8.016  18.396  0.00  0.00    +0.000 A 
ATOM     15  F   UNL     1       2.361   8.447  17.155  0.00  0.00    +0.000 F 
ATOM     16  C   UNL     1       2.369   6.691  18.731  0.00  0.00    +0.000 A 
ENDBRANCH   8  10
BRANCH   1  17
ATOM     17  C   UNL     1       6.681   4.316  17.919  0.00  0.00    +0.000 C 
ATOM     18  C   UNL     1       7.126   5.600  18.628  0.00  0.00    +0.000 C 
BRANCH  17  25
ATOM     19  C   UNL     1       5.250   6.896  16.510  0.00  0.00    +0.000 C 
ATOM     20  C   UNL     1       5.802   5.686  15.853  0.00  0.00    +0.000 A 
ATOM     21  N   UNL     1       5.735   5.565  14.522  0.00  0.00    +0.000 NA
ATOM     22  N   UNL     1       6.307   4.383  14.267  0.00  0.00    +0.000 N 
ATOM     23  C   UNL     1       6.409   3.905  12.909  0.00  0.00    +0.000 C 
ATOM     24  C   UNL     1       6.735   3.735  15.387  0.00  0.00    +0.000 A 
ATOM     25  C   UNL     1       6.428   4.556  16.458  0.00  0.00    +0.000 A 
ENDBRANCH  17  25
ENDBRANCH   1  17
BRANCH   6  26
ATOM     26  O   UNL     1       1.113   3.207  17.935  0.00  0.00    +0.000 OA
ATOM     27  H   UNL     1       0.273   2.761  17.714  0.00  0.00    +0.000 HD
ENDBRANCH   6  26
TORSDOF 4
ENDMDL
MODEL 3
REMARK VINA RESULT:      -8.5      3.271      5.089
REMARK  Name = 
REMARK  7 active torsions:
REMARK  status: ('A' for Active; 'I' for Inactive)
REMARK    1  A    between atoms: C_1  and  C_2
REMARK    2  A    between atoms: N_4  and  C_5
REMARK    3  A    between atoms: C_7  and  C_8
REMARK    4  A    between atoms: C_8  and  C_9
REMARK    5  A    between atoms: C_8  and  N_10
REMARK    6  A    between atoms: C_15  and  O_16
REMARK    7  A    between atoms: C_18  and  C_19
REMARK                            x       y       z     vdW  Elec       q    Type
REMARK                         _______ _______ _______ _____ _____    ______ ____
ROOT
ATOM      1  N   UNL     1       2.328   7.192  19.170  0.00  0.00    +0.000 N 
ATOM      2  C   UNL     1       1.878   8.484  19.081  0.00  0.00    +0.000 C 
ATOM      3  O   UNL     1       1.958   9.129  18.045  0.00  0.00    +0.000 OA
ATOM      4  N   UNL     1       1.298   8.965  20.239  0.00  0.00    +0.000 N 
ATOM      5  C   UNL     1       1.509   8.439  21.586  0.00  0.00    +0.000 C 
ATOM      6  C   UNL     1       0.314   8.997  22.342  0.00  0.00    +0.000 C 
ATOM      7  C   UNL     1       0.154  10.405  21.769  0.00  0.00    +0.000 C 
ATOM      8  C   UNL     1       0.759  10.330  20.341  0.00  0.00    +0.000 C 
ATOM      9  H   UNL     1       2.007   6.638  19.941  0.00  0.00    +0.000 HD
ENDROOT
BRANCH   8  10
ATOM     10  C   UNL     1      -0.248  10.732  19.284  0.00  0.00    +0.000 A 
ATOM     11  C   UNL     1      -0.209  11.983  18.651  0.00  0.00    +0.000 A 
ATOM     12  C   UNL     1      -1.153  12.331  17.680  0.00  0.00    +0.000 A 
ATOM     13  C   UNL     1      -2.148  11.424  17.323  0.00  0.00    +0.000 A 
ATOM     14  C   UNL     1      -2.188  10.179  17.935  0.00  0.00    +0.000 A 
ATOM     15  F   UNL     1      -3.138   9.303  17.584  0.00  0.00    +0.000 F 
ATOM     16  C   UNL     1      -1.250   9.825  18.901  0.00  0.00    +0.000 A 
ENDBRANCH   8  10
BRANCH   1  17
ATOM     17  C   UNL     1       2.710   6.415  18.002  0.00  0.00    +0.000 C 
ATOM     18  C   UNL     1       1.961   5.077  17.987  0.00  0.00    +0.000 C 
BRANCH  17  25
ATOM     19  C   UNL     1       4.922   6.746  15.617  0.00  0.00    +0.000 C 
ATOM     20  C   UNL     1       5.153   6.358  17.030  0.00  0.00    +0.000 A 
ATOM     21  N   UNL     1       6.395   6.089  17.448  0.00  0.00    +0.000 NA
ATOM     22  N   UNL     1       6.249   5.776  18.741  0.00  0.00    +0.000 N 
ATOM     23  C   UNL     1       7.400   5.416  19.534  0.00  0.00    +0.000 C 
ATOM     24  C   UNL     1       4.956   5.829  19.169  0.00  0.00    +0.000 A 
ATOM     25  C   UNL     1       4.196   6.211  18.077  0.00  0.00    +0.000 A 
ENDBRANCH  17  25
ENDBRANCH   1  17
BRANCH   6  26
ATOM     26  O   UNL     1      -0.841   8.201  22.056  0.00  0.00    +0.000 OA
ATOM     27  H   UNL     1      -0.982   7.613  22.822  0.00  0.00    +0.000 HD
ENDBRANCH   6  26
TORSDOF 4
ENDMDL
MODEL 4
REMARK VINA RESULT:      -8.4      3.211      5.202
REMARK  Name = 
REMARK  7 active torsions:
REMARK  status: ('A' for Active; 'I' for Inactive)
REMARK    1  A    between atoms: C_1  and  C_2
REMARK    2  A    between atoms: N_4  and  C_5
REMARK    3  A    between atoms: C_7  and  C_8
REMARK    4  A    between atoms: C_8  and  C_9
REMARK    5  A    between atoms: C_8  and  N_10
REMARK    6  A    between atoms: C_15  and  O_16
REMARK    7  A    between atoms: C_18  and  C_19
REMARK                            x       y       z     vdW  Elec       q    Type
REMARK                         _______ _______ _______ _____ _____    ______ ____
ROOT
ATOM      1  N   UNL     1       2.278   7.131  19.229  0.00  0.00    +0.000 N 
ATOM      2  C   UNL     1       1.852   8.429  19.123  0.00  0.00    +0.000 C 
ATOM      3  O   UNL     1       1.934   9.056  18.076  0.00  0.00    +0.000 OA
ATOM      4  N   UNL     1       1.291   8.940  20.279  0.00  0.00    +0.000 N 
ATOM      5  C   UNL     1       1.505   8.431  21.631  0.00  0.00    +0.000 C 
ATOM      6  C   UNL     1       0.328   9.024  22.389  0.00  0.00    +0.000 C 
ATOM      7  C   UNL     1       0.189  10.426  21.795  0.00  0.00    +0.000 C 
ATOM      8  C   UNL     1       0.778  10.316  20.363  0.00  0.00    +0.000 C 
ATOM      9  H   UNL     1       1.954   6.595  20.011  0.00  0.00    +0.000 HD
ENDROOT
BRANCH   8  10
ATOM     10  C   UNL     1      -0.231  10.720  19.309  0.00  0.00    +0.000 A 
ATOM     11  C   UNL     1      -0.178  11.963  18.660  0.00  0.00    +0.000 A 
ATOM     12  C   UNL     1      -1.123  12.313  17.692  0.00  0.00    +0.000 A 
ATOM     13  C   UNL     1      -2.135  11.417  17.354  0.00  0.00    +0.000 A 
ATOM     14  C   UNL     1      -2.190  10.180  17.982  0.00  0.00    +0.000 A 
ATOM     15  F   UNL     1      -3.155   9.314  17.651  0.00  0.00    +0.000 F 
ATOM     16  C   UNL     1      -1.250   9.824  18.946  0.00  0.00    +0.000 A 
ENDBRANCH   8  10
BRANCH   1  17
ATOM     17  C   UNL     1       2.634   6.328  18.070  0.00  0.00    +0.000 C 
ATOM     18  C   UNL     1       1.573   5.249  17.825  0.00  0.00    +0.000 C 
BRANCH  17  25
ATOM     19  C   UNL     1       3.354   3.845  20.071  0.00  0.00    +0.000 C 
ATOM     20  C   UNL     1       4.282   4.637  19.227  0.00  0.00    +0.000 A 
ATOM     21  N   UNL     1       5.591   4.360  19.243  0.00  0.00    +0.000 NA
ATOM     22  N   UNL     1       6.127   5.244  18.394  0.00  0.00    +0.000 N 
ATOM     23  C   UNL     1       7.550   5.251  18.157  0.00  0.00    +0.000 C 
ATOM     24  C   UNL     1       5.210   6.085  17.836  0.00  0.00    +0.000 A 
ATOM     25  C   UNL     1       3.978   5.722  18.352  0.00  0.00    +0.000 A 
ENDBRANCH  17  25
ENDBRANCH   1  17
BRANCH   6  26
ATOM     26  O   UNL     1      -0.844   8.245  22.127  0.00  0.00    +0.000 OA
ATOM     27  H   UNL     1      -1.258   8.047  22.988  0.00  0.00    +0.000 HD
ENDBRANCH   6  26
TORSDOF 4
ENDMDL
MODEL 5
REMARK VINA RESULT:      -8.3      3.390      6.460
REMARK  Name = 
REMARK  7 active torsions:
REMARK  status: ('A' for Active; 'I' for Inactive)
REMARK    1  A    between atoms: C_1  and  C_2
REMARK    2  A    between atoms: N_4  and  C_5
REMARK    3  A    between atoms: C_7  and  C_8
REMARK    4  A    between atoms: C_8  and  C_9
REMARK    5  A    between atoms: C_8  and  N_10
REMARK    6  A    between atoms: C_15  and  O_16
REMARK    7  A    between atoms: C_18  and  C_19
REMARK                            x       y       z     vdW  Elec       q    Type
REMARK                         _______ _______ _______ _____ _____    ______ ____
ROOT
ATOM      1  N   UNL     1       1.578   7.603  20.158  0.00  0.00    +0.000 N 
ATOM      2  C   UNL     1       2.366   7.134  19.138  0.00  0.00    +0.000 C 
ATOM      3  O   UNL     1       3.004   7.884  18.413  0.00  0.00    +0.000 OA
ATOM      4  N   UNL     1       2.404   5.756  19.037  0.00  0.00    +0.000 N 
ATOM      5  C   UNL     1       1.409   4.830  19.572  0.00  0.00    +0.000 C 
ATOM      6  C   UNL     1       2.172   3.515  19.597  0.00  0.00    +0.000 C 
ATOM      7  C   UNL     1       2.998   3.555  18.311  0.00  0.00    +0.000 C 
ATOM      8  C   UNL     1       3.192   5.065  18.005  0.00  0.00    +0.000 C 
ATOM      9  H   UNL     1       1.296   6.953  20.866  0.00  0.00    +0.000 HD
ENDROOT
BRANCH   8  10
ATOM     10  C   UNL     1       4.658   5.435  17.920  0.00  0.00    +0.000 A 
ATOM     11  C   UNL     1       5.240   5.922  16.740  0.00  0.00    +0.000 A 
ATOM     12  C   UNL     1       6.597   6.254  16.688  0.00  0.00    +0.000 A 
ATOM     13  C   UNL     1       7.391   6.111  17.824  0.00  0.00    +0.000 A 
ATOM     14  C   UNL     1       6.821   5.643  19.000  0.00  0.00    +0.000 A 
ATOM     15  F   UNL     1       7.581   5.515  20.095  0.00  0.00    +0.000 F 
ATOM     16  C   UNL     1       5.470   5.311  19.060  0.00  0.00    +0.000 A 
ENDBRANCH   8  10
BRANCH   1  17
ATOM     17  C   UNL     1       1.621   8.985  20.606  0.00  0.00    +0.000 C 
ATOM     18  C   UNL     1       1.269   9.071  22.096  0.00  0.00    +0.000 C 
BRANCH  17  25
ATOM     19  C   UNL     1       2.239  11.198  18.280  0.00  0.00    +0.000 C 
ATOM     20  C   UNL     1       0.919  10.714  18.753  0.00  0.00    +0.000 A 
ATOM     21  N   UNL     1      -0.200  11.205  18.209  0.00  0.00    +0.000 NA
ATOM     22  N   UNL     1      -1.188  10.572  18.854  0.00  0.00    +0.000 N 
ATOM     23  C   UNL     1      -2.565  10.858  18.531  0.00  0.00    +0.000 C 
ATOM     24  C   UNL     1      -0.743   9.694  19.797  0.00  0.00    +0.000 A 
ATOM     25  C   UNL     1       0.639   9.750  19.766  0.00  0.00    +0.000 A 
ENDBRANCH  17  25
ENDBRANCH   1  17
BRANCH   6  26
ATOM     26  O   UNL     1       3.026   3.486  20.745  0.00  0.00    +0.000 OA
ATOM     27  H   UNL     1       2.822   4.279  21.276  0.00  0.00    +0.000 HD
ENDBRANCH   6  26
TORSDOF 4
ENDMDL
MODEL 6
REMARK VINA RESULT:      -8.3      3.429      6.524
REMARK  Name = 
REMARK  7 active torsions:
REMARK  status: ('A' for Active; 'I' for Inactive)
REMARK    1  A    between atoms: C_1  and  C_2
REMARK    2  A    between atoms: N_4  and  C_5
REMARK    3  A    between atoms: C_7  and  C_8
REMARK    4  A    between atoms: C_8  and  C_9
REMARK    5  A    between atoms: C_8  and  N_10
REMARK    6  A    between atoms: C_15  and  O_16
REMARK    7  A    between atoms: C_18  and  C_19
REMARK                            x       y       z     vdW  Elec       q    Type
REMARK                         _______ _______ _______ _____ _____    ______ ____
ROOT
ATOM      1  N   UNL     1       1.480   7.308  20.606  0.00  0.00    +0.000 N 
ATOM      2  C   UNL     1       2.109   6.626  19.597  0.00  0.00    +0.000 C 
ATOM      3  O   UNL     1       2.732   7.199  18.715  0.00  0.00    +0.000 OA
ATOM      4  N   UNL     1       2.009   5.250  19.693  0.00  0.00    +0.000 N 
ATOM      5  C   UNL     1       0.996   4.515  20.446  0.00  0.00    +0.000 C 
ATOM      6  C   UNL     1       1.633   3.143  20.591  0.00  0.00    +0.000 C 
ATOM      7  C   UNL     1       2.317   2.921  19.242  0.00  0.00    +0.000 C 
ATOM      8  C   UNL     1       2.615   4.346  18.703  0.00  0.00    +0.000 C 
ATOM      9  H   UNL     1       1.217   6.794  21.424  0.00  0.00    +0.000 HD
ENDROOT
BRANCH   8  10
ATOM     10  C   UNL     1       4.091   4.545  18.431  0.00  0.00    +0.000 A 
ATOM     11  C   UNL     1       4.999   4.896  19.442  0.00  0.00    +0.000 A 
ATOM     12  C   UNL     1       6.356   5.076  19.164  0.00  0.00    +0.000 A 
ATOM     13  C   UNL     1       6.828   4.898  17.865  0.00  0.00    +0.000 A 
ATOM     14  C   UNL     1       5.941   4.539  16.860  0.00  0.00    +0.000 A 
ATOM     15  F   UNL     1       6.395   4.357  15.614  0.00  0.00    +0.000 F 
ATOM     16  C   UNL     1       4.587   4.356  17.130  0.00  0.00    +0.000 A 
ENDBRANCH   8  10
BRANCH   1  17
ATOM     17  C   UNL     1       1.697   8.726  20.843  0.00  0.00    +0.000 C 
ATOM     18  C   UNL     1       1.491   9.054  22.327  0.00  0.00    +0.000 C 
BRANCH  17  25
ATOM     19  C   UNL     1       2.222  10.093  17.919  0.00  0.00    +0.000 C 
ATOM     20  C   UNL     1       0.962  10.063  18.702  0.00  0.00    +0.000 A 
ATOM     21  N   UNL     1      -0.134  10.656  18.214  0.00  0.00    +0.000 NA
ATOM     22  N   UNL     1      -1.067  10.451  19.151  0.00  0.00    +0.000 N 
ATOM     23  C   UNL     1      -2.403  10.965  18.969  0.00  0.00    +0.000 C 
ATOM     24  C   UNL     1      -0.609   9.751  20.228  0.00  0.00    +0.000 A 
ATOM     25  C   UNL     1       0.723   9.471  19.977  0.00  0.00    +0.000 A 
ENDBRANCH  17  25
ENDBRANCH   1  17
BRANCH   6  26
ATOM     26  O   UNL     1       2.598   3.179  21.647  0.00  0.00    +0.000 OA
ATOM     27  H   UNL     1       3.285   3.823  21.389  0.00  0.00    +0.000 HD
ENDBRANCH   6  26
TORSDOF 4
ENDMDL
MODEL 7
REMARK VINA RESULT:      -8.3      3.593      6.619
REMARK  Name = 
REMARK  7 active torsions:
REMARK  status: ('A' for Active; 'I' for Inactive)
REMARK    1  A    between atoms: C_1  and  C_2
REMARK    2  A    between atoms: N_4  and  C_5
REMARK    3  A    between atoms: C_7  and  C_8
REMARK    4  A    between atoms: C_8  and  C_9
REMARK    5  A    between atoms: C_8  and  N_10
REMARK    6  A    between atoms: C_15  and  O_16
REMARK    7  A    between atoms: C_18  and  C_19
REMARK                            x       y       z     vdW  Elec       q    Type
REMARK                         _______ _______ _______ _____ _____    ______ ____
ROOT
ATOM      1  N   UNL     1       1.628   7.674  19.196  0.00  0.00    +0.000 N 
ATOM      2  C   UNL     1       2.742   7.388  18.451  0.00  0.00    +0.000 C 
ATOM      3  O   UNL     1       3.573   8.240  18.171  0.00  0.00    +0.000 OA
ATOM      4  N   UNL     1       2.856   6.059  18.086  0.00  0.00    +0.000 N 
ATOM      5  C   UNL     1       1.764   5.089  18.029  0.00  0.00    +0.000 C 
ATOM      6  C   UNL     1       2.508   3.764  18.051  0.00  0.00    +0.000 C 
ATOM      7  C   UNL     1       3.736   4.027  17.180  0.00  0.00    +0.000 C 
ATOM      8  C   UNL     1       3.981   5.557  17.283  0.00  0.00    +0.000 C 
ATOM      9  H   UNL     1       1.131   6.907  19.607  0.00  0.00    +0.000 HD
ENDROOT
BRANCH   8  10
ATOM     10  C   UNL     1       5.368   5.869  17.804  0.00  0.00    +0.000 A 
ATOM     11  C   UNL     1       5.897   5.247  18.944  0.00  0.00    +0.000 A 
ATOM     12  C   UNL     1       7.180   5.555  19.406  0.00  0.00    +0.000 A 
ATOM     13  C   UNL     1       7.957   6.489  18.725  0.00  0.00    +0.000 A 
ATOM     14  C   UNL     1       7.448   7.101  17.588  0.00  0.00    +0.000 A 
ATOM     15  F   UNL     1       8.198   7.991  16.927  0.00  0.00    +0.000 F 
ATOM     16  C   UNL     1       6.171   6.798  17.121  0.00  0.00    +0.000 A 
ENDBRANCH   8  10
BRANCH   1  17
ATOM     17  C   UNL     1       1.465   8.932  19.906  0.00  0.00    +0.000 C 
ATOM     18  C   UNL     1       0.986   8.675  21.340  0.00  0.00    +0.000 C 
BRANCH  17  25
ATOM     19  C   UNL     1       0.814  12.125  20.178  0.00  0.00    +0.000 C 
ATOM     20  C   UNL     1       0.192  11.140  19.259  0.00  0.00    +0.000 A 
ATOM     21  N   UNL     1      -0.767  11.537  18.414  0.00  0.00    +0.000 NA
ATOM     22  N   UNL     1      -1.105  10.425  17.751  0.00  0.00    +0.000 N 
ATOM     23  C   UNL     1      -2.135  10.468  16.741  0.00  0.00    +0.000 C 
ATOM     24  C   UNL     1      -0.401   9.325  18.143  0.00  0.00    +0.000 A 
ATOM     25  C   UNL     1       0.468   9.747  19.134  0.00  0.00    +0.000 A 
ENDBRANCH  17  25
ENDBRANCH   1  17
BRANCH   6  26
ATOM     26  O   UNL     1       2.896   3.462  19.395  0.00  0.00    +0.000 OA
ATOM     27  H   UNL     1       2.117   3.618  19.962  0.00  0.00    +0.000 HD
ENDBRANCH   6  26
TORSDOF 4
ENDMDL
MODEL 8
REMARK VINA RESULT:      -8.2      3.638      6.971
REMARK  Name = 
REMARK  7 active torsions:
REMARK  status: ('A' for Active; 'I' for Inactive)
REMARK    1  A    between atoms: C_1  and  C_2
REMARK    2  A    between atoms: N_4  and  C_5
REMARK    3  A    between atoms: C_7  and  C_8
REMARK    4  A    between atoms: C_8  and  C_9
REMARK    5  A    between atoms: C_8  and  N_10
REMARK    6  A    between atoms: C_15  and  O_16
REMARK    7  A    between atoms: C_18  and  C_19
REMARK                            x       y       z     vdW  Elec       q    Type
REMARK                         _______ _______ _______ _____ _____    ______ ____
ROOT
ATOM      1  N   UNL     1       1.932   8.629  18.780  0.00  0.00    +0.000 N 
ATOM      2  C   UNL     1       2.215   7.461  19.439  0.00  0.00    +0.000 C 
ATOM      3  O   UNL     1       1.522   7.049  20.358  0.00  0.00    +0.000 OA
ATOM      4  N   UNL     1       3.316   6.783  18.948  0.00  0.00    +0.000 N 
ATOM      5  C   UNL     1       4.397   7.365  18.156  0.00  0.00    +0.000 C 
ATOM      6  C   UNL     1       5.026   6.137  17.517  0.00  0.00    +0.000 C 
ATOM      7  C   UNL     1       4.974   5.089  18.628  0.00  0.00    +0.000 C 
ATOM      8  C   UNL     1       3.779   5.512  19.524  0.00  0.00    +0.000 C 
ATOM      9  H   UNL     1       2.366   8.780  17.890  0.00  0.00    +0.000 HD
ENDROOT
BRANCH   8  10
ATOM     10  C   UNL     1       2.745   4.411  19.636  0.00  0.00    +0.000 A 
ATOM     11  C   UNL     1       2.124   3.850  18.510  0.00  0.00    +0.000 A 
ATOM     12  C   UNL     1       1.170   2.837  18.641  0.00  0.00    +0.000 A 
ATOM     13  C   UNL     1       0.830   2.363  19.906  0.00  0.00    +0.000 A 
ATOM     14  C   UNL     1       1.448   2.902  21.025  0.00  0.00    +0.000 A 
ATOM     15  F   UNL     1       1.129   2.440  22.241  0.00  0.00    +0.000 F 
ATOM     16  C   UNL     1       2.400   3.911  20.903  0.00  0.00    +0.000 A 
ENDBRANCH   8  10
BRANCH   1  17
ATOM     17  C   UNL     1       0.676   9.339  18.954  0.00  0.00    +0.000 C 
ATOM     18  C   UNL     1       0.038   9.629  17.590  0.00  0.00    +0.000 C 
BRANCH  17  25
ATOM     19  C   UNL     1       0.262   9.980  22.133  0.00  0.00    +0.000 C 
ATOM     20  C   UNL     1       0.802  10.877  21.083  0.00  0.00    +0.000 A 
ATOM     21  N   UNL     1       1.181  12.119  21.404  0.00  0.00    +0.000 NA
ATOM     22  N   UNL     1       1.605  12.646  20.249  0.00  0.00    +0.000 N 
ATOM     23  C   UNL     1       2.092  14.004  20.207  0.00  0.00    +0.000 C 
ATOM     24  C   UNL     1       1.508  11.788  19.194  0.00  0.00    +0.000 A 
ATOM     25  C   UNL     1       0.986  10.607  19.694  0.00  0.00    +0.000 A 
ENDBRANCH  17  25
ENDBRANCH   1  17
BRANCH   6  26
ATOM     26  O   UNL     1       4.234   5.728  16.397  0.00  0.00    +0.000 OA
ATOM     27  H   UNL     1       3.704   4.960  16.685  0.00  0.00    +0.000 HD
ENDBRANCH   6  26
TORSDOF 4
ENDMDL
MODEL 9
REMARK VINA RESULT:      -8.2      3.658      6.970
REMARK  Name = 
REMARK  7 active torsions:
REMARK  status: ('A' for Active; 'I' for Inactive)
REMARK    1  A    between atoms: C_1  and  C_2
REMARK    2  A    between atoms: N_4  and  C_5
REMARK    3  A    between atoms: C_7  and  C_8
REMARK    4  A    between atoms: C_8  and  C_9
REMARK    5  A    between atoms: C_8  and  N_10
REMARK    6  A    between atoms: C_15  and  O_16
REMARK    7  A    between atoms: C_18  and  C_19
REMARK                            x       y       z     vdW  Elec       q    Type
REMARK                         _______ _______ _______ _____ _____    ______ ____
ROOT
ATOM      1  N   UNL     1       1.889   8.563  18.682  0.00  0.00    +0.000 N 
ATOM      2  C   UNL     1       2.258   7.501  19.466  0.00  0.00    +0.000 C 
ATOM      3  O   UNL     1       1.676   7.228  20.506  0.00  0.00    +0.000 OA
ATOM      4  N   UNL     1       3.306   6.756  18.957  0.00  0.00    +0.000 N 
ATOM      5  C   UNL     1       4.284   7.213  17.974  0.00  0.00    +0.000 C 
ATOM      6  C   UNL     1       4.855   5.905  17.452  0.00  0.00    +0.000 C 
ATOM      7  C   UNL     1       4.940   5.028  18.701  0.00  0.00    +0.000 C 
ATOM      8  C   UNL     1       3.847   5.580  19.655  0.00  0.00    +0.000 C 
ATOM      9  H   UNL     1       2.219   8.582  17.736  0.00  0.00    +0.000 HD
ENDROOT
BRANCH   8  10
ATOM     10  C   UNL     1       2.846   4.510  20.039  0.00  0.00    +0.000 A 
ATOM     11  C   UNL     1       2.679   4.083  21.365  0.00  0.00    +0.000 A 
ATOM     12  C   UNL     1       1.749   3.092  21.693  0.00  0.00    +0.000 A 
ATOM     13  C   UNL     1       0.966   2.517  20.695  0.00  0.00    +0.000 A 
ATOM     14  C   UNL     1       1.115   2.941  19.382  0.00  0.00    +0.000 A 
ATOM     15  F   UNL     1       0.355   2.398  18.423  0.00  0.00    +0.000 F 
ATOM     16  C   UNL     1       2.037   3.930  19.048  0.00  0.00    +0.000 A 
ENDBRANCH   8  10
BRANCH   1  17
ATOM     17  C   UNL     1       0.650   9.294  18.890  0.00  0.00    +0.000 C 
ATOM     18  C   UNL     1      -0.039   9.566  17.548  0.00  0.00    +0.000 C 
BRANCH  17  25
ATOM     19  C   UNL     1       0.235  10.060  22.042  0.00  0.00    +0.000 C 
ATOM     20  C   UNL     1       0.823  10.897  20.968  0.00  0.00    +0.000 A 
ATOM     21  N   UNL     1       1.251  12.132  21.252  0.00  0.00    +0.000 NA
ATOM     22  N   UNL     1       1.708  12.601  20.084  0.00  0.00    +0.000 N 
ATOM     23  C   UNL     1       2.252  13.935  20.002  0.00  0.00    +0.000 C 
ATOM     24  C   UNL     1       1.583  11.713  19.058  0.00  0.00    +0.000 A 
ATOM     25  C   UNL     1       1.008  10.573  19.592  0.00  0.00    +0.000 A 
ENDBRANCH  17  25
ENDBRANCH   1  17
BRANCH   6  26
ATOM     26  O   UNL     1       3.948   5.341  16.499  0.00  0.00    +0.000 OA
ATOM     27  H   UNL     1       3.181   5.942  16.439  0.00  0.00    +0.000 HD
ENDBRANCH   6  26
TORSDOF 4
ENDMDL
