MODEL 1
REMARK VINA RESULT:      -7.2      0.000      0.000
REMARK  Name = 
REMARK  5 active torsions:
REMARK  status: ('A' for Active; 'I' for Inactive)
REMARK    1  A    between atoms: C_1  and  O_2
REMARK    2  A    between atoms: O_2  and  C_3
REMARK    3  A    between atoms: C_7  and  C_8
REMARK    4  A    between atoms: C_9  and  C_10
REMARK    5  A    between atoms: C_10  and  C_12
REMARK                            x       y       z     vdW  Elec       q    Type
REMARK                         _______ _______ _______ _____ _____    ______ ____
ROOT
ATOM      1  C   UNL     1       5.995   4.839  15.961  0.00  0.00    +0.000 C 
ATOM      2  C   UNL     1       5.587   3.864  16.788  0.00  0.00    +0.000 C 
ENDROOT
BRANCH   1   7
ATOM      3  C   UNL     1       5.933   3.487  12.414  0.00  0.00    +0.000 A 
ATOM      4  C   UNL     1       7.040   4.143  11.876  0.00  0.00    +0.000 A 
ATOM      5  C   UNL     1       7.796   5.014  12.660  0.00  0.00    +0.000 A 
ATOM      6  C   UNL     1       7.445   5.237  13.993  0.00  0.00    +0.000 A 
ATOM      7  C   UNL     1       6.328   4.601  14.547  0.00  0.00    +0.000 A 
ATOM      8  C   UNL     1       5.585   3.716  13.748  0.00  0.00    +0.000 A 
BRANCH   3  10
ATOM      9  C   UNL     1       3.994   3.040  11.109  0.00  0.00    +0.000 C 
ATOM     10  O   UNL     1       5.286   2.643  11.552  0.00  0.00    +0.000 OA
ENDBRANCH   3  10
ENDBRANCH   1   7
BRANCH   2  11
ATOM     11  C   UNL     1       5.247   4.164  18.206  0.00  0.00    +0.000 C 
ATOM     12  O   UNL     1       6.062   4.621  18.994  0.00  0.00    +0.000 OA
BRANCH  11  13
ATOM     13  C   UNL     1       3.862   3.835  18.643  0.00  0.00    +0.000 A 
ATOM     14  C   UNL     1       3.679   3.209  19.883  0.00  0.00    +0.000 A 
ATOM     15  C   UNL     1       2.391   2.894  20.324  0.00  0.00    +0.000 A 
ATOM     16  C   UNL     1       1.295   3.216  19.531  0.00  0.00    +0.000 A 
ATOM     17  F   UNL     1       0.061   2.917  19.954  0.00  0.00    +0.000 F 
ATOM     18  C   UNL     1       1.460   3.851  18.304  0.00  0.00    +0.000 A 
ATOM     19  C   UNL     1       2.745   4.167  17.860  0.00  0.00    +0.000 A 
ENDBRANCH  11  13
ENDBRANCH   2  11
TORSDOF 4
ENDMDL
MODEL 2
REMARK VINA RESULT:      -7.2      0.281      1.143
REMARK  Name = 
REMARK  5 active torsions:
REMARK  status: ('A' for Active; 'I' for Inactive)
REMARK    1  A    between atoms: C_1  and  O_2
REMARK    2  A    between atoms: O_2  and  C_3
REMARK    3  A    between atoms: C_7  and  C_8
REMARK    4  A    between atoms: C_9  and  C_10
REMARK    5  A    between atoms: C_10  and  C_12
REMARK                            x       y       z     vdW  Elec       q    Type
REMARK                         _______ _______ _______ _____ _____    ______ ____
ROOT
ATOM      1  C   UNL     1       5.661   5.052  15.893  0.00  0.00    +0.000 C 
ATOM      2  C   UNL     1       5.673   4.177  16.910  0.00  0.00    +0.000 C 
ENDROOT
BRANCH   1   7
ATOM      3  C   UNL     1       5.876   3.493  12.439  0.00  0.00    +0.000 A 
ATOM      4  C   UNL     1       7.072   4.050  11.986  0.00  0.00    +0.000 A 
ATOM      5  C   UNL     1       7.798   4.923  12.796  0.00  0.00    +0.000 A 
ATOM      6  C   UNL     1       7.327   5.245  14.071  0.00  0.00    +0.000 A 
ATOM      7  C   UNL     1       6.122   4.710  14.537  0.00  0.00    +0.000 A 
ATOM      8  C   UNL     1       5.409   3.822  13.714  0.00  0.00    +0.000 A 
BRANCH   3  10
ATOM      9  C   UNL     1       3.981   3.010  11.083  0.00  0.00    +0.000 C 
ATOM     10  O   UNL     1       5.268   2.637  11.560  0.00  0.00    +0.000 OA
ENDBRANCH   3  10
ENDBRANCH   1   7
BRANCH   2  11
ATOM     11  C   UNL     1       5.180   4.571  18.258  0.00  0.00    +0.000 C 
ATOM     12  O   UNL     1       5.847   5.248  19.028  0.00  0.00    +0.000 OA
BRANCH  11  13
ATOM     13  C   UNL     1       3.838   4.061  18.653  0.00  0.00    +0.000 A 
ATOM     14  C   UNL     1       2.727   4.420  17.879  0.00  0.00    +0.000 A 
ATOM     15  C   UNL     1       1.456   3.952  18.221  0.00  0.00    +0.000 A 
ATOM     16  C   UNL     1       1.304   3.121  19.326  0.00  0.00    +0.000 A 
ATOM     17  F   UNL     1       0.087   2.670  19.651  0.00  0.00    +0.000 F 
ATOM     18  C   UNL     1       2.400   2.744  20.095  0.00  0.00    +0.000 A 
ATOM     19  C   UNL     1       3.672   3.210  19.757  0.00  0.00    +0.000 A 
ENDBRANCH  11  13
ENDBRANCH   2  11
TORSDOF 4
ENDMDL
MODEL 3
REMARK VINA RESULT:      -7.1      1.092      1.370
REMARK  Name = 
REMARK  5 active torsions:
REMARK  status: ('A' for Active; 'I' for Inactive)
REMARK    1  A    between atoms: C_1  and  O_2
REMARK    2  A    between atoms: O_2  and  C_3
REMARK    3  A    between atoms: C_7  and  C_8
REMARK    4  A    between atoms: C_9  and  C_10
REMARK    5  A    between atoms: C_10  and  C_12
REMARK                            x       y       z     vdW  Elec       q    Type
REMARK                         _______ _______ _______ _____ _____    ______ ____
ROOT
ATOM      1  C   UNL     1       6.084   4.736  15.862  0.00  0.00    +0.000 C 
ATOM      2  C   UNL     1       4.881   5.149  16.289  0.00  0.00    +0.000 C 
ENDROOT
BRANCH   1   7
ATOM      3  C   UNL     1       6.022   3.279  12.357  0.00  0.00    +0.000 A 
ATOM      4  C   UNL     1       7.045   4.015  11.762  0.00  0.00    +0.000 A 
ATOM      5  C   UNL     1       7.746   4.974  12.493  0.00  0.00    +0.000 A 
ATOM      6  C   UNL     1       7.423   5.204  13.832  0.00  0.00    +0.000 A 
ATOM      7  C   UNL     1       6.388   4.487  14.443  0.00  0.00    +0.000 A 
ATOM      8  C   UNL     1       5.701   3.515  13.697  0.00  0.00    +0.000 A 
BRANCH   3  10
ATOM      9  C   UNL     1       6.224   1.260  11.113  0.00  0.00    +0.000 C 
ATOM     10  O   UNL     1       5.425   2.355  11.543  0.00  0.00    +0.000 OA
ENDBRANCH   3  10
ENDBRANCH   1   7
BRANCH   2  11
ATOM     11  C   UNL     1       4.632   5.402  17.734  0.00  0.00    +0.000 C 
ATOM     12  O   UNL     1       5.390   6.070  18.424  0.00  0.00    +0.000 OA
BRANCH  11  13
ATOM     13  C   UNL     1       3.426   4.759  18.326  0.00  0.00    +0.000 A 
ATOM     14  C   UNL     1       2.849   3.671  17.658  0.00  0.00    +0.000 A 
ATOM     15  C   UNL     1       1.721   3.042  18.192  0.00  0.00    +0.000 A 
ATOM     16  C   UNL     1       1.184   3.496  19.393  0.00  0.00    +0.000 A 
ATOM     17  F   UNL     1       0.106   2.892  19.905  0.00  0.00    +0.000 F 
ATOM     18  C   UNL     1       1.756   4.566  20.074  0.00  0.00    +0.000 A 
ATOM     19  C   UNL     1       2.883   5.197  19.544  0.00  0.00    +0.000 A 
ENDBRANCH  11  13
ENDBRANCH   2  11
TORSDOF 4
ENDMDL
MODEL 4
REMARK VINA RESULT:      -7.1      6.024      7.742
REMARK  Name = 
REMARK  5 active torsions:
REMARK  status: ('A' for Active; 'I' for Inactive)
REMARK    1  A    between atoms: C_1  and  O_2
REMARK    2  A    between atoms: O_2  and  C_3
REMARK    3  A    between atoms: C_7  and  C_8
REMARK    4  A    between atoms: C_9  and  C_10
REMARK    5  A    between atoms: C_10  and  C_12
REMARK                            x       y       z     vdW  Elec       q    Type
REMARK                         _______ _______ _______ _____ _____    ______ ____
ROOT
ATOM      1  C   UNL     1       7.875   9.126  17.636  0.00  0.00    +0.000 C 
ATOM      2  C   UNL     1       8.015   7.835  17.972  0.00  0.00    +0.000 C 
ENDROOT
BRANCH   1   7
ATOM      3  C   UNL     1       9.452  12.498  18.381  0.00  0.00    +0.000 A 
ATOM      4  C   UNL     1      10.047  12.230  19.613  0.00  0.00    +0.000 A 
ATOM      5  C   UNL     1       9.935  10.966  20.193  0.00  0.00    +0.000 A 
ATOM      6  C   UNL     1       9.221   9.960  19.540  0.00  0.00    +0.000 A 
ATOM      7  C   UNL     1       8.603  10.213  18.311  0.00  0.00    +0.000 A 
ATOM      8  C   UNL     1       8.736  11.487  17.734  0.00  0.00    +0.000 A 
BRANCH   3  10
ATOM      9  C   UNL     1      10.847  14.425  18.306  0.00  0.00    +0.000 C 
ATOM     10  O   UNL     1       9.650  13.767  17.908  0.00  0.00    +0.000 OA
ENDBRANCH   3  10
ENDBRANCH   1   7
BRANCH   2  11
ATOM     11  C   UNL     1       7.266   6.775  17.245  0.00  0.00    +0.000 C 
ATOM     12  O   UNL     1       7.673   6.281  16.202  0.00  0.00    +0.000 OA
BRANCH  11  13
ATOM     13  C   UNL     1       5.957   6.365  17.825  0.00  0.00    +0.000 A 
ATOM     14  C   UNL     1       4.783   6.895  17.274  0.00  0.00    +0.000 A 
ATOM     15  C   UNL     1       3.539   6.524  17.793  0.00  0.00    +0.000 A 
ATOM     16  C   UNL     1       3.476   5.620  18.848  0.00  0.00    +0.000 A 
ATOM     17  F   UNL     1       2.285   5.263  19.342  0.00  0.00    +0.000 F 
ATOM     18  C   UNL     1       4.633   5.075  19.394  0.00  0.00    +0.000 A 
ATOM     19  C   UNL     1       5.877   5.443  18.880  0.00  0.00    +0.000 A 
ENDBRANCH  11  13
ENDBRANCH   2  11
TORSDOF 4
ENDMDL
MODEL 5
REMARK VINA RESULT:      -7.0      1.087      1.141
REMARK  Name = 
REMARK  5 active torsions:
REMARK  status: ('A' for Active; 'I' for Inactive)
REMARK    1  A    between atoms: C_1  and  O_2
REMARK    2  A    between atoms: O_2  and  C_3
REMARK    3  A    between atoms: C_7  and  C_8
REMARK    4  A    between atoms: C_9  and  C_10
REMARK    5  A    between atoms: C_10  and  C_12
REMARK                            x       y       z     vdW  Elec       q    Type
REMARK                         _______ _______ _______ _____ _____    ______ ____
ROOT
ATOM      1  C   UNL     1       6.012   5.153  15.725  0.00  0.00    +0.000 C 
ATOM      2  C   UNL     1       4.823   4.902  16.294  0.00  0.00    +0.000 C 
ENDROOT
BRANCH   1   7
ATOM      3  C   UNL     1       5.979   3.318  12.401  0.00  0.00    +0.000 A 
ATOM      4  C   UNL     1       7.070   3.918  11.773  0.00  0.00    +0.000 A 
ATOM      5  C   UNL     1       7.806   4.906  12.425  0.00  0.00    +0.000 A 
ATOM      6  C   UNL     1       7.451   5.305  13.715  0.00  0.00    +0.000 A 
ATOM      7  C   UNL     1       6.350   4.728  14.356  0.00  0.00    +0.000 A 
ATOM      8  C   UNL     1       5.626   3.723  13.691  0.00  0.00    +0.000 A 
BRANCH   3  10
ATOM      9  C   UNL     1       6.166   1.314  11.131  0.00  0.00    +0.000 C 
ATOM     10  O   UNL     1       5.350   2.348  11.668  0.00  0.00    +0.000 OA
ENDBRANCH   3  10
ENDBRANCH   1   7
BRANCH   2  11
ATOM     11  C   UNL     1       4.529   5.370  17.676  0.00  0.00    +0.000 C 
ATOM     12  O   UNL     1       5.227   6.191  18.254  0.00  0.00    +0.000 OA
BRANCH  11  13
ATOM     13  C   UNL     1       3.355   4.752  18.353  0.00  0.00    +0.000 A 
ATOM     14  C   UNL     1       3.110   5.069  19.696  0.00  0.00    +0.000 A 
ATOM     15  C   UNL     1       2.014   4.511  20.357  0.00  0.00    +0.000 A 
ATOM     16  C   UNL     1       1.163   3.650  19.672  0.00  0.00    +0.000 A 
ATOM     17  F   UNL     1       0.110   3.118  20.304  0.00  0.00    +0.000 F 
ATOM     18  C   UNL     1       1.385   3.338  18.335  0.00  0.00    +0.000 A 
ATOM     19  C   UNL     1       2.480   3.893  17.670  0.00  0.00    +0.000 A 
ENDBRANCH  11  13
ENDBRANCH   2  11
TORSDOF 4
ENDMDL
MODEL 6
REMARK VINA RESULT:      -7.0      6.066      7.732
REMARK  Name = 
REMARK  5 active torsions:
REMARK  status: ('A' for Active; 'I' for Inactive)
REMARK    1  A    between atoms: C_1  and  O_2
REMARK    2  A    between atoms: O_2  and  C_3
REMARK    3  A    between atoms: C_7  and  C_8
REMARK    4  A    between atoms: C_9  and  C_10
REMARK    5  A    between atoms: C_10  and  C_12
REMARK                            x       y       z     vdW  Elec       q    Type
REMARK                         _______ _______ _______ _____ _____    ______ ____
ROOT
ATOM      1  C   UNL     1       8.271   9.146  17.657  0.00  0.00    +0.000 C 
ATOM      2  C   UNL     1       8.018   7.915  18.126  0.00  0.00    +0.000 C 
ENDROOT
BRANCH   1   7
ATOM      3  C   UNL     1      10.373  12.172  18.572  0.00  0.00    +0.000 A 
ATOM      4  C   UNL     1      10.400  12.048  19.961  0.00  0.00    +0.000 A 
ATOM      5  C   UNL     1       9.743  10.992  20.590  0.00  0.00    +0.000 A 
ATOM      6  C   UNL     1       9.048  10.050  19.829  0.00  0.00    +0.000 A 
ATOM      7  C   UNL     1       8.994  10.166  18.436  0.00  0.00    +0.000 A 
ATOM      8  C   UNL     1       9.674  11.229  17.816  0.00  0.00    +0.000 A 
BRANCH   3  10
ATOM      9  C   UNL     1      10.329  14.411  17.767  0.00  0.00    +0.000 C 
ATOM     10  O   UNL     1      11.073  13.238  18.073  0.00  0.00    +0.000 OA
ENDBRANCH   3  10
ENDBRANCH   1   7
BRANCH   2  11
ATOM     11  C   UNL     1       7.297   6.917  17.290  0.00  0.00    +0.000 C 
ATOM     12  O   UNL     1       7.720   6.541  16.206  0.00  0.00    +0.000 OA
BRANCH  11  13
ATOM     13  C   UNL     1       5.995   6.422  17.816  0.00  0.00    +0.000 A 
ATOM     14  C   UNL     1       6.003   5.511  18.881  0.00  0.00    +0.000 A 
ATOM     15  C   UNL     1       4.798   5.033  19.400  0.00  0.00    +0.000 A 
ATOM     16  C   UNL     1       3.593   5.475  18.862  0.00  0.00    +0.000 A 
ATOM     17  F   UNL     1       2.439   5.020  19.362  0.00  0.00    +0.000 F 
ATOM     18  C   UNL     1       3.570   6.390  17.815  0.00  0.00    +0.000 A 
ATOM     19  C   UNL     1       4.773   6.870  17.292  0.00  0.00    +0.000 A 
ENDBRANCH  11  13
ENDBRANCH   2  11
TORSDOF 4
ENDMDL
MODEL 7
REMARK VINA RESULT:      -7.0      4.361      7.765
REMARK  Name = 
REMARK  5 active torsions:
REMARK  status: ('A' for Active; 'I' for Inactive)
REMARK    1  A    between atoms: C_1  and  O_2
REMARK    2  A    between atoms: O_2  and  C_3
REMARK    3  A    between atoms: C_7  and  C_8
REMARK    4  A    between atoms: C_9  and  C_10
REMARK    5  A    between atoms: C_10  and  C_12
REMARK                            x       y       z     vdW  Elec       q    Type
REMARK                         _______ _______ _______ _____ _____    ______ ____
ROOT
ATOM      1  C   UNL     1       3.204   6.144  18.568  0.00  0.00    +0.000 C 
ATOM      2  C   UNL     1       4.111   5.537  19.349  0.00  0.00    +0.000 C 
ENDROOT
BRANCH   1   7
ATOM      3  C   UNL     1       1.213   8.553  20.724  0.00  0.00    +0.000 A 
ATOM      4  C   UNL     1       0.890   9.526  19.779  0.00  0.00    +0.000 A 
ATOM      5  C   UNL     1       1.315   9.398  18.457  0.00  0.00    +0.000 A 
ATOM      6  C   UNL     1       2.073   8.291  18.072  0.00  0.00    +0.000 A 
ATOM      7  C   UNL     1       2.422   7.312  19.008  0.00  0.00    +0.000 A 
ATOM      8  C   UNL     1       1.974   7.448  20.333  0.00  0.00    +0.000 A 
BRANCH   3  10
ATOM      9  C   UNL     1      -0.054   9.960  22.166  0.00  0.00    +0.000 C 
ATOM     10  O   UNL     1       0.721   8.781  21.980  0.00  0.00    +0.000 OA
ENDBRANCH   3  10
ENDBRANCH   1   7
BRANCH   2  11
ATOM     11  C   UNL     1       4.886   4.370  18.848  0.00  0.00    +0.000 C 
ATOM     12  O   UNL     1       5.046   3.355  19.511  0.00  0.00    +0.000 OA
BRANCH  11  13
ATOM     13  C   UNL     1       5.507   4.510  17.502  0.00  0.00    +0.000 A 
ATOM     14  C   UNL     1       6.757   5.135  17.399  0.00  0.00    +0.000 A 
ATOM     15  C   UNL     1       7.368   5.275  16.151  0.00  0.00    +0.000 A 
ATOM     16  C   UNL     1       6.733   4.781  15.016  0.00  0.00    +0.000 A 
ATOM     17  F   UNL     1       7.320   4.913  13.820  0.00  0.00    +0.000 F 
ATOM     18  C   UNL     1       5.499   4.146  15.104  0.00  0.00    +0.000 A 
ATOM     19  C   UNL     1       4.885   4.004  16.350  0.00  0.00    +0.000 A 
ENDBRANCH  11  13
ENDBRANCH   2  11
TORSDOF 4
ENDMDL
MODEL 8
REMARK VINA RESULT:      -6.9      4.385      7.809
REMARK  Name = 
REMARK  5 active torsions:
REMARK  status: ('A' for Active; 'I' for Inactive)
REMARK    1  A    between atoms: C_1  and  O_2
REMARK    2  A    between atoms: O_2  and  C_3
REMARK    3  A    between atoms: C_7  and  C_8
REMARK    4  A    between atoms: C_9  and  C_10
REMARK    5  A    between atoms: C_10  and  C_12
REMARK                            x       y       z     vdW  Elec       q    Type
REMARK                         _______ _______ _______ _____ _____    ______ ____
ROOT
ATOM      1  C   UNL     1       3.035   6.283  18.346  0.00  0.00    +0.000 C 
ATOM      2  C   UNL     1       3.865   5.578  19.130  0.00  0.00    +0.000 C 
ENDROOT
BRANCH   1   7
ATOM      3  C   UNL     1       1.295   8.807  20.585  0.00  0.00    +0.000 A 
ATOM      4  C   UNL     1       0.904   9.754  19.639  0.00  0.00    +0.000 A 
ATOM      5  C   UNL     1       1.204   9.572  18.289  0.00  0.00    +0.000 A 
ATOM      6  C   UNL     1       1.903   8.435  17.877  0.00  0.00    +0.000 A 
ATOM      7  C   UNL     1       2.318   7.482  18.813  0.00  0.00    +0.000 A 
ATOM      8  C   UNL     1       1.996   7.673  20.167  0.00  0.00    +0.000 A 
BRANCH   3  10
ATOM      9  C   UNL     1      -0.470   9.139  22.146  0.00  0.00    +0.000 C 
ATOM     10  O   UNL     1       0.925   9.089  21.872  0.00  0.00    +0.000 OA
ENDBRANCH   3  10
ENDBRANCH   1   7
BRANCH   2  11
ATOM     11  C   UNL     1       4.577   4.383  18.602  0.00  0.00    +0.000 C 
ATOM     12  O   UNL     1       4.540   3.296  19.161  0.00  0.00    +0.000 OA
BRANCH  11  13
ATOM     13  C   UNL     1       5.386   4.580  17.367  0.00  0.00    +0.000 A 
ATOM     14  C   UNL     1       4.995   3.920  16.195  0.00  0.00    +0.000 A 
ATOM     15  C   UNL     1       5.731   4.090  15.019  0.00  0.00    +0.000 A 
ATOM     16  C   UNL     1       6.844   4.924  15.019  0.00  0.00    +0.000 A 
ATOM     17  F   UNL     1       7.546   5.090  13.892  0.00  0.00    +0.000 F 
ATOM     18  C   UNL     1       7.235   5.597  16.172  0.00  0.00    +0.000 A 
ATOM     19  C   UNL     1       6.503   5.430  17.349  0.00  0.00    +0.000 A 
ENDBRANCH  11  13
ENDBRANCH   2  11
TORSDOF 4
ENDMDL
MODEL 9
REMARK VINA RESULT:      -6.8      4.520      7.791
REMARK  Name = 
REMARK  5 active torsions:
REMARK  status: ('A' for Active; 'I' for Inactive)
REMARK    1  A    between atoms: C_1  and  O_2
REMARK    2  A    between atoms: O_2  and  C_3
REMARK    3  A    between atoms: C_7  and  C_8
REMARK    4  A    between atoms: C_9  and  C_10
REMARK    5  A    between atoms: C_10  and  C_12
REMARK                            x       y       z     vdW  Elec       q    Type
REMARK                         _______ _______ _______ _____ _____    ______ ____
ROOT
ATOM      1  C   UNL     1       3.088   6.618  19.036  0.00  0.00    +0.000 C 
ATOM      2  C   UNL     1       2.646   5.357  19.154  0.00  0.00    +0.000 C 
ENDROOT
BRANCH   1   7
ATOM      3  C   UNL     1       0.747   9.312  20.331  0.00  0.00    +0.000 A 
ATOM      4  C   UNL     1       0.461   9.986  19.144  0.00  0.00    +0.000 A 
ATOM      5  C   UNL     1       1.022   9.567  17.938  0.00  0.00    +0.000 A 
ATOM      6  C   UNL     1       1.882   8.467  17.914  0.00  0.00    +0.000 A 
ATOM      7  C   UNL     1       2.195   7.788  19.096  0.00  0.00    +0.000 A 
ATOM      8  C   UNL     1       1.610   8.214  20.300  0.00  0.00    +0.000 A 
BRANCH   3  10
ATOM      9  C   UNL     1       0.530   9.284  22.700  0.00  0.00    +0.000 C 
ATOM     10  O   UNL     1       0.119   9.806  21.442  0.00  0.00    +0.000 OA
ENDBRANCH   3  10
ENDBRANCH   1   7
BRANCH   2  11
ATOM     11  C   UNL     1       3.595   4.211  19.103  0.00  0.00    +0.000 C 
ATOM     12  O   UNL     1       3.529   3.269  19.880  0.00  0.00    +0.000 OA
BRANCH  11  13
ATOM     13  C   UNL     1       4.673   4.283  18.078  0.00  0.00    +0.000 A 
ATOM     14  C   UNL     1       4.335   4.086  16.732  0.00  0.00    +0.000 A 
ATOM     15  C   UNL     1       5.323   4.154  15.747  0.00  0.00    +0.000 A 
ATOM     16  C   UNL     1       6.638   4.428  16.109  0.00  0.00    +0.000 A 
ATOM     17  F   UNL     1       7.584   4.497  15.165  0.00  0.00    +0.000 F 
ATOM     18  C   UNL     1       6.985   4.641  17.440  0.00  0.00    +0.000 A 
ATOM     19  C   UNL     1       6.001   4.573  18.427  0.00  0.00    +0.000 A 
ENDBRANCH  11  13
ENDBRANCH   2  11
TORSDOF 4
ENDMDL
