MODEL 1
REMARK VINA RESULT:      -7.8      0.000      0.000
REMARK  Name = 
REMARK  5 active torsions:
REMARK  status: ('A' for Active; 'I' for Inactive)
REMARK    1  A    between atoms: C_2  and  C_12
REMARK    2  A    between atoms: N_3  and  C_4
REMARK    3  A    between atoms: C_4  and  C_5
REMARK    4  A    between atoms: C_5  and  C_6
REMARK    5  A    between atoms: C_17  and  O_18
REMARK                            x       y       z     vdW  Elec       q    Type
REMARK                         _______ _______ _______ _____ _____    ______ ____
ROOT
ATOM      1  C   UNL     1       5.208   6.123  16.886  0.00  0.00    +0.000 C 
ATOM      2  C   UNL     1       5.278   4.618  17.190  0.00  0.00    +0.000 C 
ATOM      3  C   UNL     1       3.936   4.032  17.545  0.00  0.00    +0.000 A 
ATOM      4  C   UNL     1       3.774   2.637  17.570  0.00  0.00    +0.000 A 
ATOM      5  C   UNL     1       2.548   2.077  17.921  0.00  0.00    +0.000 A 
ATOM      6  C   UNL     1       1.488   2.914  18.248  0.00  0.00    +0.000 A 
ATOM      7  C   UNL     1       1.638   4.298  18.241  0.00  0.00    +0.000 A 
ATOM      8  C   UNL     1       2.871   4.874  17.904  0.00  0.00    +0.000 A 
ATOM      9  C   UNL     1       3.015   6.378  17.862  0.00  0.00    +0.000 C 
ATOM     10  N   UNL     1       4.408   6.858  17.901  0.00  0.00    +0.000 NA
ATOM     11  H   UNL     1       4.785   6.622  18.819  0.00  0.00    +0.000 HD
ENDROOT
BRANCH   1  13
ATOM     12  O   UNL     1       7.528   6.110  16.178  0.00  0.00    +0.000 OA
ATOM     13  C   UNL     1       6.650   6.658  16.848  0.00  0.00    +0.000 C 
ATOM     14  N   UNL     1       6.882   7.802  17.567  0.00  0.00    +0.000 N 
ATOM     15  H   UNL     1       6.116   8.150  18.138  0.00  0.00    +0.000 HD
BRANCH  14  16
ATOM     16  C   UNL     1       8.199   8.397  17.627  0.00  0.00    +0.000 C 
BRANCH  16  17
ATOM     17  C   UNL     1       8.189   9.800  18.248  0.00  0.00    +0.000 C 
BRANCH  17  18
ATOM     18  C   UNL     1       9.573  10.258  18.759  0.00  0.00    +0.000 C 
ATOM     19  C   UNL     1      10.236  11.297  17.837  0.00  0.00    +0.000 C 
ATOM     20  C   UNL     1       9.549  12.658  17.895  0.00  0.00    +0.000 C 
ATOM     21  C   UNL     1       9.483  13.186  19.326  0.00  0.00    +0.000 C 
ATOM     22  C   UNL     1       8.824  12.181  20.269  0.00  0.00    +0.000 C 
ATOM     23  C   UNL     1       9.500  10.814  20.193  0.00  0.00    +0.000 C 
ENDBRANCH  17  18
ENDBRANCH  16  17
ENDBRANCH  14  16
ENDBRANCH   1  13
BRANCH   6  24
ATOM     24  O   UNL     1       0.267   2.410  18.589  0.00  0.00    +0.000 OA
ATOM     25  H   UNL     1      -0.308   3.147  18.854  0.00  0.00    +0.000 HD
ENDBRANCH   6  24
TORSDOF 5
ENDMDL
MODEL 2
REMARK VINA RESULT:      -7.7      1.265      2.166
REMARK  Name = 
REMARK  5 active torsions:
REMARK  status: ('A' for Active; 'I' for Inactive)
REMARK    1  A    between atoms: C_2  and  C_12
REMARK    2  A    between atoms: N_3  and  C_4
REMARK    3  A    between atoms: C_4  and  C_5
REMARK    4  A    between atoms: C_5  and  C_6
REMARK    5  A    between atoms: C_17  and  O_18
REMARK                            x       y       z     vdW  Elec       q    Type
REMARK                         _______ _______ _______ _____ _____    ______ ____
ROOT
ATOM      1  C   UNL     1       6.166   5.936  17.990  0.00  0.00    +0.000 C 
ATOM      2  C   UNL     1       4.745   6.338  17.562  0.00  0.00    +0.000 C 
ATOM      3  C   UNL     1       3.725   5.269  17.850  0.00  0.00    +0.000 A 
ATOM      4  C   UNL     1       2.357   5.581  17.786  0.00  0.00    +0.000 A 
ATOM      5  C   UNL     1       1.398   4.598  18.025  0.00  0.00    +0.000 A 
ATOM      6  C   UNL     1       1.811   3.306  18.325  0.00  0.00    +0.000 A 
ATOM      7  C   UNL     1       3.163   2.979  18.379  0.00  0.00    +0.000 A 
ATOM      8  C   UNL     1       4.137   3.955  18.125  0.00  0.00    +0.000 A 
ATOM      9  C   UNL     1       5.604   3.600  18.222  0.00  0.00    +0.000 C 
ATOM     10  N   UNL     1       6.507   4.555  17.556  0.00  0.00    +0.000 NA
ATOM     11  H   UNL     1       6.326   4.495  16.554  0.00  0.00    +0.000 HD
ENDROOT
BRANCH   1  13
ATOM     12  O   UNL     1       7.749   6.715  16.325  0.00  0.00    +0.000 OA
ATOM     13  C   UNL     1       7.143   6.951  17.372  0.00  0.00    +0.000 C 
ATOM     14  N   UNL     1       7.262   8.145  18.035  0.00  0.00    +0.000 N 
ATOM     15  H   UNL     1       6.773   8.229  18.923  0.00  0.00    +0.000 HD
BRANCH  14  16
ATOM     16  C   UNL     1       8.161   9.178  17.568  0.00  0.00    +0.000 C 
BRANCH  16  17
ATOM     17  C   UNL     1       8.985   9.805  18.700  0.00  0.00    +0.000 C 
BRANCH  17  18
ATOM     18  C   UNL     1       9.228  11.319  18.520  0.00  0.00    +0.000 C 
ATOM     19  C   UNL     1       9.217  12.089  19.852  0.00  0.00    +0.000 C 
ATOM     20  C   UNL     1      10.445  11.797  20.710  0.00  0.00    +0.000 C 
ATOM     21  C   UNL     1      11.735  12.081  19.945  0.00  0.00    +0.000 C 
ATOM     22  C   UNL     1      11.783  11.327  18.618  0.00  0.00    +0.000 C 
ATOM     23  C   UNL     1      10.543  11.604  17.771  0.00  0.00    +0.000 C 
ENDBRANCH  17  18
ENDBRANCH  16  17
ENDBRANCH  14  16
ENDBRANCH   1  13
BRANCH   6  24
ATOM     24  O   UNL     1       0.908   2.315  18.575  0.00  0.00    +0.000 OA
ATOM     25  H   UNL     1       0.375   2.174  17.775  0.00  0.00    +0.000 HD
ENDBRANCH   6  24
TORSDOF 5
ENDMDL
MODEL 3
REMARK VINA RESULT:      -7.5      5.259      8.716
REMARK  Name = 
REMARK  5 active torsions:
REMARK  status: ('A' for Active; 'I' for Inactive)
REMARK    1  A    between atoms: C_2  and  C_12
REMARK    2  A    between atoms: N_3  and  C_4
REMARK    3  A    between atoms: C_4  and  C_5
REMARK    4  A    between atoms: C_5  and  C_6
REMARK    5  A    between atoms: C_17  and  O_18
REMARK                            x       y       z     vdW  Elec       q    Type
REMARK                         _______ _______ _______ _____ _____    ______ ____
ROOT
ATOM      1  C   UNL     1       1.215   9.058  18.887  0.00  0.00    +0.000 C 
ATOM      2  C   UNL     1       1.120   8.699  20.378  0.00  0.00    +0.000 C 
ATOM      3  C   UNL     1       0.337   9.710  21.173  0.00  0.00    +0.000 A 
ATOM      4  C   UNL     1      -0.083   9.394  22.475  0.00  0.00    +0.000 A 
ATOM      5  C   UNL     1      -0.786  10.327  23.236  0.00  0.00    +0.000 A 
ATOM      6  C   UNL     1      -1.064  11.574  22.690  0.00  0.00    +0.000 A 
ATOM      7  C   UNL     1      -0.642  11.907  21.406  0.00  0.00    +0.000 A 
ATOM      8  C   UNL     1       0.080  10.982  20.637  0.00  0.00    +0.000 A 
ATOM      9  C   UNL     1       0.502  11.338  19.230  0.00  0.00    +0.000 C 
ATOM     10  N   UNL     1       1.572  10.487  18.682  0.00  0.00    +0.000 NA
ATOM     11  H   UNL     1       2.416  10.673  19.224  0.00  0.00    +0.000 HD
ENDROOT
BRANCH   1  13
ATOM     12  O   UNL     1       2.868   8.453  17.218  0.00  0.00    +0.000 OA
ATOM     13  C   UNL     1       2.277   8.142  18.253  0.00  0.00    +0.000 C 
ATOM     14  N   UNL     1       2.550   6.986  18.936  0.00  0.00    +0.000 N 
ATOM     15  H   UNL     1       1.971   6.781  19.747  0.00  0.00    +0.000 HD
BRANCH  14  16
ATOM     16  C   UNL     1       3.515   6.029  18.438  0.00  0.00    +0.000 C 
BRANCH  16  17
ATOM     17  C   UNL     1       3.866   4.947  19.468  0.00  0.00    +0.000 C 
BRANCH  17  18
ATOM     18  C   UNL     1       3.273   3.561  19.132  0.00  0.00    +0.000 C 
ATOM     19  C   UNL     1       3.542   2.514  20.227  0.00  0.00    +0.000 C 
ATOM     20  C   UNL     1       2.731   2.768  21.495  0.00  0.00    +0.000 C 
ATOM     21  C   UNL     1       1.237   2.845  21.191  0.00  0.00    +0.000 C 
ATOM     22  C   UNL     1       0.932   3.880  20.110  0.00  0.00    +0.000 C 
ATOM     23  C   UNL     1       1.761   3.636  18.850  0.00  0.00    +0.000 C 
ENDBRANCH  17  18
ENDBRANCH  16  17
ENDBRANCH  14  16
ENDBRANCH   1  13
BRANCH   6  24
ATOM     24  O   UNL     1      -1.757  12.515  23.394  0.00  0.00    +0.000 OA
ATOM     25  H   UNL     1      -1.153  13.244  23.613  0.00  0.00    +0.000 HD
ENDBRANCH   6  24
TORSDOF 5
ENDMDL
MODEL 4
REMARK VINA RESULT:      -7.5      1.427      2.275
REMARK  Name = 
REMARK  5 active torsions:
REMARK  status: ('A' for Active; 'I' for Inactive)
REMARK    1  A    between atoms: C_2  and  C_12
REMARK    2  A    between atoms: N_3  and  C_4
REMARK    3  A    between atoms: C_4  and  C_5
REMARK    4  A    between atoms: C_5  and  C_6
REMARK    5  A    between atoms: C_17  and  O_18
REMARK                            x       y       z     vdW  Elec       q    Type
REMARK                         _______ _______ _______ _____ _____    ______ ____
ROOT
ATOM      1  C   UNL     1       6.119   5.630  17.904  0.00  0.00    +0.000 C 
ATOM      2  C   UNL     1       4.988   6.405  18.600  0.00  0.00    +0.000 C 
ATOM      3  C   UNL     1       3.821   5.527  18.970  0.00  0.00    +0.000 A 
ATOM      4  C   UNL     1       2.843   6.011  19.853  0.00  0.00    +0.000 A 
ATOM      5  C   UNL     1       1.743   5.222  20.187  0.00  0.00    +0.000 A 
ATOM      6  C   UNL     1       1.625   3.953  19.633  0.00  0.00    +0.000 A 
ATOM      7  C   UNL     1       2.580   3.466  18.745  0.00  0.00    +0.000 A 
ATOM      8  C   UNL     1       3.683   4.256  18.390  0.00  0.00    +0.000 A 
ATOM      9  C   UNL     1       4.735   3.705  17.453  0.00  0.00    +0.000 C 
ATOM     10  N   UNL     1       5.602   4.727  16.842  0.00  0.00    +0.000 NA
ATOM     11  H   UNL     1       5.019   5.287  16.221  0.00  0.00    +0.000 HD
ENDROOT
BRANCH   1  13
ATOM     12  O   UNL     1       7.575   6.523  16.183  0.00  0.00    +0.000 OA
ATOM     13  C   UNL     1       7.092   6.662  17.307  0.00  0.00    +0.000 C 
ATOM     14  N   UNL     1       7.349   7.760  18.086  0.00  0.00    +0.000 N 
ATOM     15  H   UNL     1       6.956   7.761  19.024  0.00  0.00    +0.000 HD
BRANCH  14  16
ATOM     16  C   UNL     1       8.260   8.795  17.648  0.00  0.00    +0.000 C 
BRANCH  16  17
ATOM     17  C   UNL     1       8.923   9.536  18.817  0.00  0.00    +0.000 C 
BRANCH  17  18
ATOM     18  C   UNL     1       9.079  11.054  18.575  0.00  0.00    +0.000 C 
ATOM     19  C   UNL     1       9.070  11.871  19.879  0.00  0.00    +0.000 C 
ATOM     20  C   UNL     1      10.339  11.675  20.705  0.00  0.00    +0.000 C 
ATOM     21  C   UNL     1      11.587  11.997  19.886  0.00  0.00    +0.000 C 
ATOM     22  C   UNL     1      11.632  11.198  18.585  0.00  0.00    +0.000 C 
ATOM     23  C   UNL     1      10.352  11.379  17.772  0.00  0.00    +0.000 C 
ENDBRANCH  17  18
ENDBRANCH  16  17
ENDBRANCH  14  16
ENDBRANCH   1  13
BRANCH   6  24
ATOM     24  O   UNL     1       0.571   3.143  19.938  0.00  0.00    +0.000 OA
ATOM     25  H   UNL     1       0.803   2.231  19.698  0.00  0.00    +0.000 HD
ENDBRANCH   6  24
TORSDOF 5
ENDMDL
MODEL 5
REMARK VINA RESULT:      -7.4      4.818      7.847
REMARK  Name = 
REMARK  5 active torsions:
REMARK  status: ('A' for Active; 'I' for Inactive)
REMARK    1  A    between atoms: C_2  and  C_12
REMARK    2  A    between atoms: N_3  and  C_4
REMARK    3  A    between atoms: C_4  and  C_5
REMARK    4  A    between atoms: C_5  and  C_6
REMARK    5  A    between atoms: C_17  and  O_18
REMARK                            x       y       z     vdW  Elec       q    Type
REMARK                         _______ _______ _______ _____ _____    ______ ____
ROOT
ATOM      1  C   UNL     1       2.363   6.732  19.062  0.00  0.00    +0.000 C 
ATOM      2  C   UNL     1       3.304   7.285  17.980  0.00  0.00    +0.000 C 
ATOM      3  C   UNL     1       4.129   6.211  17.321  0.00  0.00    +0.000 A 
ATOM      4  C   UNL     1       4.821   6.500  16.133  0.00  0.00    +0.000 A 
ATOM      5  C   UNL     1       5.611   5.527  15.523  0.00  0.00    +0.000 A 
ATOM      6  C   UNL     1       5.707   4.269  16.105  0.00  0.00    +0.000 A 
ATOM      7  C   UNL     1       5.038   3.973  17.290  0.00  0.00    +0.000 A 
ATOM      8  C   UNL     1       4.253   4.948  17.921  0.00  0.00    +0.000 A 
ATOM      9  C   UNL     1       3.500   4.607  19.188  0.00  0.00    +0.000 C 
ATOM     10  N   UNL     1       3.056   5.776  19.966  0.00  0.00    +0.000 NA
ATOM     11  H   UNL     1       3.893   6.240  20.320  0.00  0.00    +0.000 HD
ENDROOT
BRANCH   1  13
ATOM     12  O   UNL     1       1.816   7.940  21.093  0.00  0.00    +0.000 OA
ATOM     13  C   UNL     1       1.817   7.928  19.861  0.00  0.00    +0.000 C 
ATOM     14  N   UNL     1       1.375   8.990  19.116  0.00  0.00    +0.000 N 
ATOM     15  H   UNL     1       1.354   8.869  18.107  0.00  0.00    +0.000 HD
BRANCH  14  16
ATOM     16  C   UNL     1       0.821  10.170  19.745  0.00  0.00    +0.000 C 
BRANCH  16  17
ATOM     17  C   UNL     1      -0.692  10.303  19.532  0.00  0.00    +0.000 C 
BRANCH  17  18
ATOM     18  C   UNL     1      -1.071  10.958  18.185  0.00  0.00    +0.000 C 
ATOM     19  C   UNL     1      -1.766   9.982  17.221  0.00  0.00    +0.000 C 
ATOM     20  C   UNL     1      -3.182   9.624  17.666  0.00  0.00    +0.000 C 
ATOM     21  C   UNL     1      -4.035  10.876  17.860  0.00  0.00    +0.000 C 
ATOM     22  C   UNL     1      -3.376  11.866  18.817  0.00  0.00    +0.000 C 
ATOM     23  C   UNL     1      -1.952  12.206  18.381  0.00  0.00    +0.000 C 
ENDBRANCH  17  18
ENDBRANCH  16  17
ENDBRANCH  14  16
ENDBRANCH   1  13
BRANCH   6  24
ATOM     24  O   UNL     1       6.460   3.283  15.538  0.00  0.00    +0.000 OA
ATOM     25  H   UNL     1       7.264   3.684  15.168  0.00  0.00    +0.000 HD
ENDBRANCH   6  24
TORSDOF 5
ENDMDL
MODEL 6
REMARK VINA RESULT:      -7.4      1.028      1.028
REMARK  Name = 
REMARK  5 active torsions:
REMARK  status: ('A' for Active; 'I' for Inactive)
REMARK    1  A    between atoms: C_2  and  C_12
REMARK    2  A    between atoms: N_3  and  C_4
REMARK    3  A    between atoms: C_4  and  C_5
REMARK    4  A    between atoms: C_5  and  C_6
REMARK    5  A    between atoms: C_17  and  O_18
REMARK                            x       y       z     vdW  Elec       q    Type
REMARK                         _______ _______ _______ _____ _____    ______ ____
ROOT
ATOM      1  C   UNL     1       5.306   6.033  17.301  0.00  0.00    +0.000 C 
ATOM      2  C   UNL     1       5.488   4.901  18.325  0.00  0.00    +0.000 C 
ATOM      3  C   UNL     1       4.181   4.399  18.879  0.00  0.00    +0.000 A 
ATOM      4  C   UNL     1       4.151   3.194  19.599  0.00  0.00    +0.000 A 
ATOM      5  C   UNL     1       2.955   2.726  20.141  0.00  0.00    +0.000 A 
ATOM      6  C   UNL     1       1.794   3.468  19.961  0.00  0.00    +0.000 A 
ATOM      7  C   UNL     1       1.811   4.671  19.262  0.00  0.00    +0.000 A 
ATOM      8  C   UNL     1       3.011   5.159  18.725  0.00  0.00    +0.000 A 
ATOM      9  C   UNL     1       3.014   6.449  17.935  0.00  0.00    +0.000 C 
ATOM     10  N   UNL     1       4.343   7.062  17.776  0.00  0.00    +0.000 NA
ATOM     11  H   UNL     1       4.650   7.365  18.701  0.00  0.00    +0.000 HD
ENDROOT
BRANCH   1  13
ATOM     12  O   UNL     1       7.484   6.177  16.245  0.00  0.00    +0.000 OA
ATOM     13  C   UNL     1       6.687   6.662  17.050  0.00  0.00    +0.000 C 
ATOM     14  N   UNL     1       6.952   7.814  17.742  0.00  0.00    +0.000 N 
ATOM     15  H   UNL     1       6.263   8.108  18.430  0.00  0.00    +0.000 HD
BRANCH  14  16
ATOM     16  C   UNL     1       8.222   8.495  17.609  0.00  0.00    +0.000 C 
BRANCH  16  17
ATOM     17  C   UNL     1       8.226   9.880  18.271  0.00  0.00    +0.000 C 
BRANCH  17  18
ATOM     18  C   UNL     1       9.624  10.329  18.752  0.00  0.00    +0.000 C 
ATOM     19  C   UNL     1      10.274  11.364  17.818  0.00  0.00    +0.000 C 
ATOM     20  C   UNL     1       9.596  12.730  17.892  0.00  0.00    +0.000 C 
ATOM     21  C   UNL     1       9.564  13.256  19.325  0.00  0.00    +0.000 C 
ATOM     22  C   UNL     1       8.919  12.254  20.280  0.00  0.00    +0.000 C 
ATOM     23  C   UNL     1       9.585  10.883  20.189  0.00  0.00    +0.000 C 
ENDBRANCH  17  18
ENDBRANCH  16  17
ENDBRANCH  14  16
ENDBRANCH   1  13
BRANCH   6  24
ATOM     24  O   UNL     1       0.599   3.044  20.466  0.00  0.00    +0.000 OA
ATOM     25  H   UNL     1       0.367   3.607  21.223  0.00  0.00    +0.000 HD
ENDBRANCH   6  24
TORSDOF 5
ENDMDL
MODEL 7
REMARK VINA RESULT:      -7.4      1.461      2.098
REMARK  Name = 
REMARK  5 active torsions:
REMARK  status: ('A' for Active; 'I' for Inactive)
REMARK    1  A    between atoms: C_2  and  C_12
REMARK    2  A    between atoms: N_3  and  C_4
REMARK    3  A    between atoms: C_4  and  C_5
REMARK    4  A    between atoms: C_5  and  C_6
REMARK    5  A    between atoms: C_17  and  O_18
REMARK                            x       y       z     vdW  Elec       q    Type
REMARK                         _______ _______ _______ _____ _____    ______ ____
ROOT
ATOM      1  C   UNL     1       6.045   6.144  18.131  0.00  0.00    +0.000 C 
ATOM      2  C   UNL     1       5.175   5.546  17.014  0.00  0.00    +0.000 C 
ATOM      3  C   UNL     1       4.298   4.421  17.497  0.00  0.00    +0.000 A 
ATOM      4  C   UNL     1       3.250   3.960  16.683  0.00  0.00    +0.000 A 
ATOM      5  C   UNL     1       2.444   2.903  17.103  0.00  0.00    +0.000 A 
ATOM      6  C   UNL     1       2.692   2.309  18.334  0.00  0.00    +0.000 A 
ATOM      7  C   UNL     1       3.736   2.745  19.145  0.00  0.00    +0.000 A 
ATOM      8  C   UNL     1       4.563   3.798  18.727  0.00  0.00    +0.000 A 
ATOM      9  C   UNL     1       5.671   4.290  19.630  0.00  0.00    +0.000 C 
ATOM     10  N   UNL     1       6.703   5.091  18.948  0.00  0.00    +0.000 NA
ATOM     11  H   UNL     1       7.195   4.468  18.307  0.00  0.00    +0.000 HD
ENDROOT
BRANCH   1  13
ATOM     12  O   UNL     1       7.626   6.750  16.395  0.00  0.00    +0.000 OA
ATOM     13  C   UNL     1       7.098   7.048  17.467  0.00  0.00    +0.000 C 
ATOM     14  N   UNL     1       7.377   8.219  18.122  0.00  0.00    +0.000 N 
ATOM     15  H   UNL     1       6.942   8.354  19.031  0.00  0.00    +0.000 HD
BRANCH  14  16
ATOM     16  C   UNL     1       8.362   9.149  17.613  0.00  0.00    +0.000 C 
BRANCH  16  17
ATOM     17  C   UNL     1       9.154   9.845  18.727  0.00  0.00    +0.000 C 
BRANCH  17  18
ATOM     18  C   UNL     1       9.333  11.363  18.501  0.00  0.00    +0.000 C 
ATOM     19  C   UNL     1       9.281  12.172  19.808  0.00  0.00    +0.000 C 
ATOM     20  C   UNL     1      10.517  11.960  20.680  0.00  0.00    +0.000 C 
ATOM     21  C   UNL     1      11.798  12.276  19.911  0.00  0.00    +0.000 C 
ATOM     22  C   UNL     1      11.885  11.485  18.608  0.00  0.00    +0.000 C 
ATOM     23  C   UNL     1      10.638  11.681  17.748  0.00  0.00    +0.000 C 
ENDBRANCH  17  18
ENDBRANCH  16  17
ENDBRANCH  14  16
ENDBRANCH   1  13
BRANCH   6  24
ATOM     24  O   UNL     1       1.923   1.278  18.789  0.00  0.00    +0.000 OA
ATOM     25  H   UNL     1       1.648   0.739  18.029  0.00  0.00    +0.000 HD
ENDBRANCH   6  24
TORSDOF 5
ENDMDL
MODEL 8
REMARK VINA RESULT:      -7.4      5.361      9.054
REMARK  Name = 
REMARK  5 active torsions:
REMARK  status: ('A' for Active; 'I' for Inactive)
REMARK    1  A    between atoms: C_2  and  C_12
REMARK    2  A    between atoms: N_3  and  C_4
REMARK    3  A    between atoms: C_4  and  C_5
REMARK    4  A    between atoms: C_5  and  C_6
REMARK    5  A    between atoms: C_17  and  O_18
REMARK                            x       y       z     vdW  Elec       q    Type
REMARK                         _______ _______ _______ _____ _____    ______ ____
ROOT
ATOM      1  C   UNL     1       1.116   9.777  18.618  0.00  0.00    +0.000 C 
ATOM      2  C   UNL     1      -0.210   9.543  17.877  0.00  0.00    +0.000 C 
ATOM      3  C   UNL     1      -1.298  10.487  18.315  0.00  0.00    +0.000 A 
ATOM      4  C   UNL     1      -2.470  10.598  17.549  0.00  0.00    +0.000 A 
ATOM      5  C   UNL     1      -3.498  11.447  17.953  0.00  0.00    +0.000 A 
ATOM      6  C   UNL     1      -3.351  12.182  19.123  0.00  0.00    +0.000 A 
ATOM      7  C   UNL     1      -2.201  12.072  19.900  0.00  0.00    +0.000 A 
ATOM      8  C   UNL     1      -1.166  11.209  19.512  0.00  0.00    +0.000 A 
ATOM      9  C   UNL     1       0.096  11.124  20.342  0.00  0.00    +0.000 C 
ATOM     10  N   UNL     1       0.914   9.927  20.084  0.00  0.00    +0.000 NA
ATOM     11  H   UNL     1       0.380   9.119  20.404  0.00  0.00    +0.000 HD
ENDROOT
BRANCH   1  13
ATOM     12  O   UNL     1       2.613   8.458  17.240  0.00  0.00    +0.000 OA
ATOM     13  C   UNL     1       2.034   8.579  18.321  0.00  0.00    +0.000 C 
ATOM     14  N   UNL     1       2.199   7.684  19.346  0.00  0.00    +0.000 N 
ATOM     15  H   UNL     1       1.634   7.830  20.179  0.00  0.00    +0.000 HD
BRANCH  14  16
ATOM     16  C   UNL     1       3.023   6.505  19.190  0.00  0.00    +0.000 C 
BRANCH  16  17
ATOM     17  C   UNL     1       2.479   5.294  19.959  0.00  0.00    +0.000 C 
BRANCH  17  18
ATOM     18  C   UNL     1       1.349   4.548  19.216  0.00  0.00    +0.000 C 
ATOM     19  C   UNL     1       1.601   4.437  17.703  0.00  0.00    +0.000 C 
ATOM     20  C   UNL     1       2.729   3.466  17.363  0.00  0.00    +0.000 C 
ATOM     21  C   UNL     1       2.469   2.084  17.960  0.00  0.00    +0.000 C 
ATOM     22  C   UNL     1       2.220   2.156  19.465  0.00  0.00    +0.000 C 
ATOM     23  C   UNL     1       1.106   3.145  19.803  0.00  0.00    +0.000 C 
ENDBRANCH  17  18
ENDBRANCH  16  17
ENDBRANCH  14  16
ENDBRANCH   1  13
BRANCH   6  24
ATOM     24  O   UNL     1      -4.327  13.033  19.552  0.00  0.00    +0.000 OA
ATOM     25  H   UNL     1      -4.991  13.121  18.848  0.00  0.00    +0.000 HD
ENDBRANCH   6  24
TORSDOF 5
ENDMDL
MODEL 9
REMARK VINA RESULT:      -7.3      5.301      8.957
REMARK  Name = 
REMARK  5 active torsions:
REMARK  status: ('A' for Active; 'I' for Inactive)
REMARK    1  A    between atoms: C_2  and  C_12
REMARK    2  A    between atoms: N_3  and  C_4
REMARK    3  A    between atoms: C_4  and  C_5
REMARK    4  A    between atoms: C_5  and  C_6
REMARK    5  A    between atoms: C_17  and  O_18
REMARK                            x       y       z     vdW  Elec       q    Type
REMARK                         _______ _______ _______ _____ _____    ______ ____
ROOT
ATOM      1  C   UNL     1       0.890   9.525  18.798  0.00  0.00    +0.000 C 
ATOM      2  C   UNL     1       0.873   9.175  20.295  0.00  0.00    +0.000 C 
ATOM      3  C   UNL     1       0.015  10.111  21.103  0.00  0.00    +0.000 A 
ATOM      4  C   UNL     1      -0.335   9.769  22.420  0.00  0.00    +0.000 A 
ATOM      5  C   UNL     1      -1.107  10.635  23.192  0.00  0.00    +0.000 A 
ATOM      6  C   UNL     1      -1.525  11.842  22.644  0.00  0.00    +0.000 A 
ATOM      7  C   UNL     1      -1.175  12.201  21.346  0.00  0.00    +0.000 A 
ATOM      8  C   UNL     1      -0.386  11.345  20.564  0.00  0.00    +0.000 A 
ATOM      9  C   UNL     1      -0.041  11.725  19.142  0.00  0.00    +0.000 C 
ATOM     10  N   UNL     1       1.094  10.980  18.570  0.00  0.00    +0.000 NA
ATOM     11  H   UNL     1       1.929  11.257  19.085  0.00  0.00    +0.000 HD
ENDROOT
BRANCH   1  13
ATOM     12  O   UNL     1       2.523   9.050  17.069  0.00  0.00    +0.000 OA
ATOM     13  C   UNL     1       2.020   8.713  18.142  0.00  0.00    +0.000 C 
ATOM     14  N   UNL     1       2.458   7.623  18.847  0.00  0.00    +0.000 N 
ATOM     15  H   UNL     1       1.945   7.384  19.692  0.00  0.00    +0.000 HD
BRANCH  14  16
ATOM     16  C   UNL     1       3.504   6.766  18.332  0.00  0.00    +0.000 C 
BRANCH  16  17
ATOM     17  C   UNL     1       3.318   5.296  18.732  0.00  0.00    +0.000 C 
BRANCH  17  18
ATOM     18  C   UNL     1       1.844   4.835  18.720  0.00  0.00    +0.000 C 
ATOM     19  C   UNL     1       1.558   3.773  17.644  0.00  0.00    +0.000 C 
ATOM     20  C   UNL     1       2.181   2.419  17.975  0.00  0.00    +0.000 C 
ATOM     21  C   UNL     1       1.728   1.921  19.345  0.00  0.00    +0.000 C 
ATOM     22  C   UNL     1       2.002   2.950  20.440  0.00  0.00    +0.000 C 
ATOM     23  C   UNL     1       1.396   4.309  20.096  0.00  0.00    +0.000 C 
ENDBRANCH  17  18
ENDBRANCH  16  17
ENDBRANCH  14  16
ENDBRANCH   1  13
BRANCH   6  24
ATOM     24  O   UNL     1      -2.290  12.716  23.360  0.00  0.00    +0.000 OA
ATOM     25  H   UNL     1      -3.193  12.701  23.001  0.00  0.00    +0.000 HD
ENDBRANCH   6  24
TORSDOF 5
ENDMDL
