MODEL 1
REMARK VINA RESULT:      -7.7      0.000      0.000
REMARK  Name = 
REMARK  7 active torsions:
REMARK  status: ('A' for Active; 'I' for Inactive)
REMARK    1  A    between atoms: C_1  and  C_2
REMARK    2  A    between atoms: C_5  and  N_6
REMARK    3  A    between atoms: N_9  and  C_10
REMARK    4  A    between atoms: C_10  and  C_11
REMARK    5  A    between atoms: C_11  and  O_12
REMARK    6  A    between atoms: O_12  and  C_13
REMARK    7  A    between atoms: C_13  and  C_15
REMARK                            x       y       z     vdW  Elec       q    Type
REMARK                         _______ _______ _______ _____ _____    ______ ____
ROOT
ATOM      1  O   UNL     1       6.005   5.744  18.157  0.00  0.00    +0.000 OA
ENDROOT
BRANCH   1   2
ATOM      2  C   UNL     1       6.922   4.943  17.551  0.00  0.00    +0.000 C 
ATOM      3  O   UNL     1       7.874   4.401  18.143  0.00  0.00    +0.000 OA
BRANCH   2   4
ATOM      4  C   UNL     1       6.685   4.883  16.139  0.00  0.00    +0.000 A 
ATOM      5  C   UNL     1       7.603   5.144  15.139  0.00  0.00    +0.000 A 
ATOM      6  C   UNL     1       7.001   4.825  13.900  0.00  0.00    +0.000 A 
ATOM      7  C   UNL     1       7.467   4.798  12.582  0.00  0.00    +0.000 A 
ATOM      8  C   UNL     1       7.013   3.734  11.809  0.00  0.00    +0.000 A 
ATOM      9  C   UNL     1       5.779   3.167  12.091  0.00  0.00    +0.000 A 
ATOM     10  C   UNL     1       5.040   3.553  13.218  0.00  0.00    +0.000 A 
ATOM     11  C   UNL     1       5.760   4.263  14.181  0.00  0.00    +0.000 A 
ATOM     12  N   UNL     1       5.509   4.520  15.510  0.00  0.00    +0.000 N 
ATOM     13  H   UNL     1       4.658   4.265  15.993  0.00  0.00    +0.000 HD
ENDBRANCH   2   4
ENDBRANCH   1   2
BRANCH   1  14
ATOM     14  C   UNL     1       5.314   5.111  19.249  0.00  0.00    +0.000 C 
BRANCH  14  15
ATOM     15  C   UNL     1       3.852   4.842  18.890  0.00  0.00    +0.000 C 
BRANCH  15  21
ATOM     16  C   UNL     1       1.670   6.089  20.636  0.00  0.00    +0.000 C 
ATOM     17  C   UNL     1       2.136   4.674  20.719  0.00  0.00    +0.000 A 
ATOM     18  N   UNL     1       1.658   3.777  21.558  0.00  0.00    +0.000 NA
ATOM     19  C   UNL     1       2.346   2.624  21.308  0.00  0.00    +0.000 A 
ATOM     20  C   UNL     1       3.249   2.825  20.303  0.00  0.00    +0.000 A 
ATOM     21  N   UNL     1       3.139   4.131  19.927  0.00  0.00    +0.000 N 
BRANCH  20  22
ATOM     22  N   UNL     1       4.172   1.869  19.767  0.00  0.00    +0.000 N 
ATOM     23  O   UNL     1       5.209   1.661  20.445  0.00  0.00    +0.000 OA
ATOM     24  O   UNL     1       3.906   1.335  18.704  0.00  0.00    +0.000 OA
ENDBRANCH  20  22
ENDBRANCH  15  21
ENDBRANCH  14  15
ENDBRANCH   1  14
TORSDOF 6
ENDMDL
MODEL 2
REMARK VINA RESULT:      -7.7      0.824      1.475
REMARK  Name = 
REMARK  7 active torsions:
REMARK  status: ('A' for Active; 'I' for Inactive)
REMARK    1  A    between atoms: C_1  and  C_2
REMARK    2  A    between atoms: C_5  and  N_6
REMARK    3  A    between atoms: N_9  and  C_10
REMARK    4  A    between atoms: C_10  and  C_11
REMARK    5  A    between atoms: C_11  and  O_12
REMARK    6  A    between atoms: O_12  and  C_13
REMARK    7  A    between atoms: C_13  and  C_15
REMARK                            x       y       z     vdW  Elec       q    Type
REMARK                         _______ _______ _______ _____ _____    ______ ____
ROOT
ATOM      1  O   UNL     1       6.194   5.120  18.338  0.00  0.00    +0.000 OA
ENDROOT
BRANCH   1   2
ATOM      2  C   UNL     1       6.161   5.979  17.283  0.00  0.00    +0.000 C 
ATOM      3  O   UNL     1       5.827   7.175  17.369  0.00  0.00    +0.000 OA
BRANCH   2   4
ATOM      4  C   UNL     1       6.477   5.294  16.064  0.00  0.00    +0.000 A 
ATOM      5  C   UNL     1       5.740   4.287  15.471  0.00  0.00    +0.000 A 
ATOM      6  C   UNL     1       6.326   4.000  14.216  0.00  0.00    +0.000 A 
ATOM      7  C   UNL     1       5.968   3.158  13.158  0.00  0.00    +0.000 A 
ATOM      8  C   UNL     1       6.177   3.678  11.884  0.00  0.00    +0.000 A 
ATOM      9  C   UNL     1       7.189   4.606  11.686  0.00  0.00    +0.000 A 
ATOM     10  C   UNL     1       7.918   5.130  12.762  0.00  0.00    +0.000 A 
ATOM     11  C   UNL     1       7.346   4.925  14.019  0.00  0.00    +0.000 A 
ATOM     12  N   UNL     1       7.556   5.536  15.235  0.00  0.00    +0.000 N 
ATOM     13  H   UNL     1       8.269   6.230  15.411  0.00  0.00    +0.000 HD
ENDBRANCH   2   4
ENDBRANCH   1   2
BRANCH   1  14
ATOM     14  C   UNL     1       5.180   5.374  19.325  0.00  0.00    +0.000 C 
BRANCH  14  15
ATOM     15  C   UNL     1       3.822   4.843  18.864  0.00  0.00    +0.000 C 
BRANCH  15  21
ATOM     16  C   UNL     1       1.659   6.084  20.640  0.00  0.00    +0.000 C 
ATOM     17  C   UNL     1       2.121   4.667  20.707  0.00  0.00    +0.000 A 
ATOM     18  N   UNL     1       1.648   3.765  21.544  0.00  0.00    +0.000 NA
ATOM     19  C   UNL     1       2.329   2.611  21.278  0.00  0.00    +0.000 A 
ATOM     20  C   UNL     1       3.223   2.818  20.267  0.00  0.00    +0.000 A 
ATOM     21  N   UNL     1       3.115   4.127  19.902  0.00  0.00    +0.000 N 
BRANCH  20  22
ATOM     22  N   UNL     1       4.139   1.862  19.715  0.00  0.00    +0.000 N 
ATOM     23  O   UNL     1       5.197   1.672  20.364  0.00  0.00    +0.000 OA
ATOM     24  O   UNL     1       3.846   1.312  18.668  0.00  0.00    +0.000 OA
ENDBRANCH  20  22
ENDBRANCH  15  21
ENDBRANCH  14  15
ENDBRANCH   1  14
TORSDOF 6
ENDMDL
MODEL 3
REMARK VINA RESULT:      -7.7      1.330      1.589
REMARK  Name = 
REMARK  7 active torsions:
REMARK  status: ('A' for Active; 'I' for Inactive)
REMARK    1  A    between atoms: C_1  and  C_2
REMARK    2  A    between atoms: C_5  and  N_6
REMARK    3  A    between atoms: N_9  and  C_10
REMARK    4  A    between atoms: C_10  and  C_11
REMARK    5  A    between atoms: C_11  and  O_12
REMARK    6  A    between atoms: O_12  and  C_13
REMARK    7  A    between atoms: C_13  and  C_15
REMARK                            x       y       z     vdW  Elec       q    Type
REMARK                         _______ _______ _______ _____ _____    ______ ____
ROOT
ATOM      1  O   UNL     1       5.149   4.356  18.311  0.00  0.00    +0.000 OA
ENDROOT
BRANCH   1   2
ATOM      2  C   UNL     1       6.393   4.475  17.776  0.00  0.00    +0.000 C 
ATOM      3  O   UNL     1       7.437   4.553  18.450  0.00  0.00    +0.000 OA
BRANCH   2   4
ATOM      4  C   UNL     1       6.321   4.581  16.348  0.00  0.00    +0.000 A 
ATOM      5  C   UNL     1       7.334   4.991  15.502  0.00  0.00    +0.000 A 
ATOM      6  C   UNL     1       6.891   4.806  14.171  0.00  0.00    +0.000 A 
ATOM      7  C   UNL     1       7.505   4.955  12.924  0.00  0.00    +0.000 A 
ATOM      8  C   UNL     1       7.191   3.980  11.982  0.00  0.00    +0.000 A 
ATOM      9  C   UNL     1       5.960   3.344  12.048  0.00  0.00    +0.000 A 
ATOM     10  C   UNL     1       5.081   3.565  13.117  0.00  0.00    +0.000 A 
ATOM     11  C   UNL     1       5.653   4.175  14.236  0.00  0.00    +0.000 A 
ATOM     12  N   UNL     1       5.242   4.259  15.547  0.00  0.00    +0.000 N 
ATOM     13  H   UNL     1       4.354   3.920  15.892  0.00  0.00    +0.000 HD
ENDBRANCH   2   4
ENDBRANCH   1   2
BRANCH   1  14
ATOM     14  C   UNL     1       4.864   5.322  19.337  0.00  0.00    +0.000 C 
BRANCH  14  15
ATOM     15  C   UNL     1       3.422   5.189  19.830  0.00  0.00    +0.000 C 
BRANCH  15  21
ATOM     16  C   UNL     1       1.483   5.130  17.462  0.00  0.00    +0.000 C 
ATOM     17  C   UNL     1       1.898   3.944  18.266  0.00  0.00    +0.000 A 
ATOM     18  N   UNL     1       1.481   2.712  18.051  0.00  0.00    +0.000 NA
ATOM     19  C   UNL     1       2.094   1.937  18.994  0.00  0.00    +0.000 A 
ATOM     20  C   UNL     1       2.893   2.710  19.787  0.00  0.00    +0.000 A 
ATOM     21  N   UNL     1       2.768   3.994  19.347  0.00  0.00    +0.000 N 
BRANCH  20  22
ATOM     22  N   UNL     1       3.683   2.275  20.902  0.00  0.00    +0.000 N 
ATOM     23  O   UNL     1       4.880   1.986  20.652  0.00  0.00    +0.000 OA
ATOM     24  O   UNL     1       3.155   2.205  21.998  0.00  0.00    +0.000 OA
ENDBRANCH  20  22
ENDBRANCH  15  21
ENDBRANCH  14  15
ENDBRANCH   1  14
TORSDOF 6
ENDMDL
MODEL 4
REMARK VINA RESULT:      -7.6      1.019      1.138
REMARK  Name = 
REMARK  7 active torsions:
REMARK  status: ('A' for Active; 'I' for Inactive)
REMARK    1  A    between atoms: C_1  and  C_2
REMARK    2  A    between atoms: C_5  and  N_6
REMARK    3  A    between atoms: N_9  and  C_10
REMARK    4  A    between atoms: C_10  and  C_11
REMARK    5  A    between atoms: C_11  and  O_12
REMARK    6  A    between atoms: O_12  and  C_13
REMARK    7  A    between atoms: C_13  and  C_15
REMARK                            x       y       z     vdW  Elec       q    Type
REMARK                         _______ _______ _______ _____ _____    ______ ____
ROOT
ATOM      1  O   UNL     1       5.412   4.160  18.375  0.00  0.00    +0.000 OA
ENDROOT
BRANCH   1   2
ATOM      2  C   UNL     1       6.616   4.422  17.798  0.00  0.00    +0.000 C 
ATOM      3  O   UNL     1       7.669   4.604  18.436  0.00  0.00    +0.000 OA
BRANCH   2   4
ATOM      4  C   UNL     1       6.479   4.541  16.376  0.00  0.00    +0.000 A 
ATOM      5  C   UNL     1       7.425   5.034  15.497  0.00  0.00    +0.000 A 
ATOM      6  C   UNL     1       6.944   4.834  14.183  0.00  0.00    +0.000 A 
ATOM      7  C   UNL     1       7.495   5.043  12.914  0.00  0.00    +0.000 A 
ATOM      8  C   UNL     1       7.214   4.059  11.971  0.00  0.00    +0.000 A 
ATOM      9  C   UNL     1       6.036   3.335  12.075  0.00  0.00    +0.000 A 
ATOM     10  C   UNL     1       5.187   3.478  13.181  0.00  0.00    +0.000 A 
ATOM     11  C   UNL     1       5.758   4.114  14.286  0.00  0.00    +0.000 A 
ATOM     12  N   UNL     1       5.394   4.152  15.613  0.00  0.00    +0.000 N 
ATOM     13  H   UNL     1       4.548   3.746  15.987  0.00  0.00    +0.000 HD
ENDBRANCH   2   4
ENDBRANCH   1   2
BRANCH   1  14
ATOM     14  C   UNL     1       4.655   5.340  18.698  0.00  0.00    +0.000 C 
BRANCH  14  15
ATOM     15  C   UNL     1       3.191   5.181  18.285  0.00  0.00    +0.000 C 
BRANCH  15  21
ATOM     16  C   UNL     1       1.694   6.236  20.738  0.00  0.00    +0.000 C 
ATOM     17  C   UNL     1       1.738   4.810  20.303  0.00  0.00    +0.000 A 
ATOM     18  N   UNL     1       1.128   3.820  20.923  0.00  0.00    +0.000 NA
ATOM     19  C   UNL     1       1.417   2.692  20.207  0.00  0.00    +0.000 A 
ATOM     20  C   UNL     1       2.209   3.006  19.139  0.00  0.00    +0.000 A 
ATOM     21  N   UNL     1       2.436   4.349  19.194  0.00  0.00    +0.000 N 
BRANCH  20  22
ATOM     22  N   UNL     1       2.743   2.100  18.165  0.00  0.00    +0.000 N 
ATOM     23  O   UNL     1       3.644   1.324  18.568  0.00  0.00    +0.000 OA
ATOM     24  O   UNL     1       2.307   2.144  17.028  0.00  0.00    +0.000 OA
ENDBRANCH  20  22
ENDBRANCH  15  21
ENDBRANCH  14  15
ENDBRANCH   1  14
TORSDOF 6
ENDMDL
MODEL 5
REMARK VINA RESULT:      -7.5      1.565      2.149
REMARK  Name = 
REMARK  7 active torsions:
REMARK  status: ('A' for Active; 'I' for Inactive)
REMARK    1  A    between atoms: C_1  and  C_2
REMARK    2  A    between atoms: C_5  and  N_6
REMARK    3  A    between atoms: N_9  and  C_10
REMARK    4  A    between atoms: C_10  and  C_11
REMARK    5  A    between atoms: C_11  and  O_12
REMARK    6  A    between atoms: O_12  and  C_13
REMARK    7  A    between atoms: C_13  and  C_15
REMARK                            x       y       z     vdW  Elec       q    Type
REMARK                         _______ _______ _______ _____ _____    ______ ____
ROOT
ATOM      1  O   UNL     1       4.590   5.739  17.728  0.00  0.00    +0.000 OA
ENDROOT
BRANCH   1   2
ATOM      2  C   UNL     1       5.737   6.247  17.201  0.00  0.00    +0.000 C 
ATOM      3  O   UNL     1       6.300   7.275  17.621  0.00  0.00    +0.000 OA
BRANCH   2   4
ATOM      4  C   UNL     1       6.147   5.487  16.057  0.00  0.00    +0.000 A 
ATOM      5  C   UNL     1       5.429   4.484  15.435  0.00  0.00    +0.000 A 
ATOM      6  C   UNL     1       6.130   4.107  14.266  0.00  0.00    +0.000 A 
ATOM      7  C   UNL     1       5.846   3.228  13.216  0.00  0.00    +0.000 A 
ATOM      8  C   UNL     1       6.214   3.671  11.949  0.00  0.00    +0.000 A 
ATOM      9  C   UNL     1       7.285   4.542  11.819  0.00  0.00    +0.000 A 
ATOM     10  C   UNL     1       7.921   5.090  12.942  0.00  0.00    +0.000 A 
ATOM     11  C   UNL     1       7.209   4.975  14.138  0.00  0.00    +0.000 A 
ATOM     12  N   UNL     1       7.319   5.639  15.339  0.00  0.00    +0.000 N 
ATOM     13  H   UNL     1       8.042   6.310  15.559  0.00  0.00    +0.000 HD
ENDBRANCH   2   4
ENDBRANCH   1   2
BRANCH   1  14
ATOM     14  C   UNL     1       4.694   5.399  19.121  0.00  0.00    +0.000 C 
BRANCH  14  15
ATOM     15  C   UNL     1       3.310   5.203  19.742  0.00  0.00    +0.000 C 
BRANCH  15  21
ATOM     16  C   UNL     1       1.279   5.073  17.455  0.00  0.00    +0.000 C 
ATOM     17  C   UNL     1       1.748   3.906  18.257  0.00  0.00    +0.000 A 
ATOM     18  N   UNL     1       1.347   2.664  18.077  0.00  0.00    +0.000 NA
ATOM     19  C   UNL     1       2.013   1.915  19.006  0.00  0.00    +0.000 A 
ATOM     20  C   UNL     1       2.828   2.714  19.755  0.00  0.00    +0.000 A 
ATOM     21  N   UNL     1       2.660   3.989  19.302  0.00  0.00    +0.000 N 
BRANCH  20  22
ATOM     22  N   UNL     1       3.670   2.311  20.843  0.00  0.00    +0.000 N 
ATOM     23  O   UNL     1       4.845   1.985  20.541  0.00  0.00    +0.000 OA
ATOM     24  O   UNL     1       3.202   2.300  21.968  0.00  0.00    +0.000 OA
ENDBRANCH  20  22
ENDBRANCH  15  21
ENDBRANCH  14  15
ENDBRANCH   1  14
TORSDOF 6
ENDMDL
MODEL 6
REMARK VINA RESULT:      -7.4      3.389      6.625
REMARK  Name = 
REMARK  7 active torsions:
REMARK  status: ('A' for Active; 'I' for Inactive)
REMARK    1  A    between atoms: C_1  and  C_2
REMARK    2  A    between atoms: C_5  and  N_6
REMARK    3  A    between atoms: N_9  and  C_10
REMARK    4  A    between atoms: C_10  and  C_11
REMARK    5  A    between atoms: C_11  and  O_12
REMARK    6  A    between atoms: O_12  and  C_13
REMARK    7  A    between atoms: C_13  and  C_15
REMARK                            x       y       z     vdW  Elec       q    Type
REMARK                         _______ _______ _______ _____ _____    ______ ____
ROOT
ATOM      1  O   UNL     1       4.217   7.349  17.708  0.00  0.00    +0.000 OA
ENDROOT
BRANCH   1   2
ATOM      2  C   UNL     1       2.890   7.542  17.937  0.00  0.00    +0.000 C 
ATOM      3  O   UNL     1       2.267   8.566  17.601  0.00  0.00    +0.000 OA
BRANCH   2   4
ATOM      4  C   UNL     1       2.342   6.448  18.684  0.00  0.00    +0.000 A 
ATOM      5  C   UNL     1       1.761   5.307  18.165  0.00  0.00    +0.000 A 
ATOM      6  C   UNL     1       1.494   4.427  19.240  0.00  0.00    +0.000 A 
ATOM      7  C   UNL     1       1.009   3.118  19.313  0.00  0.00    +0.000 A 
ATOM      8  C   UNL     1       1.621   2.306  20.264  0.00  0.00    +0.000 A 
ATOM      9  C   UNL     1       2.159   2.883  21.404  0.00  0.00    +0.000 A 
ATOM     10  C   UNL     1       2.219   4.274  21.559  0.00  0.00    +0.000 A 
ATOM     11  C   UNL     1       2.027   5.008  20.386  0.00  0.00    +0.000 A 
ATOM     12  N   UNL     1       2.325   6.312  20.060  0.00  0.00    +0.000 N 
ATOM     13  H   UNL     1       2.691   6.995  20.707  0.00  0.00    +0.000 HD
ENDBRANCH   2   4
ENDBRANCH   1   2
BRANCH   1  14
ATOM     14  C   UNL     1       4.501   6.706  16.453  0.00  0.00    +0.000 C 
BRANCH  14  15
ATOM     15  C   UNL     1       5.351   5.452  16.660  0.00  0.00    +0.000 C 
BRANCH  15  21
ATOM     16  C   UNL     1       4.944   3.622  19.080  0.00  0.00    +0.000 C 
ATOM     17  C   UNL     1       5.995   4.675  18.963  0.00  0.00    +0.000 A 
ATOM     18  N   UNL     1       6.888   4.947  19.893  0.00  0.00    +0.000 NA
ATOM     19  C   UNL     1       7.654   5.962  19.393  0.00  0.00    +0.000 A 
ATOM     20  C   UNL     1       7.220   6.306  18.145  0.00  0.00    +0.000 A 
ATOM     21  N   UNL     1       6.153   5.506  17.861  0.00  0.00    +0.000 N 
BRANCH  20  22
ATOM     22  N   UNL     1       7.747   7.338  17.301  0.00  0.00    +0.000 N 
ATOM     23  O   UNL     1       7.825   8.482  17.810  0.00  0.00    +0.000 OA
ATOM     24  O   UNL     1       8.070   7.049  16.161  0.00  0.00    +0.000 OA
ENDBRANCH  20  22
ENDBRANCH  15  21
ENDBRANCH  14  15
ENDBRANCH   1  14
TORSDOF 6
ENDMDL
MODEL 7
REMARK VINA RESULT:      -7.3      4.876      6.912
REMARK  Name = 
REMARK  7 active torsions:
REMARK  status: ('A' for Active; 'I' for Inactive)
REMARK    1  A    between atoms: C_1  and  C_2
REMARK    2  A    between atoms: C_5  and  N_6
REMARK    3  A    between atoms: N_9  and  C_10
REMARK    4  A    between atoms: C_10  and  C_11
REMARK    5  A    between atoms: C_11  and  O_12
REMARK    6  A    between atoms: O_12  and  C_13
REMARK    7  A    between atoms: C_13  and  C_15
REMARK                            x       y       z     vdW  Elec       q    Type
REMARK                         _______ _______ _______ _____ _____    ______ ____
ROOT
ATOM      1  O   UNL     1       8.348   7.081  18.588  0.00  0.00    +0.000 OA
ENDROOT
BRANCH   1   2
ATOM      2  C   UNL     1       7.880   8.100  17.818  0.00  0.00    +0.000 C 
ATOM      3  O   UNL     1       7.134   7.943  16.834  0.00  0.00    +0.000 OA
BRANCH   2   4
ATOM      4  C   UNL     1       8.429   9.352  18.248  0.00  0.00    +0.000 A 
ATOM      5  C   UNL     1       9.231   9.562  19.354  0.00  0.00    +0.000 A 
ATOM      6  C   UNL     1       9.670  10.906  19.325  0.00  0.00    +0.000 A 
ATOM      7  C   UNL     1      10.556  11.646  20.114  0.00  0.00    +0.000 A 
ATOM      8  C   UNL     1      11.376  12.532  19.423  0.00  0.00    +0.000 A 
ATOM      9  C   UNL     1      10.930  13.079  18.229  0.00  0.00    +0.000 A 
ATOM     10  C   UNL     1       9.732  12.659  17.636  0.00  0.00    +0.000 A 
ATOM     11  C   UNL     1       9.218  11.459  18.131  0.00  0.00    +0.000 A 
ATOM     12  N   UNL     1       8.293  10.576  17.620  0.00  0.00    +0.000 N 
ATOM     13  H   UNL     1       7.762  10.729  16.774  0.00  0.00    +0.000 HD
ENDBRANCH   2   4
ENDBRANCH   1   2
BRANCH   1  14
ATOM     14  C   UNL     1       7.348   6.106  18.930  0.00  0.00    +0.000 C 
BRANCH  14  15
ATOM     15  C   UNL     1       7.478   4.858  18.056  0.00  0.00    +0.000 C 
BRANCH  15  21
ATOM     16  C   UNL     1       7.203   4.885  15.008  0.00  0.00    +0.000 C 
ATOM     17  C   UNL     1       6.118   4.527  15.967  0.00  0.00    +0.000 A 
ATOM     18  N   UNL     1       4.898   4.170  15.619  0.00  0.00    +0.000 NA
ATOM     19  C   UNL     1       4.229   3.927  16.785  0.00  0.00    +0.000 A 
ATOM     20  C   UNL     1       5.056   4.137  17.852  0.00  0.00    +0.000 A 
ATOM     21  N   UNL     1       6.260   4.535  17.349  0.00  0.00    +0.000 N 
BRANCH  20  22
ATOM     22  N   UNL     1       4.724   4.011  19.240  0.00  0.00    +0.000 N 
ATOM     23  O   UNL     1       5.071   2.941  19.797  0.00  0.00    +0.000 OA
ATOM     24  O   UNL     1       4.128   4.927  19.782  0.00  0.00    +0.000 OA
ENDBRANCH  20  22
ENDBRANCH  15  21
ENDBRANCH  14  15
ENDBRANCH   1  14
TORSDOF 6
ENDMDL
MODEL 8
REMARK VINA RESULT:      -7.3      2.451      6.715
REMARK  Name = 
REMARK  7 active torsions:
REMARK  status: ('A' for Active; 'I' for Inactive)
REMARK    1  A    between atoms: C_1  and  C_2
REMARK    2  A    between atoms: C_5  and  N_6
REMARK    3  A    between atoms: N_9  and  C_10
REMARK    4  A    between atoms: C_10  and  C_11
REMARK    5  A    between atoms: C_11  and  O_12
REMARK    6  A    between atoms: O_12  and  C_13
REMARK    7  A    between atoms: C_13  and  C_15
REMARK                            x       y       z     vdW  Elec       q    Type
REMARK                         _______ _______ _______ _____ _____    ______ ____
ROOT
ATOM      1  O   UNL     1       2.320   3.779  17.912  0.00  0.00    +0.000 OA
ENDROOT
BRANCH   1   2
ATOM      2  C   UNL     1       2.347   4.214  19.200  0.00  0.00    +0.000 C 
ATOM      3  O   UNL     1       2.328   3.459  20.190  0.00  0.00    +0.000 OA
BRANCH   2   4
ATOM      4  C   UNL     1       2.315   5.646  19.251  0.00  0.00    +0.000 A 
ATOM      5  C   UNL     1       2.425   6.510  18.178  0.00  0.00    +0.000 A 
ATOM      6  C   UNL     1       2.193   7.822  18.651  0.00  0.00    +0.000 A 
ATOM      7  C   UNL     1       2.086   9.067  18.021  0.00  0.00    +0.000 A 
ATOM      8  C   UNL     1       1.099   9.909  18.525  0.00  0.00    +0.000 A 
ATOM      9  C   UNL     1       0.731   9.802  19.858  0.00  0.00    +0.000 A 
ATOM     10  C   UNL     1       1.234   8.778  20.674  0.00  0.00    +0.000 A 
ATOM     11  C   UNL     1       1.832   7.718  19.990  0.00  0.00    +0.000 A 
ATOM     12  N   UNL     1       2.132   6.431  20.375  0.00  0.00    +0.000 N 
ATOM     13  H   UNL     1       2.015   6.070  21.312  0.00  0.00    +0.000 HD
ENDBRANCH   2   4
ENDBRANCH   1   2
BRANCH   1  14
ATOM     14  C   UNL     1       3.575   3.247  17.453  0.00  0.00    +0.000 C 
BRANCH  14  15
ATOM     15  C   UNL     1       4.238   4.193  16.451  0.00  0.00    +0.000 C 
BRANCH  15  21
ATOM     16  C   UNL     1       6.307   4.151  14.195  0.00  0.00    +0.000 C 
ATOM     17  C   UNL     1       6.617   4.319  15.645  0.00  0.00    +0.000 A 
ATOM     18  N   UNL     1       7.829   4.477  16.138  0.00  0.00    +0.000 NA
ATOM     19  C   UNL     1       7.673   4.597  17.490  0.00  0.00    +0.000 A 
ATOM     20  C   UNL     1       6.350   4.513  17.818  0.00  0.00    +0.000 A 
ATOM     21  N   UNL     1       5.663   4.321  16.655  0.00  0.00    +0.000 N 
BRANCH  20  22
ATOM     22  N   UNL     1       5.781   4.569  19.132  0.00  0.00    +0.000 N 
ATOM     23  O   UNL     1       5.592   5.718  19.604  0.00  0.00    +0.000 OA
ATOM     24  O   UNL     1       5.528   3.522  19.703  0.00  0.00    +0.000 OA
ENDBRANCH  20  22
ENDBRANCH  15  21
ENDBRANCH  14  15
ENDBRANCH   1  14
TORSDOF 6
ENDMDL
MODEL 9
REMARK VINA RESULT:      -7.2      1.561      2.207
REMARK  Name = 
REMARK  7 active torsions:
REMARK  status: ('A' for Active; 'I' for Inactive)
REMARK    1  A    between atoms: C_1  and  C_2
REMARK    2  A    between atoms: C_5  and  N_6
REMARK    3  A    between atoms: N_9  and  C_10
REMARK    4  A    between atoms: C_10  and  C_11
REMARK    5  A    between atoms: C_11  and  O_12
REMARK    6  A    between atoms: O_12  and  C_13
REMARK    7  A    between atoms: C_13  and  C_15
REMARK                            x       y       z     vdW  Elec       q    Type
REMARK                         _______ _______ _______ _____ _____    ______ ____
ROOT
ATOM      1  O   UNL     1       6.484   5.758  18.360  0.00  0.00    +0.000 OA
ENDROOT
BRANCH   1   2
ATOM      2  C   UNL     1       6.002   6.346  17.233  0.00  0.00    +0.000 C 
ATOM      3  O   UNL     1       5.323   7.390  17.227  0.00  0.00    +0.000 OA
BRANCH   2   4
ATOM      4  C   UNL     1       6.312   5.555  16.078  0.00  0.00    +0.000 A 
ATOM      5  C   UNL     1       5.494   4.615  15.481  0.00  0.00    +0.000 A 
ATOM      6  C   UNL     1       6.125   4.182  14.292  0.00  0.00    +0.000 A 
ATOM      7  C   UNL     1       5.738   3.330  13.252  0.00  0.00    +0.000 A 
ATOM      8  C   UNL     1       6.102   3.742  11.974  0.00  0.00    +0.000 A 
ATOM      9  C   UNL     1       7.238   4.521  11.810  0.00  0.00    +0.000 A 
ATOM     10  C   UNL     1       7.951   5.013  12.911  0.00  0.00    +0.000 A 
ATOM     11  C   UNL     1       7.269   4.957  14.129  0.00  0.00    +0.000 A 
ATOM     12  N   UNL     1       7.470   5.609  15.325  0.00  0.00    +0.000 N 
ATOM     13  H   UNL     1       8.253   6.217  15.521  0.00  0.00    +0.000 HD
ENDBRANCH   2   4
ENDBRANCH   1   2
BRANCH   1  14
ATOM     14  C   UNL     1       5.724   4.615  18.789  0.00  0.00    +0.000 C 
BRANCH  14  15
ATOM     15  C   UNL     1       4.409   5.044  19.441  0.00  0.00    +0.000 C 
BRANCH  15  21
ATOM     16  C   UNL     1       2.238   6.623  17.969  0.00  0.00    +0.000 C 
ATOM     17  C   UNL     1       2.262   5.140  18.135  0.00  0.00    +0.000 A 
ATOM     18  N   UNL     1       1.346   4.319  17.661  0.00  0.00    +0.000 NA
ATOM     19  C   UNL     1       1.741   3.063  18.027  0.00  0.00    +0.000 A 
ATOM     20  C   UNL     1       2.911   3.126  18.728  0.00  0.00    +0.000 A 
ATOM     21  N   UNL     1       3.250   4.444  18.820  0.00  0.00    +0.000 N 
BRANCH  20  22
ATOM     22  N   UNL     1       3.634   2.029  19.302  0.00  0.00    +0.000 N 
ATOM     23  O   UNL     1       3.914   1.084  18.525  0.00  0.00    +0.000 OA
ATOM     24  O   UNL     1       3.917   2.075  20.487  0.00  0.00    +0.000 OA
ENDBRANCH  20  22
ENDBRANCH  15  21
ENDBRANCH  14  15
ENDBRANCH   1  14
TORSDOF 6
ENDMDL
