MODEL 1
REMARK VINA RESULT:      -7.1      0.000      0.000
REMARK  Name = 
REMARK  6 active torsions:
REMARK  status: ('A' for Active; 'I' for Inactive)
REMARK    1  A    between atoms: C_1  and  C_2
REMARK    2  A    between atoms: C_2  and  O_3
REMARK    3  A    between atoms: O_3  and  C_4
REMARK    4  A    between atoms: C_4  and  C_6
REMARK    5  A    between atoms: C_6  and  N_7
REMARK    6  A    between atoms: C_12  and  O_13
REMARK                            x       y       z     vdW  Elec       q    Type
REMARK                         _______ _______ _______ _____ _____    ______ ____
ROOT
ATOM      1  N   UNL     1       2.869   4.308  18.037  0.00  0.00    +0.000 N 
ATOM      2  C   UNL     1       3.774   3.205  17.762  0.00  0.00    +0.000 C 
ATOM      3  C   UNL     1       4.639   3.097  18.992  0.00  0.00    +0.000 C 
ATOM      4  N   UNL     1       5.527   3.964  19.374  0.00  0.00    +0.000 NA
ATOM      5  C   UNL     1       5.749   5.120  18.587  0.00  0.00    +0.000 A 
ATOM      6  C   UNL     1       7.088   5.534  18.469  0.00  0.00    +0.000 A 
ATOM      7  C   UNL     1       7.470   6.649  17.731  0.00  0.00    +0.000 A 
ATOM      8  C   UNL     1       6.494   7.405  17.094  0.00  0.00    +0.000 A 
ATOM      9  C   UNL     1       5.152   7.043  17.216  0.00  0.00    +0.000 A 
ATOM     10  C   UNL     1       4.773   5.908  17.960  0.00  0.00    +0.000 A 
ATOM     11  C   UNL     1       3.316   5.629  18.040  0.00  0.00    +0.000 C 
ATOM     12  O   UNL     1       2.532   6.578  18.047  0.00  0.00    +0.000 OA
ENDROOT
BRANCH   6  13
ATOM     13  O   UNL     1       8.067   4.817  19.113  0.00  0.00    +0.000 OA
ATOM     14  H   UNL     1       8.398   5.436  19.800  0.00  0.00    +0.000 HD
ENDBRANCH   6  13
BRANCH   1  15
ATOM     15  C   UNL     1       1.434   4.103  17.842  0.00  0.00    +0.000 C 
BRANCH  15  16
ATOM     16  C   UNL     1       0.866   3.178  18.921  0.00  0.00    +0.000 C 
ATOM     17  O   UNL     1       0.391   2.068  18.715  0.00  0.00    +0.000 OA
BRANCH  16  18
ATOM     18  O   UNL     1       0.950   3.793  20.136  0.00  0.00    +0.000 OA
BRANCH  18  20
ATOM     19  C   UNL     1       2.607   2.788  21.546  0.00  0.00    +0.000 C 
ATOM     20  C   UNL     1       1.119   2.919  21.259  0.00  0.00    +0.000 C 
ENDBRANCH  18  20
ENDBRANCH  16  18
ENDBRANCH  15  16
ENDBRANCH   1  15
TORSDOF 5
ENDMDL
MODEL 2
REMARK VINA RESULT:      -7.0      1.845      5.729
REMARK  Name = 
REMARK  6 active torsions:
REMARK  status: ('A' for Active; 'I' for Inactive)
REMARK    1  A    between atoms: C_1  and  C_2
REMARK    2  A    between atoms: C_2  and  O_3
REMARK    3  A    between atoms: O_3  and  C_4
REMARK    4  A    between atoms: C_4  and  C_6
REMARK    5  A    between atoms: C_6  and  N_7
REMARK    6  A    between atoms: C_12  and  O_13
REMARK                            x       y       z     vdW  Elec       q    Type
REMARK                         _______ _______ _______ _____ _____    ______ ____
ROOT
ATOM      1  N   UNL     1       4.528   5.727  17.689  0.00  0.00    +0.000 N 
ATOM      2  C   UNL     1       5.185   4.448  17.895  0.00  0.00    +0.000 C 
ATOM      3  C   UNL     1       4.391   3.467  17.070  0.00  0.00    +0.000 C 
ATOM      4  N   UNL     1       3.174   3.082  17.311  0.00  0.00    +0.000 NA
ATOM      5  C   UNL     1       2.500   3.589  18.448  0.00  0.00    +0.000 A 
ATOM      6  C   UNL     1       1.693   2.671  19.142  0.00  0.00    +0.000 A 
ATOM      7  C   UNL     1       0.967   3.013  20.278  0.00  0.00    +0.000 A 
ATOM      8  C   UNL     1       1.020   4.321  20.745  0.00  0.00    +0.000 A 
ATOM      9  C   UNL     1       1.785   5.268  20.063  0.00  0.00    +0.000 A 
ATOM     10  C   UNL     1       2.522   4.911  18.916  0.00  0.00    +0.000 A 
ATOM     11  C   UNL     1       3.284   6.004  18.257  0.00  0.00    +0.000 C 
ATOM     12  O   UNL     1       2.822   7.144  18.281  0.00  0.00    +0.000 OA
ENDROOT
BRANCH   6  13
ATOM     13  O   UNL     1       1.604   1.379  18.683  0.00  0.00    +0.000 OA
ATOM     14  H   UNL     1       2.190   1.369  17.896  0.00  0.00    +0.000 HD
ENDBRANCH   6  13
BRANCH   1  15
ATOM     15  C   UNL     1       5.342   6.879  17.305  0.00  0.00    +0.000 C 
BRANCH  15  16
ATOM     16  C   UNL     1       6.325   6.503  16.193  0.00  0.00    +0.000 C 
ATOM     17  O   UNL     1       6.013   6.010  15.117  0.00  0.00    +0.000 OA
BRANCH  16  18
ATOM     18  O   UNL     1       7.597   6.784  16.600  0.00  0.00    +0.000 OA
BRANCH  18  20
ATOM     19  C   UNL     1       8.181   8.743  17.851  0.00  0.00    +0.000 C 
ATOM     20  C   UNL     1       7.718   7.297  17.933  0.00  0.00    +0.000 C 
ENDBRANCH  18  20
ENDBRANCH  16  18
ENDBRANCH  15  16
ENDBRANCH   1  15
TORSDOF 5
ENDMDL
MODEL 3
REMARK VINA RESULT:      -7.0      2.861      6.018
REMARK  Name = 
REMARK  6 active torsions:
REMARK  status: ('A' for Active; 'I' for Inactive)
REMARK    1  A    between atoms: C_1  and  C_2
REMARK    2  A    between atoms: C_2  and  O_3
REMARK    3  A    between atoms: O_3  and  C_4
REMARK    4  A    between atoms: C_4  and  C_6
REMARK    5  A    between atoms: C_6  and  N_7
REMARK    6  A    between atoms: C_12  and  O_13
REMARK                            x       y       z     vdW  Elec       q    Type
REMARK                         _______ _______ _______ _____ _____    ______ ____
ROOT
ATOM      1  N   UNL     1       4.748   4.018  16.981  0.00  0.00    +0.000 N 
ATOM      2  C   UNL     1       4.399   5.428  17.002  0.00  0.00    +0.000 C 
ATOM      3  C   UNL     1       4.786   5.901  18.381  0.00  0.00    +0.000 C 
ATOM      4  N   UNL     1       4.206   5.558  19.491  0.00  0.00    +0.000 NA
ATOM      5  C   UNL     1       3.098   4.677  19.451  0.00  0.00    +0.000 A 
ATOM      6  C   UNL     1       2.055   4.963  20.348  0.00  0.00    +0.000 A 
ATOM      7  C   UNL     1       0.899   4.193  20.431  0.00  0.00    +0.000 A 
ATOM      8  C   UNL     1       0.768   3.081  19.609  0.00  0.00    +0.000 A 
ATOM      9  C   UNL     1       1.799   2.747  18.729  0.00  0.00    +0.000 A 
ATOM     10  C   UNL     1       2.964   3.536  18.647  0.00  0.00    +0.000 A 
ATOM     11  C   UNL     1       4.005   3.076  17.692  0.00  0.00    +0.000 C 
ATOM     12  O   UNL     1       4.145   1.866  17.508  0.00  0.00    +0.000 OA
ENDROOT
BRANCH   6  13
ATOM     13  O   UNL     1       2.174   6.043  21.189  0.00  0.00    +0.000 OA
ATOM     14  H   UNL     1       2.543   6.748  20.615  0.00  0.00    +0.000 HD
ENDBRANCH   6  13
BRANCH   1  15
ATOM     15  C   UNL     1       5.553   3.512  15.870  0.00  0.00    +0.000 C 
BRANCH  15  16
ATOM     16  C   UNL     1       6.837   4.332  15.712  0.00  0.00    +0.000 C 
ATOM     17  O   UNL     1       7.615   4.598  16.617  0.00  0.00    +0.000 OA
BRANCH  16  18
ATOM     18  O   UNL     1       6.959   4.734  14.414  0.00  0.00    +0.000 OA
BRANCH  18  20
ATOM     19  C   UNL     1       7.031   3.987  12.138  0.00  0.00    +0.000 C 
ATOM     20  C   UNL     1       6.268   3.928  13.451  0.00  0.00    +0.000 C 
ENDBRANCH  18  20
ENDBRANCH  16  18
ENDBRANCH  15  16
ENDBRANCH   1  15
TORSDOF 5
ENDMDL
MODEL 4
REMARK VINA RESULT:      -7.0      2.137      5.773
REMARK  Name = 
REMARK  6 active torsions:
REMARK  status: ('A' for Active; 'I' for Inactive)
REMARK    1  A    between atoms: C_1  and  C_2
REMARK    2  A    between atoms: C_2  and  O_3
REMARK    3  A    between atoms: O_3  and  C_4
REMARK    4  A    between atoms: C_4  and  C_6
REMARK    5  A    between atoms: C_6  and  N_7
REMARK    6  A    between atoms: C_12  and  O_13
REMARK                            x       y       z     vdW  Elec       q    Type
REMARK                         _______ _______ _______ _____ _____    ______ ____
ROOT
ATOM      1  N   UNL     1       4.539   5.646  17.606  0.00  0.00    +0.000 N 
ATOM      2  C   UNL     1       5.132   4.333  17.789  0.00  0.00    +0.000 C 
ATOM      3  C   UNL     1       4.260   3.399  16.988  0.00  0.00    +0.000 C 
ATOM      4  N   UNL     1       3.033   3.080  17.268  0.00  0.00    +0.000 NA
ATOM      5  C   UNL     1       2.424   3.619  18.427  0.00  0.00    +0.000 A 
ATOM      6  C   UNL     1       1.590   2.744  19.145  0.00  0.00    +0.000 A 
ATOM      7  C   UNL     1       0.921   3.121  20.305  0.00  0.00    +0.000 A 
ATOM      8  C   UNL     1       1.060   4.422  20.771  0.00  0.00    +0.000 A 
ATOM      9  C   UNL     1       1.853   5.329  20.066  0.00  0.00    +0.000 A 
ATOM     10  C   UNL     1       2.533   4.937  18.895  0.00  0.00    +0.000 A 
ATOM     11  C   UNL     1       3.331   5.988  18.214  0.00  0.00    +0.000 C 
ATOM     12  O   UNL     1       2.932   7.152  18.254  0.00  0.00    +0.000 OA
ENDROOT
BRANCH   6  13
ATOM     13  O   UNL     1       1.417   1.460  18.687  0.00  0.00    +0.000 OA
ATOM     14  H   UNL     1       2.032   0.929  19.238  0.00  0.00    +0.000 HD
ENDBRANCH   6  13
BRANCH   1  15
ATOM     15  C   UNL     1       5.402   6.754  17.197  0.00  0.00    +0.000 C 
BRANCH  15  16
ATOM     16  C   UNL     1       6.665   6.233  16.507  0.00  0.00    +0.000 C 
ATOM     17  O   UNL     1       7.756   6.105  17.046  0.00  0.00    +0.000 OA
BRANCH  16  18
ATOM     18  O   UNL     1       6.387   5.960  15.199  0.00  0.00    +0.000 OA
BRANCH  18  20
ATOM     19  C   UNL     1       6.053   3.991  13.873  0.00  0.00    +0.000 C 
ATOM     20  C   UNL     1       7.063   4.821  14.652  0.00  0.00    +0.000 C 
ENDBRANCH  18  20
ENDBRANCH  16  18
ENDBRANCH  15  16
ENDBRANCH   1  15
TORSDOF 5
ENDMDL
MODEL 5
REMARK VINA RESULT:      -6.9      2.040      5.852
REMARK  Name = 
REMARK  6 active torsions:
REMARK  status: ('A' for Active; 'I' for Inactive)
REMARK    1  A    between atoms: C_1  and  C_2
REMARK    2  A    between atoms: C_2  and  O_3
REMARK    3  A    between atoms: O_3  and  C_4
REMARK    4  A    between atoms: C_4  and  C_6
REMARK    5  A    between atoms: C_6  and  N_7
REMARK    6  A    between atoms: C_12  and  O_13
REMARK                            x       y       z     vdW  Elec       q    Type
REMARK                         _______ _______ _______ _____ _____    ______ ____
ROOT
ATOM      1  N   UNL     1       4.768   5.215  16.970  0.00  0.00    +0.000 N 
ATOM      2  C   UNL     1       4.030   6.352  17.494  0.00  0.00    +0.000 C 
ATOM      3  C   UNL     1       4.259   6.308  18.984  0.00  0.00    +0.000 C 
ATOM      4  N   UNL     1       3.797   5.407  19.796  0.00  0.00    +0.000 NA
ATOM      5  C   UNL     1       2.988   4.363  19.286  0.00  0.00    +0.000 A 
ATOM      6  C   UNL     1       1.902   3.979  20.092  0.00  0.00    +0.000 A 
ATOM      7  C   UNL     1       1.014   2.971  19.731  0.00  0.00    +0.000 A 
ATOM      8  C   UNL     1       1.211   2.295  18.533  0.00  0.00    +0.000 A 
ATOM      9  C   UNL     1       2.298   2.626  17.723  0.00  0.00    +0.000 A 
ATOM     10  C   UNL     1       3.189   3.654  18.093  0.00  0.00    +0.000 A 
ATOM     11  C   UNL     1       4.323   3.908  17.166  0.00  0.00    +0.000 C 
ATOM     12  O   UNL     1       4.803   2.959  16.547  0.00  0.00    +0.000 OA
ENDROOT
BRANCH   6  13
ATOM     13  O   UNL     1       1.703   4.616  21.293  0.00  0.00    +0.000 OA
ATOM     14  H   UNL     1       2.530   5.129  21.426  0.00  0.00    +0.000 HD
ENDBRANCH   6  13
BRANCH   1  15
ATOM     15  C   UNL     1       5.689   5.431  15.855  0.00  0.00    +0.000 C 
BRANCH  15  16
ATOM     16  C   UNL     1       7.139   5.454  16.345  0.00  0.00    +0.000 C 
ATOM     17  O   UNL     1       7.811   4.462  16.596  0.00  0.00    +0.000 OA
BRANCH  16  18
ATOM     18  O   UNL     1       7.552   6.748  16.478  0.00  0.00    +0.000 OA
BRANCH  18  20
ATOM     19  C   UNL     1       7.967   8.708  17.794  0.00  0.00    +0.000 C 
ATOM     20  C   UNL     1       7.701   7.211  17.826  0.00  0.00    +0.000 C 
ENDBRANCH  18  20
ENDBRANCH  16  18
ENDBRANCH  15  16
ENDBRANCH   1  15
TORSDOF 5
ENDMDL
MODEL 6
REMARK VINA RESULT:      -6.9      1.637      5.640
REMARK  Name = 
REMARK  6 active torsions:
REMARK  status: ('A' for Active; 'I' for Inactive)
REMARK    1  A    between atoms: C_1  and  C_2
REMARK    2  A    between atoms: C_2  and  O_3
REMARK    3  A    between atoms: O_3  and  C_4
REMARK    4  A    between atoms: C_4  and  C_6
REMARK    5  A    between atoms: C_6  and  N_7
REMARK    6  A    between atoms: C_12  and  O_13
REMARK                            x       y       z     vdW  Elec       q    Type
REMARK                         _______ _______ _______ _____ _____    ______ ____
ROOT
ATOM      1  N   UNL     1       4.425   5.193  16.872  0.00  0.00    +0.000 N 
ATOM      2  C   UNL     1       4.594   3.759  17.036  0.00  0.00    +0.000 C 
ATOM      3  C   UNL     1       3.318   3.156  16.505  0.00  0.00    +0.000 C 
ATOM      4  N   UNL     1       2.144   3.261  17.051  0.00  0.00    +0.000 NA
ATOM      5  C   UNL     1       2.005   3.981  18.262  0.00  0.00    +0.000 A 
ATOM      6  C   UNL     1       1.113   3.435  19.201  0.00  0.00    +0.000 A 
ATOM      7  C   UNL     1       0.866   4.023  20.437  0.00  0.00    +0.000 A 
ATOM      8  C   UNL     1       1.510   5.210  20.761  0.00  0.00    +0.000 A 
ATOM      9  C   UNL     1       2.378   5.799  19.840  0.00  0.00    +0.000 A 
ATOM     10  C   UNL     1       2.627   5.194  18.592  0.00  0.00    +0.000 A 
ATOM     11  C   UNL     1       3.551   5.919  17.681  0.00  0.00    +0.000 C 
ATOM     12  O   UNL     1       3.562   7.149  17.708  0.00  0.00    +0.000 OA
ENDROOT
BRANCH   6  13
ATOM     13  O   UNL     1       0.444   2.275  18.892  0.00  0.00    +0.000 OA
ATOM     14  H   UNL     1       1.114   1.739  18.415  0.00  0.00    +0.000 HD
ENDBRANCH   6  13
BRANCH   1  15
ATOM     15  C   UNL     1       5.486   5.952  16.210  0.00  0.00    +0.000 C 
BRANCH  15  16
ATOM     16  C   UNL     1       6.848   5.640  16.834  0.00  0.00    +0.000 C 
ATOM     17  O   UNL     1       7.743   5.010  16.287  0.00  0.00    +0.000 OA
BRANCH  16  18
ATOM     18  O   UNL     1       6.895   6.153  18.098  0.00  0.00    +0.000 OA
BRANCH  18  20
ATOM     19  C   UNL     1       7.832   8.312  17.646  0.00  0.00    +0.000 C 
ATOM     20  C   UNL     1       8.022   6.993  18.380  0.00  0.00    +0.000 C 
ENDBRANCH  18  20
ENDBRANCH  16  18
ENDBRANCH  15  16
ENDBRANCH   1  15
TORSDOF 5
ENDMDL
MODEL 7
REMARK VINA RESULT:      -6.8      2.181      5.822
REMARK  Name = 
REMARK  6 active torsions:
REMARK  status: ('A' for Active; 'I' for Inactive)
REMARK    1  A    between atoms: C_1  and  C_2
REMARK    2  A    between atoms: C_2  and  O_3
REMARK    3  A    between atoms: O_3  and  C_4
REMARK    4  A    between atoms: C_4  and  C_6
REMARK    5  A    between atoms: C_6  and  N_7
REMARK    6  A    between atoms: C_12  and  O_13
REMARK                            x       y       z     vdW  Elec       q    Type
REMARK                         _______ _______ _______ _____ _____    ______ ____
ROOT
ATOM      1  N   UNL     1       4.806   5.998  18.169  0.00  0.00    +0.000 N 
ATOM      2  C   UNL     1       3.495   6.540  17.853  0.00  0.00    +0.000 C 
ATOM      3  C   UNL     1       2.792   6.650  19.183  0.00  0.00    +0.000 C 
ATOM      4  N   UNL     1       2.400   5.654  19.919  0.00  0.00    +0.000 NA
ATOM      5  C   UNL     1       2.615   4.330  19.465  0.00  0.00    +0.000 A 
ATOM      6  C   UNL     1       1.576   3.418  19.720  0.00  0.00    +0.000 A 
ATOM      7  C   UNL     1       1.635   2.082  19.337  0.00  0.00    +0.000 A 
ATOM      8  C   UNL     1       2.773   1.614  18.691  0.00  0.00    +0.000 A 
ATOM      9  C   UNL     1       3.838   2.483  18.451  0.00  0.00    +0.000 A 
ATOM     10  C   UNL     1       3.768   3.837  18.837  0.00  0.00    +0.000 A 
ATOM     11  C   UNL     1       4.967   4.666  18.551  0.00  0.00    +0.000 C 
ATOM     12  O   UNL     1       6.077   4.137  18.602  0.00  0.00    +0.000 OA
ENDROOT
BRANCH   6  13
ATOM     13  O   UNL     1       0.453   3.853  20.381  0.00  0.00    +0.000 OA
ATOM     14  H   UNL     1      -0.270   3.314  19.993  0.00  0.00    +0.000 HD
ENDBRANCH   6  13
BRANCH   1  15
ATOM     15  C   UNL     1       5.989   6.675  17.641  0.00  0.00    +0.000 C 
BRANCH  15  16
ATOM     16  C   UNL     1       6.094   6.486  16.126  0.00  0.00    +0.000 C 
ATOM     17  O   UNL     1       5.308   6.942  15.306  0.00  0.00    +0.000 OA
BRANCH  16  18
ATOM     18  O   UNL     1       7.183   5.715  15.840  0.00  0.00    +0.000 OA
BRANCH  18  20
ATOM     19  C   UNL     1       6.044   3.725  15.143  0.00  0.00    +0.000 C 
ATOM     20  C   UNL     1       7.026   4.813  14.738  0.00  0.00    +0.000 C 
ENDBRANCH  18  20
ENDBRANCH  16  18
ENDBRANCH  15  16
ENDBRANCH   1  15
TORSDOF 5
ENDMDL
MODEL 8
REMARK VINA RESULT:      -6.8      2.638      5.845
REMARK  Name = 
REMARK  6 active torsions:
REMARK  status: ('A' for Active; 'I' for Inactive)
REMARK    1  A    between atoms: C_1  and  C_2
REMARK    2  A    between atoms: C_2  and  O_3
REMARK    3  A    between atoms: O_3  and  C_4
REMARK    4  A    between atoms: C_4  and  C_6
REMARK    5  A    between atoms: C_6  and  N_7
REMARK    6  A    between atoms: C_12  and  O_13
REMARK                            x       y       z     vdW  Elec       q    Type
REMARK                         _______ _______ _______ _____ _____    ______ ____
ROOT
ATOM      1  N   UNL     1       4.666   5.330  17.047  0.00  0.00    +0.000 N 
ATOM      2  C   UNL     1       4.874   3.912  17.286  0.00  0.00    +0.000 C 
ATOM      3  C   UNL     1       3.664   3.238  16.689  0.00  0.00    +0.000 C 
ATOM      4  N   UNL     1       2.450   3.318  17.142  0.00  0.00    +0.000 NA
ATOM      5  C   UNL     1       2.194   4.082  18.307  0.00  0.00    +0.000 A 
ATOM      6  C   UNL     1       1.254   3.540  19.201  0.00  0.00    +0.000 A 
ATOM      7  C   UNL     1       0.894   4.168  20.389  0.00  0.00    +0.000 A 
ATOM      8  C   UNL     1       1.468   5.393  20.706  0.00  0.00    +0.000 A 
ATOM      9  C   UNL     1       2.381   5.977  19.827  0.00  0.00    +0.000 A 
ATOM     10  C   UNL     1       2.745   5.331  18.628  0.00  0.00    +0.000 A 
ATOM     11  C   UNL     1       3.708   6.053  17.757  0.00  0.00    +0.000 C 
ATOM     12  O   UNL     1       3.673   7.283  17.730  0.00  0.00    +0.000 OA
ENDROOT
BRANCH   6  13
ATOM     13  O   UNL     1       0.653   2.343  18.895  0.00  0.00    +0.000 OA
ATOM     14  H   UNL     1       1.400   1.707  18.864  0.00  0.00    +0.000 HD
ENDBRANCH   6  13
BRANCH   1  15
ATOM     15  C   UNL     1       5.745   6.102  16.432  0.00  0.00    +0.000 C 
BRANCH  15  16
ATOM     16  C   UNL     1       6.574   5.224  15.491  0.00  0.00    +0.000 C 
ATOM     17  O   UNL     1       7.692   4.791  15.738  0.00  0.00    +0.000 OA
BRANCH  16  18
ATOM     18  O   UNL     1       5.882   5.023  14.332  0.00  0.00    +0.000 OA
BRANCH  18  20
ATOM     19  C   UNL     1       6.682   3.903  12.371  0.00  0.00    +0.000 C 
ATOM     20  C   UNL     1       6.040   3.728  13.738  0.00  0.00    +0.000 C 
ENDBRANCH  18  20
ENDBRANCH  16  18
ENDBRANCH  15  16
ENDBRANCH   1  15
TORSDOF 5
ENDMDL
MODEL 9
REMARK VINA RESULT:      -6.7      2.754      5.880
REMARK  Name = 
REMARK  6 active torsions:
REMARK  status: ('A' for Active; 'I' for Inactive)
REMARK    1  A    between atoms: C_1  and  C_2
REMARK    2  A    between atoms: C_2  and  O_3
REMARK    3  A    between atoms: O_3  and  C_4
REMARK    4  A    between atoms: C_4  and  C_6
REMARK    5  A    between atoms: C_6  and  N_7
REMARK    6  A    between atoms: C_12  and  O_13
REMARK                            x       y       z     vdW  Elec       q    Type
REMARK                         _______ _______ _______ _____ _____    ______ ____
ROOT
ATOM      1  N   UNL     1       5.100   5.069  17.223  0.00  0.00    +0.000 N 
ATOM      2  C   UNL     1       5.279   5.645  18.545  0.00  0.00    +0.000 C 
ATOM      3  C   UNL     1       5.805   4.513  19.392  0.00  0.00    +0.000 C 
ATOM      4  N   UNL     1       5.137   3.458  19.747  0.00  0.00    +0.000 NA
ATOM      5  C   UNL     1       3.787   3.322  19.340  0.00  0.00    +0.000 A 
ATOM      6  C   UNL     1       2.912   2.773  20.294  0.00  0.00    +0.000 A 
ATOM      7  C   UNL     1       1.557   2.576  20.048  0.00  0.00    +0.000 A 
ATOM      8  C   UNL     1       1.040   2.916  18.804  0.00  0.00    +0.000 A 
ATOM      9  C   UNL     1       1.886   3.433  17.822  0.00  0.00    +0.000 A 
ATOM     10  C   UNL     1       3.256   3.635  18.081  0.00  0.00    +0.000 A 
ATOM     11  C   UNL     1       4.067   4.170  16.957  0.00  0.00    +0.000 C 
ATOM     12  O   UNL     1       3.766   3.851  15.806  0.00  0.00    +0.000 OA
ENDROOT
BRANCH   6  13
ATOM     13  O   UNL     1       3.407   2.405  21.522  0.00  0.00    +0.000 OA
ATOM     14  H   UNL     1       3.118   3.130  22.117  0.00  0.00    +0.000 HD
ENDBRANCH   6  13
BRANCH   1  15
ATOM     15  C   UNL     1       5.676   5.763  16.072  0.00  0.00    +0.000 C 
BRANCH  15  16
ATOM     16  C   UNL     1       6.945   5.058  15.590  0.00  0.00    +0.000 C 
ATOM     17  O   UNL     1       7.807   4.587  16.320  0.00  0.00    +0.000 OA
BRANCH  16  18
ATOM     18  O   UNL     1       6.974   5.059  14.225  0.00  0.00    +0.000 OA
BRANCH  18  20
ATOM     19  C   UNL     1       6.829   3.846  12.163  0.00  0.00    +0.000 C 
ATOM     20  C   UNL     1       6.328   3.944  13.596  0.00  0.00    +0.000 C 
ENDBRANCH  18  20
ENDBRANCH  16  18
ENDBRANCH  15  16
ENDBRANCH   1  15
TORSDOF 5
ENDMDL
