MODEL 1
REMARK VINA RESULT:      -8.3      0.000      0.000
REMARK  Name = 
REMARK  11 active torsions:
REMARK  status: ('A' for Active; 'I' for Inactive)
REMARK    1  A    between atoms: C_1  and  C_2
REMARK    2  A    between atoms: C_6  and  C_7
REMARK    3  A    between atoms: N_8  and  C_9
REMARK    4  A    between atoms: C_9  and  C_10
REMARK    5  A    between atoms: C_10  and  C_11
REMARK    6  A    between atoms: C_11  and  C_12
REMARK    7  A    between atoms: C_12  and  C_13
REMARK    8  A    between atoms: C_13  and  N_14
REMARK    9  A    between atoms: C_17  and  C_18
REMARK   10  A    between atoms: C_22  and  C_23
REMARK   11  A    between atoms: C_23  and  S_25
REMARK                            x       y       z     vdW  Elec       q    Type
REMARK                         _______ _______ _______ _____ _____    ______ ____
ROOT
ATOM      1  N   UNL     1      -0.702  10.795  19.179  0.00  0.00    +0.000 N 
ATOM      2  C   UNL     1      -1.199  12.051  18.838  0.00  0.00    +0.000 C 
ATOM      3  O   UNL     1      -1.115  12.529  17.704  0.00  0.00    +0.000 OA
ATOM      4  C   UNL     1      -1.956  12.771  19.958  0.00  0.00    +0.000 C 
ATOM      5  O   UNL     1      -1.383  12.617  21.258  0.00  0.00    +0.000 OA
ATOM      6  C   UNL     1      -0.987  11.336  21.535  0.00  0.00    +0.000 A 
ATOM      7  C   UNL     1      -0.890  11.015  22.891  0.00  0.00    +0.000 A 
ATOM      8  C   UNL     1      -0.451   9.754  23.280  0.00  0.00    +0.000 A 
ATOM      9  C   UNL     1      -0.091   8.822  22.314  0.00  0.00    +0.000 A 
ATOM     10  C   UNL     1      -0.177   9.149  20.955  0.00  0.00    +0.000 A 
ATOM     11  C   UNL     1      -0.635  10.409  20.547  0.00  0.00    +0.000 A 
ENDROOT
BRANCH   4  12
ATOM     12  C   UNL     1      -3.462  12.470  19.977  0.00  0.00    +0.000 A 
ATOM     13  C   UNL     1      -4.111  11.881  18.882  0.00  0.00    +0.000 A 
ATOM     14  C   UNL     1      -5.490  11.667  18.904  0.00  0.00    +0.000 A 
ATOM     15  C   UNL     1      -6.245  12.066  20.008  0.00  0.00    +0.000 A 
ATOM     16  C   UNL     1      -5.626  12.666  21.112  0.00  0.00    +0.000 A 
ATOM     17  C   UNL     1      -4.239  12.855  21.088  0.00  0.00    +0.000 A 
BRANCH  16  18
ATOM     18  C   UNL     1      -6.445  13.075  22.283  0.00  0.00    +0.000 C 
ATOM     19  N   UNL     1      -7.693  12.768  22.433  0.00  0.00    +0.000 NA
ATOM     20  H   UNL     1      -8.032  12.178  21.672  0.00  0.00    +0.000 HD
BRANCH  18  21
ATOM     21  S   UNL     1      -5.734  14.046  23.561  0.00  0.00    +0.000 S 
ATOM     22  H   UNL     1      -5.498  15.166  22.867  0.00  0.00    +0.000 HD
ENDBRANCH  18  21
ENDBRANCH  16  18
ENDBRANCH   4  12
BRANCH   1  23
ATOM     23  C   UNL     1      -0.028  10.026  18.145  0.00  0.00    +0.000 C 
BRANCH  23  24
ATOM     24  C   UNL     1       1.480  10.078  18.355  0.00  0.00    +0.000 C 
BRANCH  24  25
ATOM     25  C   UNL     1       2.166   8.884  17.711  0.00  0.00    +0.000 C 
BRANCH  25  26
ATOM     26  C   UNL     1       2.380   7.797  18.758  0.00  0.00    +0.000 C 
BRANCH  26  27
ATOM     27  C   UNL     1       2.456   6.394  18.162  0.00  0.00    +0.000 C 
BRANCH  27  35
ATOM     28  C   UNL     1       5.253   3.978  18.981  0.00  0.00    +0.000 C 
ATOM     29  C   UNL     1       4.220   4.742  18.136  0.00  0.00    +0.000 C 
ATOM     30  C   UNL     1       3.658   3.855  17.010  0.00  0.00    +0.000 C 
ATOM     31  C   UNL     1       2.686   2.799  17.529  0.00  0.00    +0.000 C 
ATOM     32  C   UNL     1       1.633   3.402  18.453  0.00  0.00    +0.000 C 
ATOM     33  C   UNL     1       2.267   4.289  19.535  0.00  0.00    +0.000 C 
ATOM     34  C   UNL     1       1.203   4.729  20.547  0.00  0.00    +0.000 C 
ATOM     35  N   UNL     1       3.137   5.351  18.964  0.00  0.00    +0.000 NA
ENDBRANCH  27  35
ENDBRANCH  26  27
ENDBRANCH  25  26
ENDBRANCH  24  25
ENDBRANCH  23  24
ENDBRANCH   1  23
TORSDOF 9
ENDMDL
MODEL 2
REMARK VINA RESULT:      -8.1      1.097      1.565
REMARK  Name = 
REMARK  11 active torsions:
REMARK  status: ('A' for Active; 'I' for Inactive)
REMARK    1  A    between atoms: C_1  and  C_2
REMARK    2  A    between atoms: C_6  and  C_7
REMARK    3  A    between atoms: N_8  and  C_9
REMARK    4  A    between atoms: C_9  and  C_10
REMARK    5  A    between atoms: C_10  and  C_11
REMARK    6  A    between atoms: C_11  and  C_12
REMARK    7  A    between atoms: C_12  and  C_13
REMARK    8  A    between atoms: C_13  and  N_14
REMARK    9  A    between atoms: C_17  and  C_18
REMARK   10  A    between atoms: C_22  and  C_23
REMARK   11  A    between atoms: C_23  and  S_25
REMARK                            x       y       z     vdW  Elec       q    Type
REMARK                         _______ _______ _______ _____ _____    ______ ____
ROOT
ATOM      1  N   UNL     1      -0.688  10.779  19.170  0.00  0.00    +0.000 N 
ATOM      2  C   UNL     1      -1.174  12.043  18.843  0.00  0.00    +0.000 C 
ATOM      3  O   UNL     1      -1.110  12.524  17.708  0.00  0.00    +0.000 OA
ATOM      4  C   UNL     1      -1.895  12.772  19.982  0.00  0.00    +0.000 C 
ATOM      5  O   UNL     1      -1.294  12.606  21.268  0.00  0.00    +0.000 OA
ATOM      6  C   UNL     1      -0.911  11.318  21.533  0.00  0.00    +0.000 A 
ATOM      7  C   UNL     1      -0.787  10.992  22.885  0.00  0.00    +0.000 A 
ATOM      8  C   UNL     1      -0.358   9.723  23.261  0.00  0.00    +0.000 A 
ATOM      9  C   UNL     1      -0.034   8.789  22.284  0.00  0.00    +0.000 A 
ATOM     10  C   UNL     1      -0.147   9.120  20.928  0.00  0.00    +0.000 A 
ATOM     11  C   UNL     1      -0.596  10.389  20.534  0.00  0.00    +0.000 A 
ENDROOT
BRANCH   4  12
ATOM     12  C   UNL     1      -3.404  12.493  20.035  0.00  0.00    +0.000 A 
ATOM     13  C   UNL     1      -4.091  11.937  18.946  0.00  0.00    +0.000 A 
ATOM     14  C   UNL     1      -5.472  11.744  19.001  0.00  0.00    +0.000 A 
ATOM     15  C   UNL     1      -6.191  12.130  20.133  0.00  0.00    +0.000 A 
ATOM     16  C   UNL     1      -5.534  12.697  21.232  0.00  0.00    +0.000 A 
ATOM     17  C   UNL     1      -4.146  12.865  21.175  0.00  0.00    +0.000 A 
BRANCH  16  18
ATOM     18  C   UNL     1      -6.315  13.093  22.434  0.00  0.00    +0.000 C 
ATOM     19  N   UNL     1      -7.394  12.494  22.822  0.00  0.00    +0.000 NA
ATOM     20  H   UNL     1      -7.618  11.693  22.229  0.00  0.00    +0.000 HD
BRANCH  18  21
ATOM     21  S   UNL     1      -5.799  14.456  23.411  0.00  0.00    +0.000 S 
ATOM     22  H   UNL     1      -4.764  14.868  22.669  0.00  0.00    +0.000 HD
ENDBRANCH  18  21
ENDBRANCH  16  18
ENDBRANCH   4  12
BRANCH   1  23
ATOM     23  C   UNL     1      -0.051  10.003  18.118  0.00  0.00    +0.000 C 
BRANCH  23  24
ATOM     24  C   UNL     1       1.444   9.888  18.388  0.00  0.00    +0.000 C 
BRANCH  24  25
ATOM     25  C   UNL     1       2.049   8.713  17.638  0.00  0.00    +0.000 C 
BRANCH  25  26
ATOM     26  C   UNL     1       2.602   7.703  18.638  0.00  0.00    +0.000 C 
BRANCH  26  27
ATOM     27  C   UNL     1       3.109   6.422  17.982  0.00  0.00    +0.000 C 
BRANCH  27  35
ATOM     28  C   UNL     1       6.840   6.876  17.528  0.00  0.00    +0.000 C 
ATOM     29  C   UNL     1       5.348   6.809  17.160  0.00  0.00    +0.000 C 
ATOM     30  C   UNL     1       5.151   6.237  15.743  0.00  0.00    +0.000 C 
ATOM     31  C   UNL     1       5.396   4.733  15.682  0.00  0.00    +0.000 C 
ATOM     32  C   UNL     1       4.643   3.989  16.781  0.00  0.00    +0.000 C 
ATOM     33  C   UNL     1       4.871   4.629  18.159  0.00  0.00    +0.000 C 
ATOM     34  C   UNL     1       4.251   3.756  19.256  0.00  0.00    +0.000 C 
ATOM     35  N   UNL     1       4.537   6.078  18.177  0.00  0.00    +0.000 NA
ENDBRANCH  27  35
ENDBRANCH  26  27
ENDBRANCH  25  26
ENDBRANCH  24  25
ENDBRANCH  23  24
ENDBRANCH   1  23
TORSDOF 9
ENDMDL
MODEL 3
REMARK VINA RESULT:      -8.0      4.643     10.183
REMARK  Name = 
REMARK  11 active torsions:
REMARK  status: ('A' for Active; 'I' for Inactive)
REMARK    1  A    between atoms: C_1  and  C_2
REMARK    2  A    between atoms: C_6  and  C_7
REMARK    3  A    between atoms: N_8  and  C_9
REMARK    4  A    between atoms: C_9  and  C_10
REMARK    5  A    between atoms: C_10  and  C_11
REMARK    6  A    between atoms: C_11  and  C_12
REMARK    7  A    between atoms: C_12  and  C_13
REMARK    8  A    between atoms: C_13  and  N_14
REMARK    9  A    between atoms: C_17  and  C_18
REMARK   10  A    between atoms: C_22  and  C_23
REMARK   11  A    between atoms: C_23  and  S_25
REMARK                            x       y       z     vdW  Elec       q    Type
REMARK                         _______ _______ _______ _____ _____    ______ ____
ROOT
ATOM      1  N   UNL     1       2.282   6.502  19.928  0.00  0.00    +0.000 N 
ATOM      2  C   UNL     1       2.521   7.045  18.667  0.00  0.00    +0.000 C 
ATOM      3  O   UNL     1       2.531   8.258  18.440  0.00  0.00    +0.000 OA
ATOM      4  C   UNL     1       2.874   6.023  17.581  0.00  0.00    +0.000 C 
ATOM      5  O   UNL     1       2.130   4.805  17.646  0.00  0.00    +0.000 OA
ATOM      6  C   UNL     1       2.005   4.305  18.915  0.00  0.00    +0.000 A 
ATOM      7  C   UNL     1       1.745   2.936  19.001  0.00  0.00    +0.000 A 
ATOM      8  C   UNL     1       1.554   2.338  20.242  0.00  0.00    +0.000 A 
ATOM      9  C   UNL     1       1.603   3.114  21.395  0.00  0.00    +0.000 A 
ATOM     10  C   UNL     1       1.851   4.489  21.307  0.00  0.00    +0.000 A 
ATOM     11  C   UNL     1       2.064   5.103  20.064  0.00  0.00    +0.000 A 
ENDROOT
BRANCH   4  12
ATOM     12  C   UNL     1       4.380   5.748  17.459  0.00  0.00    +0.000 A 
ATOM     13  C   UNL     1       5.239   5.840  18.564  0.00  0.00    +0.000 A 
ATOM     14  C   UNL     1       6.611   5.638  18.415  0.00  0.00    +0.000 A 
ATOM     15  C   UNL     1       7.150   5.368  17.156  0.00  0.00    +0.000 A 
ATOM     16  C   UNL     1       6.318   5.280  16.033  0.00  0.00    +0.000 A 
ATOM     17  C   UNL     1       4.940   5.463  16.198  0.00  0.00    +0.000 A 
BRANCH  16  18
ATOM     18  C   UNL     1       6.908   4.983  14.701  0.00  0.00    +0.000 C 
ATOM     19  N   UNL     1       7.986   5.537  14.251  0.00  0.00    +0.000 NA
ATOM     20  H   UNL     1       8.404   6.168  14.936  0.00  0.00    +0.000 HD
BRANCH  18  21
ATOM     21  S   UNL     1       6.128   3.834  13.628  0.00  0.00    +0.000 S 
ATOM     22  H   UNL     1       5.405   4.688  12.894  0.00  0.00    +0.000 HD
ENDBRANCH  18  21
ENDBRANCH  16  18
ENDBRANCH   4  12
BRANCH   1  23
ATOM     23  C   UNL     1       2.005   7.419  21.021  0.00  0.00    +0.000 C 
BRANCH  23  24
ATOM     24  C   UNL     1       0.505   7.490  21.276  0.00  0.00    +0.000 C 
BRANCH  24  25
ATOM     25  C   UNL     1      -0.033   8.886  21.009  0.00  0.00    +0.000 C 
BRANCH  25  26
ATOM     26  C   UNL     1       1.038   9.916  21.349  0.00  0.00    +0.000 C 
BRANCH  26  27
ATOM     27  C   UNL     1       0.674  11.331  20.911  0.00  0.00    +0.000 C 
BRANCH  27  35
ATOM     28  C   UNL     1       2.671  13.026  18.178  0.00  0.00    +0.000 C 
ATOM     29  C   UNL     1       1.958  12.840  19.528  0.00  0.00    +0.000 C 
ATOM     30  C   UNL     1       1.314  14.157  20.001  0.00  0.00    +0.000 C 
ATOM     31  C   UNL     1       0.059  14.509  19.208  0.00  0.00    +0.000 C 
ATOM     32  C   UNL     1      -0.901  13.328  19.108  0.00  0.00    +0.000 C 
ATOM     33  C   UNL     1      -0.182  12.049  18.652  0.00  0.00    +0.000 C 
ATOM     34  C   UNL     1      -1.202  10.935  18.390  0.00  0.00    +0.000 C 
ATOM     35  N   UNL     1       0.982  11.711  19.513  0.00  0.00    +0.000 NA
ENDBRANCH  27  35
ENDBRANCH  26  27
ENDBRANCH  25  26
ENDBRANCH  24  25
ENDBRANCH  23  24
ENDBRANCH   1  23
TORSDOF 9
ENDMDL
MODEL 4
REMARK VINA RESULT:      -8.0      4.287     10.305
REMARK  Name = 
REMARK  11 active torsions:
REMARK  status: ('A' for Active; 'I' for Inactive)
REMARK    1  A    between atoms: C_1  and  C_2
REMARK    2  A    between atoms: C_6  and  C_7
REMARK    3  A    between atoms: N_8  and  C_9
REMARK    4  A    between atoms: C_9  and  C_10
REMARK    5  A    between atoms: C_10  and  C_11
REMARK    6  A    between atoms: C_11  and  C_12
REMARK    7  A    between atoms: C_12  and  C_13
REMARK    8  A    between atoms: C_13  and  N_14
REMARK    9  A    between atoms: C_17  and  C_18
REMARK   10  A    between atoms: C_22  and  C_23
REMARK   11  A    between atoms: C_23  and  S_25
REMARK                            x       y       z     vdW  Elec       q    Type
REMARK                         _______ _______ _______ _____ _____    ______ ____
ROOT
ATOM      1  N   UNL     1       2.392   6.210  19.915  0.00  0.00    +0.000 N 
ATOM      2  C   UNL     1       2.681   6.814  18.693  0.00  0.00    +0.000 C 
ATOM      3  O   UNL     1       2.819   8.032  18.552  0.00  0.00    +0.000 OA
ATOM      4  C   UNL     1       2.919   5.841  17.533  0.00  0.00    +0.000 C 
ATOM      5  O   UNL     1       2.050   4.707  17.522  0.00  0.00    +0.000 OA
ATOM      6  C   UNL     1       1.878   4.133  18.753  0.00  0.00    +0.000 A 
ATOM      7  C   UNL     1       1.475   2.796  18.746  0.00  0.00    +0.000 A 
ATOM      8  C   UNL     1       1.228   2.135  19.944  0.00  0.00    +0.000 A 
ATOM      9  C   UNL     1       1.364   2.817  21.148  0.00  0.00    +0.000 A 
ATOM     10  C   UNL     1       1.757   4.161  21.154  0.00  0.00    +0.000 A 
ATOM     11  C   UNL     1       2.028   4.836  19.955  0.00  0.00    +0.000 A 
ENDROOT
BRANCH   4  12
ATOM     12  C   UNL     1       4.386   5.417  17.374  0.00  0.00    +0.000 A 
ATOM     13  C   UNL     1       5.220   5.213  18.483  0.00  0.00    +0.000 A 
ATOM     14  C   UNL     1       6.564   4.881  18.309  0.00  0.00    +0.000 A 
ATOM     15  C   UNL     1       7.102   4.776  17.026  0.00  0.00    +0.000 A 
ATOM     16  C   UNL     1       6.297   4.985  15.899  0.00  0.00    +0.000 A 
ATOM     17  C   UNL     1       4.944   5.295  16.085  0.00  0.00    +0.000 A 
BRANCH  16  18
ATOM     18  C   UNL     1       6.884   4.859  14.540  0.00  0.00    +0.000 C 
ATOM     19  N   UNL     1       7.926   5.515  14.141  0.00  0.00    +0.000 NA
ATOM     20  H   UNL     1       8.317   6.094  14.886  0.00  0.00    +0.000 HD
BRANCH  18  21
ATOM     21  S   UNL     1       6.153   3.787  13.358  0.00  0.00    +0.000 S 
ATOM     22  H   UNL     1       6.809   4.197  12.267  0.00  0.00    +0.000 HD
ENDBRANCH  18  21
ENDBRANCH  16  18
ENDBRANCH   4  12
BRANCH   1  23
ATOM     23  C   UNL     1       2.220   7.071  21.074  0.00  0.00    +0.000 C 
BRANCH  23  24
ATOM     24  C   UNL     1       0.952   7.903  20.923  0.00  0.00    +0.000 C 
BRANCH  24  25
ATOM     25  C   UNL     1       0.908   9.029  21.942  0.00  0.00    +0.000 C 
BRANCH  25  26
ATOM     26  C   UNL     1      -0.506   9.594  22.014  0.00  0.00    +0.000 C 
BRANCH  26  27
ATOM     27  C   UNL     1      -0.579  11.080  21.677  0.00  0.00    +0.000 C 
BRANCH  27  35
ATOM     28  C   UNL     1      -1.909  10.666  18.156  0.00  0.00    +0.000 C 
ATOM     29  C   UNL     1      -0.899  10.670  19.317  0.00  0.00    +0.000 C 
ATOM     30  C   UNL     1       0.497  11.111  18.838  0.00  0.00    +0.000 C 
ATOM     31  C   UNL     1       0.571  12.609  18.560  0.00  0.00    +0.000 C 
ATOM     32  C   UNL     1       0.003  13.430  19.714  0.00  0.00    +0.000 C 
ATOM     33  C   UNL     1      -1.379  12.918  20.150  0.00  0.00    +0.000 C 
ATOM     34  C   UNL     1      -1.993  13.870  21.181  0.00  0.00    +0.000 C 
ATOM     35  N   UNL     1      -1.370  11.470  20.486  0.00  0.00    +0.000 NA
ENDBRANCH  27  35
ENDBRANCH  26  27
ENDBRANCH  25  26
ENDBRANCH  24  25
ENDBRANCH  23  24
ENDBRANCH   1  23
TORSDOF 9
ENDMDL
MODEL 5
REMARK VINA RESULT:      -8.0      4.291      9.967
REMARK  Name = 
REMARK  11 active torsions:
REMARK  status: ('A' for Active; 'I' for Inactive)
REMARK    1  A    between atoms: C_1  and  C_2
REMARK    2  A    between atoms: C_6  and  C_7
REMARK    3  A    between atoms: N_8  and  C_9
REMARK    4  A    between atoms: C_9  and  C_10
REMARK    5  A    between atoms: C_10  and  C_11
REMARK    6  A    between atoms: C_11  and  C_12
REMARK    7  A    between atoms: C_12  and  C_13
REMARK    8  A    between atoms: C_13  and  N_14
REMARK    9  A    between atoms: C_17  and  C_18
REMARK   10  A    between atoms: C_22  and  C_23
REMARK   11  A    between atoms: C_23  and  S_25
REMARK                            x       y       z     vdW  Elec       q    Type
REMARK                         _______ _______ _______ _____ _____    ______ ____
ROOT
ATOM      1  N   UNL     1       2.384   6.289  19.841  0.00  0.00    +0.000 N 
ATOM      2  C   UNL     1       2.574   6.811  18.563  0.00  0.00    +0.000 C 
ATOM      3  O   UNL     1       2.672   8.019  18.329  0.00  0.00    +0.000 OA
ATOM      4  C   UNL     1       2.756   5.764  17.459  0.00  0.00    +0.000 C 
ATOM      5  O   UNL     1       1.916   4.615  17.587  0.00  0.00    +0.000 OA
ATOM      6  C   UNL     1       1.843   4.127  18.864  0.00  0.00    +0.000 A 
ATOM      7  C   UNL     1       1.473   2.785  18.976  0.00  0.00    +0.000 A 
ATOM      8  C   UNL     1       1.324   2.205  20.232  0.00  0.00    +0.000 A 
ATOM      9  C   UNL     1       1.525   2.973  21.373  0.00  0.00    +0.000 A 
ATOM     10  C   UNL     1       1.885   4.321  21.260  0.00  0.00    +0.000 A 
ATOM     11  C   UNL     1       2.057   4.915  20.001  0.00  0.00    +0.000 A 
ENDROOT
BRANCH   4  12
ATOM     12  C   UNL     1       4.219   5.359  17.227  0.00  0.00    +0.000 A 
ATOM     13  C   UNL     1       4.572   4.360  16.308  0.00  0.00    +0.000 A 
ATOM     14  C   UNL     1       5.904   3.974  16.156  0.00  0.00    +0.000 A 
ATOM     15  C   UNL     1       6.899   4.558  16.940  0.00  0.00    +0.000 A 
ATOM     16  C   UNL     1       6.576   5.551  17.874  0.00  0.00    +0.000 A 
ATOM     17  C   UNL     1       5.239   5.946  18.002  0.00  0.00    +0.000 A 
BRANCH  16  18
ATOM     18  C   UNL     1       7.650   6.169  18.694  0.00  0.00    +0.000 C 
ATOM     19  N   UNL     1       8.213   5.587  19.702  0.00  0.00    +0.000 NA
ATOM     20  H   UNL     1       7.860   4.638  19.838  0.00  0.00    +0.000 HD
BRANCH  18  21
ATOM     21  S   UNL     1       8.216   7.790  18.329  0.00  0.00    +0.000 S 
ATOM     22  H   UNL     1       9.251   7.848  19.175  0.00  0.00    +0.000 HD
ENDBRANCH  18  21
ENDBRANCH  16  18
ENDBRANCH   4  12
BRANCH   1  23
ATOM     23  C   UNL     1       2.270   7.226  20.947  0.00  0.00    +0.000 C 
BRANCH  23  24
ATOM     24  C   UNL     1       0.884   7.859  20.955  0.00  0.00    +0.000 C 
BRANCH  24  25
ATOM     25  C   UNL     1       0.838   9.070  21.871  0.00  0.00    +0.000 C 
BRANCH  25  26
ATOM     26  C   UNL     1      -0.569   9.657  21.866  0.00  0.00    +0.000 C 
BRANCH  26  27
ATOM     27  C   UNL     1      -0.621  11.093  21.351  0.00  0.00    +0.000 C 
BRANCH  27  35
ATOM     28  C   UNL     1       2.330  13.202  20.266  0.00  0.00    +0.000 C 
ATOM     29  C   UNL     1       0.955  12.859  20.865  0.00  0.00    +0.000 C 
ATOM     30  C   UNL     1      -0.065  13.979  20.589  0.00  0.00    +0.000 C 
ATOM     31  C   UNL     1      -0.528  14.001  19.135  0.00  0.00    +0.000 C 
ATOM     32  C   UNL     1      -0.952  12.618  18.652  0.00  0.00    +0.000 C 
ATOM     33  C   UNL     1       0.105  11.552  18.982  0.00  0.00    +0.000 C 
ATOM     34  C   UNL     1      -0.269  10.217  18.328  0.00  0.00    +0.000 C 
ATOM     35  N   UNL     1       0.454  11.523  20.427  0.00  0.00    +0.000 NA
ENDBRANCH  27  35
ENDBRANCH  26  27
ENDBRANCH  25  26
ENDBRANCH  24  25
ENDBRANCH  23  24
ENDBRANCH   1  23
TORSDOF 9
ENDMDL
MODEL 6
REMARK VINA RESULT:      -8.0      1.608      1.948
REMARK  Name = 
REMARK  11 active torsions:
REMARK  status: ('A' for Active; 'I' for Inactive)
REMARK    1  A    between atoms: C_1  and  C_2
REMARK    2  A    between atoms: C_6  and  C_7
REMARK    3  A    between atoms: N_8  and  C_9
REMARK    4  A    between atoms: C_9  and  C_10
REMARK    5  A    between atoms: C_10  and  C_11
REMARK    6  A    between atoms: C_11  and  C_12
REMARK    7  A    between atoms: C_12  and  C_13
REMARK    8  A    between atoms: C_13  and  N_14
REMARK    9  A    between atoms: C_17  and  C_18
REMARK   10  A    between atoms: C_22  and  C_23
REMARK   11  A    between atoms: C_23  and  S_25
REMARK                            x       y       z     vdW  Elec       q    Type
REMARK                         _______ _______ _______ _____ _____    ______ ____
ROOT
ATOM      1  N   UNL     1      -0.599  11.005  19.257  0.00  0.00    +0.000 N 
ATOM      2  C   UNL     1      -0.876  12.355  19.051  0.00  0.00    +0.000 C 
ATOM      3  O   UNL     1      -0.740  12.918  17.962  0.00  0.00    +0.000 OA
ATOM      4  C   UNL     1      -1.464  13.085  20.264  0.00  0.00    +0.000 C 
ATOM      5  O   UNL     1      -0.892  12.710  21.518  0.00  0.00    +0.000 OA
ATOM      6  C   UNL     1      -0.720  11.359  21.662  0.00  0.00    +0.000 A 
ATOM      7  C   UNL     1      -0.644  10.898  22.978  0.00  0.00    +0.000 A 
ATOM      8  C   UNL     1      -0.424   9.548  23.233  0.00  0.00    +0.000 A 
ATOM      9  C   UNL     1      -0.259   8.665  22.172  0.00  0.00    +0.000 A 
ATOM     10  C   UNL     1      -0.324   9.131  20.853  0.00  0.00    +0.000 A 
ATOM     11  C   UNL     1      -0.564  10.485  20.580  0.00  0.00    +0.000 A 
ENDROOT
BRANCH   4  12
ATOM     12  C   UNL     1      -2.998  13.048  20.321  0.00  0.00    +0.000 A 
ATOM     13  C   UNL     1      -3.717  13.742  21.305  0.00  0.00    +0.000 A 
ATOM     14  C   UNL     1      -5.108  13.648  21.367  0.00  0.00    +0.000 A 
ATOM     15  C   UNL     1      -5.799  12.837  20.465  0.00  0.00    +0.000 A 
ATOM     16  C   UNL     1      -5.107  12.125  19.478  0.00  0.00    +0.000 A 
ATOM     17  C   UNL     1      -3.714  12.244  19.411  0.00  0.00    +0.000 A 
BRANCH  16  18
ATOM     18  C   UNL     1      -5.860  11.274  18.520  0.00  0.00    +0.000 C 
ATOM     19  N   UNL     1      -5.818  11.423  17.236  0.00  0.00    +0.000 NA
ATOM     20  H   UNL     1      -5.173  12.167  16.961  0.00  0.00    +0.000 HD
BRANCH  18  21
ATOM     21  S   UNL     1      -6.897   9.986  19.109  0.00  0.00    +0.000 S 
ATOM     22  H   UNL     1      -8.088  10.546  18.863  0.00  0.00    +0.000 HD
ENDBRANCH  18  21
ENDBRANCH  16  18
ENDBRANCH   4  12
BRANCH   1  23
ATOM     23  C   UNL     1      -0.100  10.235  18.129  0.00  0.00    +0.000 C 
BRANCH  23  24
ATOM     24  C   UNL     1       1.391   9.966  18.299  0.00  0.00    +0.000 C 
BRANCH  24  25
ATOM     25  C   UNL     1       1.781   8.630  17.690  0.00  0.00    +0.000 C 
BRANCH  25  26
ATOM     26  C   UNL     1       2.761   7.918  18.616  0.00  0.00    +0.000 C 
BRANCH  26  27
ATOM     27  C   UNL     1       2.202   6.627  19.206  0.00  0.00    +0.000 C 
BRANCH  27  35
ATOM     28  C   UNL     1       5.552   4.864  19.151  0.00  0.00    +0.000 C 
ATOM     29  C   UNL     1       4.301   5.584  18.618  0.00  0.00    +0.000 C 
ATOM     30  C   UNL     1       3.878   5.021  17.249  0.00  0.00    +0.000 C 
ATOM     31  C   UNL     1       3.232   3.643  17.359  0.00  0.00    +0.000 C 
ATOM     32  C   UNL     1       2.143   3.609  18.427  0.00  0.00    +0.000 C 
ATOM     33  C   UNL     1       2.633   4.205  19.756  0.00  0.00    +0.000 C 
ATOM     34  C   UNL     1       1.581   3.992  20.850  0.00  0.00    +0.000 C 
ATOM     35  N   UNL     1       3.175   5.581  19.598  0.00  0.00    +0.000 NA
ENDBRANCH  27  35
ENDBRANCH  26  27
ENDBRANCH  25  26
ENDBRANCH  24  25
ENDBRANCH  23  24
ENDBRANCH   1  23
TORSDOF 9
ENDMDL
MODEL 7
REMARK VINA RESULT:      -8.0      3.885      9.903
REMARK  Name = 
REMARK  11 active torsions:
REMARK  status: ('A' for Active; 'I' for Inactive)
REMARK    1  A    between atoms: C_1  and  C_2
REMARK    2  A    between atoms: C_6  and  C_7
REMARK    3  A    between atoms: N_8  and  C_9
REMARK    4  A    between atoms: C_9  and  C_10
REMARK    5  A    between atoms: C_10  and  C_11
REMARK    6  A    between atoms: C_11  and  C_12
REMARK    7  A    between atoms: C_12  and  C_13
REMARK    8  A    between atoms: C_13  and  N_14
REMARK    9  A    between atoms: C_17  and  C_18
REMARK   10  A    between atoms: C_22  and  C_23
REMARK   11  A    between atoms: C_23  and  S_25
REMARK                            x       y       z     vdW  Elec       q    Type
REMARK                         _______ _______ _______ _____ _____    ______ ____
ROOT
ATOM      1  N   UNL     1       2.400   6.468  19.770  0.00  0.00    +0.000 N 
ATOM      2  C   UNL     1       2.509   6.879  18.443  0.00  0.00    +0.000 C 
ATOM      3  O   UNL     1       2.507   8.063  18.096  0.00  0.00    +0.000 OA
ATOM      4  C   UNL     1       2.736   5.748  17.434  0.00  0.00    +0.000 C 
ATOM      5  O   UNL     1       1.991   4.558  17.699  0.00  0.00    +0.000 OA
ATOM      6  C   UNL     1       1.996   4.188  19.017  0.00  0.00    +0.000 A 
ATOM      7  C   UNL     1       1.734   2.839  19.267  0.00  0.00    +0.000 A 
ATOM      8  C   UNL     1       1.670   2.371  20.575  0.00  0.00    +0.000 A 
ATOM      9  C   UNL     1       1.849   3.256  21.633  0.00  0.00    +0.000 A 
ATOM     10  C   UNL     1       2.099   4.611  21.382  0.00  0.00    +0.000 A 
ATOM     11  C   UNL     1       2.185   5.094  20.068  0.00  0.00    +0.000 A 
ENDROOT
BRANCH   4  12
ATOM     12  C   UNL     1       4.217   5.432  17.184  0.00  0.00    +0.000 A 
ATOM     13  C   UNL     1       4.617   4.339  16.401  0.00  0.00    +0.000 A 
ATOM     14  C   UNL     1       5.970   4.042  16.234  0.00  0.00    +0.000 A 
ATOM     15  C   UNL     1       6.943   4.815  16.869  0.00  0.00    +0.000 A 
ATOM     16  C   UNL     1       6.574   5.906  17.666  0.00  0.00    +0.000 A 
ATOM     17  C   UNL     1       5.214   6.208  17.808  0.00  0.00    +0.000 A 
BRANCH  16  18
ATOM     18  C   UNL     1       7.624   6.724  18.327  0.00  0.00    +0.000 C 
ATOM     19  N   UNL     1       8.314   6.324  19.346  0.00  0.00    +0.000 NA
ATOM     20  H   UNL     1       8.079   5.366  19.610  0.00  0.00    +0.000 HD
BRANCH  18  21
ATOM     21  S   UNL     1       7.978   8.342  17.747  0.00  0.00    +0.000 S 
ATOM     22  H   UNL     1       6.892   8.537  16.990  0.00  0.00    +0.000 HD
ENDBRANCH  18  21
ENDBRANCH  16  18
ENDBRANCH   4  12
BRANCH   1  23
ATOM     23  C   UNL     1       2.250   7.494  20.789  0.00  0.00    +0.000 C 
BRANCH  23  24
ATOM     24  C   UNL     1       0.781   7.871  20.938  0.00  0.00    +0.000 C 
BRANCH  24  25
ATOM     25  C   UNL     1       0.596   8.959  21.983  0.00  0.00    +0.000 C 
BRANCH  25  26
ATOM     26  C   UNL     1       0.044  10.213  21.316  0.00  0.00    +0.000 C 
BRANCH  26  27
ATOM     27  C   UNL     1      -0.553   9.950  19.936  0.00  0.00    +0.000 C 
BRANCH  27  35
ATOM     28  C   UNL     1      -0.091  13.553  18.868  0.00  0.00    +0.000 C 
ATOM     29  C   UNL     1      -0.508  12.358  19.744  0.00  0.00    +0.000 C 
ATOM     30  C   UNL     1      -1.821  12.651  20.494  0.00  0.00    +0.000 C 
ATOM     31  C   UNL     1      -3.039  12.608  19.577  0.00  0.00    +0.000 C 
ATOM     32  C   UNL     1      -3.062  11.345  18.721  0.00  0.00    +0.000 C 
ATOM     33  C   UNL     1      -1.713  11.108  18.022  0.00  0.00    +0.000 C 
ATOM     34  C   UNL     1      -1.827   9.940  17.037  0.00  0.00    +0.000 C 
ATOM     35  N   UNL     1      -0.574  11.079  18.977  0.00  0.00    +0.000 NA
ENDBRANCH  27  35
ENDBRANCH  26  27
ENDBRANCH  25  26
ENDBRANCH  24  25
ENDBRANCH  23  24
ENDBRANCH   1  23
TORSDOF 9
ENDMDL
MODEL 8
REMARK VINA RESULT:      -8.0      2.690      4.339
REMARK  Name = 
REMARK  11 active torsions:
REMARK  status: ('A' for Active; 'I' for Inactive)
REMARK    1  A    between atoms: C_1  and  C_2
REMARK    2  A    between atoms: C_6  and  C_7
REMARK    3  A    between atoms: N_8  and  C_9
REMARK    4  A    between atoms: C_9  and  C_10
REMARK    5  A    between atoms: C_10  and  C_11
REMARK    6  A    between atoms: C_11  and  C_12
REMARK    7  A    between atoms: C_12  and  C_13
REMARK    8  A    between atoms: C_13  and  N_14
REMARK    9  A    between atoms: C_17  and  C_18
REMARK   10  A    between atoms: C_22  and  C_23
REMARK   11  A    between atoms: C_23  and  S_25
REMARK                            x       y       z     vdW  Elec       q    Type
REMARK                         _______ _______ _______ _____ _____    ______ ____
ROOT
ATOM      1  N   UNL     1       0.017  10.657  19.559  0.00  0.00    +0.000 N 
ATOM      2  C   UNL     1       0.240  11.550  20.606  0.00  0.00    +0.000 C 
ATOM      3  O   UNL     1       1.135  11.404  21.443  0.00  0.00    +0.000 OA
ATOM      4  C   UNL     1      -0.649  12.797  20.591  0.00  0.00    +0.000 C 
ATOM      5  O   UNL     1      -2.003  12.557  20.205  0.00  0.00    +0.000 OA
ATOM      6  C   UNL     1      -2.127  11.726  19.124  0.00  0.00    +0.000 A 
ATOM      7  C   UNL     1      -3.322  11.839  18.410  0.00  0.00    +0.000 A 
ATOM      8  C   UNL     1      -3.567  11.006  17.322  0.00  0.00    +0.000 A 
ATOM      9  C   UNL     1      -2.625  10.049  16.963  0.00  0.00    +0.000 A 
ATOM     10  C   UNL     1      -1.433   9.928  17.687  0.00  0.00    +0.000 A 
ATOM     11  C   UNL     1      -1.164  10.772  18.774  0.00  0.00    +0.000 A 
ENDROOT
BRANCH   4  12
ATOM     12  C   UNL     1      -0.049  13.974  19.808  0.00  0.00    +0.000 A 
ATOM     13  C   UNL     1       1.301  13.997  19.430  0.00  0.00    +0.000 A 
ATOM     14  C   UNL     1       1.834  15.102  18.765  0.00  0.00    +0.000 A 
ATOM     15  C   UNL     1       1.033  16.213  18.495  0.00  0.00    +0.000 A 
ATOM     16  C   UNL     1      -0.316  16.222  18.869  0.00  0.00    +0.000 A 
ATOM     17  C   UNL     1      -0.846  15.099  19.515  0.00  0.00    +0.000 A 
BRANCH  16  18
ATOM     18  C   UNL     1      -1.157  17.410  18.563  0.00  0.00    +0.000 C 
ATOM     19  N   UNL     1      -0.955  18.196  17.556  0.00  0.00    +0.000 NA
ATOM     20  H   UNL     1      -0.177  17.878  16.976  0.00  0.00    +0.000 HD
BRANCH  18  21
ATOM     21  S   UNL     1      -2.506  17.827  19.606  0.00  0.00    +0.000 S 
ATOM     22  H   UNL     1      -2.834  16.600  20.028  0.00  0.00    +0.000 HD
ENDBRANCH  18  21
ENDBRANCH  16  18
ENDBRANCH   4  12
BRANCH   1  23
ATOM     23  C   UNL     1       0.870   9.483  19.473  0.00  0.00    +0.000 C 
BRANCH  23  24
ATOM     24  C   UNL     1       1.859   9.640  18.324  0.00  0.00    +0.000 C 
BRANCH  24  25
ATOM     25  C   UNL     1       2.114   8.310  17.634  0.00  0.00    +0.000 C 
BRANCH  25  26
ATOM     26  C   UNL     1       2.622   7.298  18.654  0.00  0.00    +0.000 C 
BRANCH  26  27
ATOM     27  C   UNL     1       2.357   5.851  18.251  0.00  0.00    +0.000 C 
BRANCH  27  35
ATOM     28  C   UNL     1       5.050   3.388  19.260  0.00  0.00    +0.000 C 
ATOM     29  C   UNL     1       4.097   4.176  18.345  0.00  0.00    +0.000 C 
ATOM     30  C   UNL     1       3.615   3.309  17.166  0.00  0.00    +0.000 C 
ATOM     31  C   UNL     1       2.592   2.260  17.594  0.00  0.00    +0.000 C 
ATOM     32  C   UNL     1       1.476   2.867  18.439  0.00  0.00    +0.000 C 
ATOM     33  C   UNL     1       2.033   3.733  19.579  0.00  0.00    +0.000 C 
ATOM     34  C   UNL     1       0.898   4.176  20.509  0.00  0.00    +0.000 C 
ATOM     35  N   UNL     1       2.959   4.790  19.092  0.00  0.00    +0.000 NA
ENDBRANCH  27  35
ENDBRANCH  26  27
ENDBRANCH  25  26
ENDBRANCH  24  25
ENDBRANCH  23  24
ENDBRANCH   1  23
TORSDOF 9
ENDMDL
MODEL 9
REMARK VINA RESULT:      -8.0      3.063      4.696
REMARK  Name = 
REMARK  11 active torsions:
REMARK  status: ('A' for Active; 'I' for Inactive)
REMARK    1  A    between atoms: C_1  and  C_2
REMARK    2  A    between atoms: C_6  and  C_7
REMARK    3  A    between atoms: N_8  and  C_9
REMARK    4  A    between atoms: C_9  and  C_10
REMARK    5  A    between atoms: C_10  and  C_11
REMARK    6  A    between atoms: C_11  and  C_12
REMARK    7  A    between atoms: C_12  and  C_13
REMARK    8  A    between atoms: C_13  and  N_14
REMARK    9  A    between atoms: C_17  and  C_18
REMARK   10  A    between atoms: C_22  and  C_23
REMARK   11  A    between atoms: C_23  and  S_25
REMARK                            x       y       z     vdW  Elec       q    Type
REMARK                         _______ _______ _______ _____ _____    ______ ____
ROOT
ATOM      1  N   UNL     1       0.101  10.566  19.513  0.00  0.00    +0.000 N 
ATOM      2  C   UNL     1       0.304  11.444  20.576  0.00  0.00    +0.000 C 
ATOM      3  O   UNL     1       1.168  11.276  21.440  0.00  0.00    +0.000 OA
ATOM      4  C   UNL     1      -0.566  12.705  20.546  0.00  0.00    +0.000 C 
ATOM      5  O   UNL     1      -1.910  12.490  20.113  0.00  0.00    +0.000 OA
ATOM      6  C   UNL     1      -2.011  11.671  19.020  0.00  0.00    +0.000 A 
ATOM      7  C   UNL     1      -3.180  11.810  18.268  0.00  0.00    +0.000 A 
ATOM      8  C   UNL     1      -3.401  10.993  17.165  0.00  0.00    +0.000 A 
ATOM      9  C   UNL     1      -2.463  10.024  16.826  0.00  0.00    +0.000 A 
ATOM     10  C   UNL     1      -1.297   9.878  17.587  0.00  0.00    +0.000 A 
ATOM     11  C   UNL     1      -1.051  10.707  18.691  0.00  0.00    +0.000 A 
ENDROOT
BRANCH   4  12
ATOM     12  C   UNL     1       0.077  13.881  19.795  0.00  0.00    +0.000 A 
ATOM     13  C   UNL     1       1.452  13.918  19.521  0.00  0.00    +0.000 A 
ATOM     14  C   UNL     1       2.019  15.023  18.885  0.00  0.00    +0.000 A 
ATOM     15  C   UNL     1       1.227  16.118  18.539  0.00  0.00    +0.000 A 
ATOM     16  C   UNL     1      -0.147  16.114  18.808  0.00  0.00    +0.000 A 
ATOM     17  C   UNL     1      -0.710  14.991  19.427  0.00  0.00    +0.000 A 
BRANCH  16  18
ATOM     18  C   UNL     1      -0.978  17.285  18.424  0.00  0.00    +0.000 C 
ATOM     19  N   UNL     1      -2.156  17.522  18.903  0.00  0.00    +0.000 NA
ATOM     20  H   UNL     1      -2.425  16.832  19.606  0.00  0.00    +0.000 HD
BRANCH  18  21
ATOM     21  S   UNL     1      -0.383  18.438  17.241  0.00  0.00    +0.000 S 
ATOM     22  H   UNL     1      -0.724  17.787  16.123  0.00  0.00    +0.000 HD
ENDBRANCH  18  21
ENDBRANCH  16  18
ENDBRANCH   4  12
BRANCH   1  23
ATOM     23  C   UNL     1       0.939   9.380  19.442  0.00  0.00    +0.000 C 
BRANCH  23  24
ATOM     24  C   UNL     1       1.986   9.546  18.347  0.00  0.00    +0.000 C 
BRANCH  24  25
ATOM     25  C   UNL     1       2.230   8.235  17.618  0.00  0.00    +0.000 C 
BRANCH  25  26
ATOM     26  C   UNL     1       2.771   7.201  18.599  0.00  0.00    +0.000 C 
BRANCH  26  27
ATOM     27  C   UNL     1       3.009   5.835  17.964  0.00  0.00    +0.000 C 
BRANCH  27  35
ATOM     28  C   UNL     1       6.714   5.663  18.727  0.00  0.00    +0.000 C 
ATOM     29  C   UNL     1       5.411   6.098  18.034  0.00  0.00    +0.000 C 
ATOM     30  C   UNL     1       5.637   6.348  16.531  0.00  0.00    +0.000 C 
ATOM     31  C   UNL     1       5.809   5.052  15.744  0.00  0.00    +0.000 C 
ATOM     32  C   UNL     1       4.712   4.042  16.065  0.00  0.00    +0.000 C 
ATOM     33  C   UNL     1       4.530   3.862  17.580  0.00  0.00    +0.000 C 
ATOM     34  C   UNL     1       3.553   2.716  17.863  0.00  0.00    +0.000 C 
ATOM     35  N   UNL     1       4.284   5.150  18.282  0.00  0.00    +0.000 NA
ENDBRANCH  27  35
ENDBRANCH  26  27
ENDBRANCH  25  26
ENDBRANCH  24  25
ENDBRANCH  23  24
ENDBRANCH   1  23
TORSDOF 9
ENDMDL
