MODEL 1
REMARK VINA RESULT:      -6.1      0.000      0.000
REMARK  Name = 
REMARK  2 active torsions:
REMARK  status: ('A' for Active; 'I' for Inactive)
REMARK    1  A    between atoms: C_1  and  C_2
REMARK    2  A    between atoms: C_5  and  C_6
REMARK                            x       y       z     vdW  Elec       q    Type
REMARK                         _______ _______ _______ _____ _____    ______ ____
ROOT
ATOM      1  C   UNL     1       5.387   5.077  18.574  0.00  0.00    +0.000 A 
ATOM      2  C   UNL     1       5.720   5.994  17.593  0.00  0.00    +0.000 A 
ATOM      3  S   UNL     1       7.309   6.576  17.856  0.00  0.00    +0.000 S 
ATOM      4  C   UNL     1       7.426   5.592  19.257  0.00  0.00    +0.000 A 
ATOM      5  N   UNL     1       8.536   5.583  20.000  0.00  0.00    +0.000 N 
ATOM      6  N   UNL     1       6.366   4.872  19.533  0.00  0.00    +0.000 NA
ATOM      7  H   UNL     1       9.360   6.108  19.739  0.00  0.00    +0.000 HD
ATOM      8  H   UNL     1       8.603   4.957  20.791  0.00  0.00    +0.000 HD
ENDROOT
BRANCH   1  13
ATOM      9  C   UNL     1       0.333   2.284  18.774  0.00  0.00    +0.000 C 
ATOM     10  C   UNL     1       1.638   3.020  18.724  0.00  0.00    +0.000 A 
ATOM     11  C   UNL     1       1.807   4.115  17.872  0.00  0.00    +0.000 A 
ATOM     12  C   UNL     1       3.031   4.787  17.820  0.00  0.00    +0.000 A 
ATOM     13  C   UNL     1       4.107   4.380  18.621  0.00  0.00    +0.000 A 
ATOM     14  C   UNL     1       3.938   3.278  19.468  0.00  0.00    +0.000 A 
ATOM     15  C   UNL     1       2.711   2.608  19.524  0.00  0.00    +0.000 A 
ENDBRANCH   1  13
TORSDOF 1
ENDMDL
MODEL 2
REMARK VINA RESULT:      -6.1      0.129      1.342
REMARK  Name = 
REMARK  2 active torsions:
REMARK  status: ('A' for Active; 'I' for Inactive)
REMARK    1  A    between atoms: C_1  and  C_2
REMARK    2  A    between atoms: C_5  and  C_6
REMARK                            x       y       z     vdW  Elec       q    Type
REMARK                         _______ _______ _______ _____ _____    ______ ____
ROOT
ATOM      1  C   UNL     1       5.382   5.047  18.475  0.00  0.00    +0.000 A 
ATOM      2  C   UNL     1       5.676   5.975  17.491  0.00  0.00    +0.000 A 
ATOM      3  S   UNL     1       7.253   6.596  17.730  0.00  0.00    +0.000 S 
ATOM      4  C   UNL     1       7.418   5.611  19.125  0.00  0.00    +0.000 A 
ATOM      5  N   UNL     1       8.541   5.628  19.850  0.00  0.00    +0.000 N 
ATOM      6  N   UNL     1       6.381   4.864  19.416  0.00  0.00    +0.000 NA
ATOM      7  H   UNL     1       9.346   6.174  19.576  0.00  0.00    +0.000 HD
ATOM      8  H   UNL     1       8.637   5.001  20.637  0.00  0.00    +0.000 HD
ENDROOT
BRANCH   1  13
ATOM      9  C   UNL     1       0.363   2.194  18.721  0.00  0.00    +0.000 C 
ATOM     10  C   UNL     1       1.672   2.923  18.654  0.00  0.00    +0.000 A 
ATOM     11  C   UNL     1       2.776   2.474  19.384  0.00  0.00    +0.000 A 
ATOM     12  C   UNL     1       3.988   3.166  19.328  0.00  0.00    +0.000 A 
ATOM     13  C   UNL     1       4.121   4.318  18.540  0.00  0.00    +0.000 A 
ATOM     14  C   UNL     1       3.011   4.771  17.816  0.00  0.00    +0.000 A 
ATOM     15  C   UNL     1       1.798   4.075  17.868  0.00  0.00    +0.000 A 
ENDBRANCH   1  13
TORSDOF 1
ENDMDL
MODEL 3
REMARK VINA RESULT:      -6.1      2.049      2.422
REMARK  Name = 
REMARK  2 active torsions:
REMARK  status: ('A' for Active; 'I' for Inactive)
REMARK    1  A    between atoms: C_1  and  C_2
REMARK    2  A    between atoms: C_5  and  C_6
REMARK                            x       y       z     vdW  Elec       q    Type
REMARK                         _______ _______ _______ _____ _____    ______ ____
ROOT
ATOM      1  C   UNL     1       5.125   4.528  16.669  0.00  0.00    +0.000 A 
ATOM      2  C   UNL     1       5.685   3.985  15.525  0.00  0.00    +0.000 A 
ATOM      3  S   UNL     1       7.082   4.873  15.085  0.00  0.00    +0.000 S 
ATOM      4  C   UNL     1       6.826   5.918  16.422  0.00  0.00    +0.000 A 
ATOM      5  N   UNL     1       7.657   6.935  16.668  0.00  0.00    +0.000 N 
ATOM      6  N   UNL     1       5.776   5.647  17.159  0.00  0.00    +0.000 NA
ATOM      7  H   UNL     1       8.488   7.093  16.115  0.00  0.00    +0.000 HD
ATOM      8  H   UNL     1       7.518   7.506  17.491  0.00  0.00    +0.000 HD
ENDROOT
BRANCH   1  13
ATOM      9  C   UNL     1       0.398   2.420  19.238  0.00  0.00    +0.000 C 
ATOM     10  C   UNL     1       1.623   2.958  18.562  0.00  0.00    +0.000 A 
ATOM     11  C   UNL     1       2.665   2.104  18.189  0.00  0.00    +0.000 A 
ATOM     12  C   UNL     1       3.810   2.614  17.572  0.00  0.00    +0.000 A 
ATOM     13  C   UNL     1       3.934   3.986  17.313  0.00  0.00    +0.000 A 
ATOM     14  C   UNL     1       2.893   4.841  17.695  0.00  0.00    +0.000 A 
ATOM     15  C   UNL     1       1.744   4.330  18.308  0.00  0.00    +0.000 A 
ENDBRANCH   1  13
TORSDOF 1
ENDMDL
MODEL 4
REMARK VINA RESULT:      -6.0      1.988      2.464
REMARK  Name = 
REMARK  2 active torsions:
REMARK  status: ('A' for Active; 'I' for Inactive)
REMARK    1  A    between atoms: C_1  and  C_2
REMARK    2  A    between atoms: C_5  and  C_6
REMARK                            x       y       z     vdW  Elec       q    Type
REMARK                         _______ _______ _______ _____ _____    ______ ____
ROOT
ATOM      1  C   UNL     1       5.215   4.883  17.205  0.00  0.00    +0.000 A 
ATOM      2  C   UNL     1       5.857   5.819  17.997  0.00  0.00    +0.000 A 
ATOM      3  S   UNL     1       7.227   6.435  17.175  0.00  0.00    +0.000 S 
ATOM      4  C   UNL     1       6.882   5.402  15.848  0.00  0.00    +0.000 A 
ATOM      5  N   UNL     1       7.659   5.397  14.762  0.00  0.00    +0.000 N 
ATOM      6  N   UNL     1       5.825   4.639  15.985  0.00  0.00    +0.000 NA
ATOM      7  H   UNL     1       8.439   6.031  14.657  0.00  0.00    +0.000 HD
ATOM      8  H   UNL     1       7.407   4.820  13.970  0.00  0.00    +0.000 HD
ENDROOT
BRANCH   1  13
ATOM      9  C   UNL     1       0.382   2.162  18.824  0.00  0.00    +0.000 C 
ATOM     10  C   UNL     1       1.637   2.860  18.394  0.00  0.00    +0.000 A 
ATOM     11  C   UNL     1       2.812   2.137  18.165  0.00  0.00    +0.000 A 
ATOM     12  C   UNL     1       3.982   2.796  17.778  0.00  0.00    +0.000 A 
ATOM     13  C   UNL     1       3.999   4.188  17.610  0.00  0.00    +0.000 A 
ATOM     14  C   UNL     1       2.824   4.910  17.847  0.00  0.00    +0.000 A 
ATOM     15  C   UNL     1       1.651   4.250  18.230  0.00  0.00    +0.000 A 
ENDBRANCH   1  13
TORSDOF 1
ENDMDL
MODEL 5
REMARK VINA RESULT:      -6.0      2.040      2.144
REMARK  Name = 
REMARK  2 active torsions:
REMARK  status: ('A' for Active; 'I' for Inactive)
REMARK    1  A    between atoms: C_1  and  C_2
REMARK    2  A    between atoms: C_5  and  C_6
REMARK                            x       y       z     vdW  Elec       q    Type
REMARK                         _______ _______ _______ _____ _____    ______ ____
ROOT
ATOM      1  C   UNL     1       5.119   4.540  16.677  0.00  0.00    +0.000 A 
ATOM      2  C   UNL     1       5.679   3.997  15.534  0.00  0.00    +0.000 A 
ATOM      3  S   UNL     1       7.080   4.879  15.098  0.00  0.00    +0.000 S 
ATOM      4  C   UNL     1       6.827   5.922  16.436  0.00  0.00    +0.000 A 
ATOM      5  N   UNL     1       7.662   6.935  16.686  0.00  0.00    +0.000 N 
ATOM      6  N   UNL     1       5.775   5.655  17.171  0.00  0.00    +0.000 NA
ATOM      7  H   UNL     1       8.496   7.090  16.135  0.00  0.00    +0.000 HD
ATOM      8  H   UNL     1       7.525   7.504  17.510  0.00  0.00    +0.000 HD
ENDROOT
BRANCH   1  13
ATOM      9  C   UNL     1       0.397   2.374  19.206  0.00  0.00    +0.000 C 
ATOM     10  C   UNL     1       1.623   2.945  18.560  0.00  0.00    +0.000 A 
ATOM     11  C   UNL     1       1.724   4.316  18.309  0.00  0.00    +0.000 A 
ATOM     12  C   UNL     1       2.864   4.839  17.693  0.00  0.00    +0.000 A 
ATOM     13  C   UNL     1       3.925   4.003  17.319  0.00  0.00    +0.000 A 
ATOM     14  C   UNL     1       3.818   2.628  17.564  0.00  0.00    +0.000 A 
ATOM     15  C   UNL     1       2.679   2.105  18.185  0.00  0.00    +0.000 A 
ENDBRANCH   1  13
TORSDOF 1
ENDMDL
MODEL 6
REMARK VINA RESULT:      -6.0      1.989      2.192
REMARK  Name = 
REMARK  2 active torsions:
REMARK  status: ('A' for Active; 'I' for Inactive)
REMARK    1  A    between atoms: C_1  and  C_2
REMARK    2  A    between atoms: C_5  and  C_6
REMARK                            x       y       z     vdW  Elec       q    Type
REMARK                         _______ _______ _______ _____ _____    ______ ____
ROOT
ATOM      1  C   UNL     1       5.212   4.920  17.205  0.00  0.00    +0.000 A 
ATOM      2  C   UNL     1       5.836   5.892  17.969  0.00  0.00    +0.000 A 
ATOM      3  S   UNL     1       7.212   6.486  17.142  0.00  0.00    +0.000 S 
ATOM      4  C   UNL     1       6.894   5.401  15.852  0.00  0.00    +0.000 A 
ATOM      5  N   UNL     1       7.686   5.359  14.777  0.00  0.00    +0.000 N 
ATOM      6  N   UNL     1       5.841   4.634  16.004  0.00  0.00    +0.000 NA
ATOM      7  H   UNL     1       8.462   5.996  14.659  0.00  0.00    +0.000 HD
ATOM      8  H   UNL     1       7.450   4.750  14.006  0.00  0.00    +0.000 HD
ENDROOT
BRANCH   1  13
ATOM      9  C   UNL     1       0.407   2.154  18.832  0.00  0.00    +0.000 C 
ATOM     10  C   UNL     1       1.653   2.880  18.421  0.00  0.00    +0.000 A 
ATOM     11  C   UNL     1       1.672   4.275  18.338  0.00  0.00    +0.000 A 
ATOM     12  C   UNL     1       2.832   4.944  17.940  0.00  0.00    +0.000 A 
ATOM     13  C   UNL     1       3.996   4.231  17.620  0.00  0.00    +0.000 A 
ATOM     14  C   UNL     1       3.973   2.833  17.696  0.00  0.00    +0.000 A 
ATOM     15  C   UNL     1       2.813   2.164  18.099  0.00  0.00    +0.000 A 
ENDBRANCH   1  13
TORSDOF 1
ENDMDL
MODEL 7
REMARK VINA RESULT:      -6.0      3.073      5.327
REMARK  Name = 
REMARK  2 active torsions:
REMARK  status: ('A' for Active; 'I' for Inactive)
REMARK    1  A    between atoms: C_1  and  C_2
REMARK    2  A    between atoms: C_5  and  C_6
REMARK                            x       y       z     vdW  Elec       q    Type
REMARK                         _______ _______ _______ _____ _____    ______ ____
ROOT
ATOM      1  C   UNL     1       3.071   4.063  18.842  0.00  0.00    +0.000 A 
ATOM      2  C   UNL     1       2.308   3.365  17.923  0.00  0.00    +0.000 A 
ATOM      3  S   UNL     1       1.053   2.524  18.728  0.00  0.00    +0.000 S 
ATOM      4  C   UNL     1       1.627   3.126  20.229  0.00  0.00    +0.000 A 
ATOM      5  N   UNL     1       1.019   2.807  21.375  0.00  0.00    +0.000 N 
ATOM      6  N   UNL     1       2.682   3.901  20.161  0.00  0.00    +0.000 NA
ATOM      7  H   UNL     1       0.176   2.249  21.397  0.00  0.00    +0.000 HD
ATOM      8  H   UNL     1       1.341   3.215  22.242  0.00  0.00    +0.000 HD
ENDROOT
BRANCH   1  13
ATOM      9  C   UNL     1       7.590   7.368  17.414  0.00  0.00    +0.000 C 
ATOM     10  C   UNL     1       6.416   6.508  17.772  0.00  0.00    +0.000 A 
ATOM     11  C   UNL     1       5.197   6.650  17.103  0.00  0.00    +0.000 A 
ATOM     12  C   UNL     1       4.103   5.854  17.451  0.00  0.00    +0.000 A 
ATOM     13  C   UNL     1       4.207   4.899  18.473  0.00  0.00    +0.000 A 
ATOM     14  C   UNL     1       5.426   4.764  19.147  0.00  0.00    +0.000 A 
ATOM     15  C   UNL     1       6.524   5.557  18.795  0.00  0.00    +0.000 A 
ENDBRANCH   1  13
TORSDOF 1
ENDMDL
MODEL 8
REMARK VINA RESULT:      -6.0      3.306      5.161
REMARK  Name = 
REMARK  2 active torsions:
REMARK  status: ('A' for Active; 'I' for Inactive)
REMARK    1  A    between atoms: C_1  and  C_2
REMARK    2  A    between atoms: C_5  and  C_6
REMARK                            x       y       z     vdW  Elec       q    Type
REMARK                         _______ _______ _______ _____ _____    ______ ____
ROOT
ATOM      1  C   UNL     1       3.158   4.777  18.518  0.00  0.00    +0.000 A 
ATOM      2  C   UNL     1       3.136   5.706  19.544  0.00  0.00    +0.000 A 
ATOM      3  S   UNL     1       1.905   5.306  20.664  0.00  0.00    +0.000 S 
ATOM      4  C   UNL     1       1.480   3.953  19.698  0.00  0.00    +0.000 A 
ATOM      5  N   UNL     1       0.484   3.138  20.056  0.00  0.00    +0.000 N 
ATOM      6  N   UNL     1       2.190   3.791  18.608  0.00  0.00    +0.000 NA
ATOM      7  H   UNL     1      -0.016   3.254  20.927  0.00  0.00    +0.000 HD
ATOM      8  H   UNL     1       0.285   2.317  19.501  0.00  0.00    +0.000 HD
ENDROOT
BRANCH   1  13
ATOM      9  C   UNL     1       6.939   4.924  14.151  0.00  0.00    +0.000 C 
ATOM     10  C   UNL     1       5.950   4.893  15.277  0.00  0.00    +0.000 A 
ATOM     11  C   UNL     1       5.402   6.078  15.778  0.00  0.00    +0.000 A 
ATOM     12  C   UNL     1       4.492   6.043  16.837  0.00  0.00    +0.000 A 
ATOM     13  C   UNL     1       4.109   4.824  17.413  0.00  0.00    +0.000 A 
ATOM     14  C   UNL     1       4.664   3.639  16.916  0.00  0.00    +0.000 A 
ATOM     15  C   UNL     1       5.572   3.673  15.852  0.00  0.00    +0.000 A 
ENDBRANCH   1  13
TORSDOF 1
ENDMDL
MODEL 9
REMARK VINA RESULT:      -6.0      3.302      5.272
REMARK  Name = 
REMARK  2 active torsions:
REMARK  status: ('A' for Active; 'I' for Inactive)
REMARK    1  A    between atoms: C_1  and  C_2
REMARK    2  A    between atoms: C_5  and  C_6
REMARK                            x       y       z     vdW  Elec       q    Type
REMARK                         _______ _______ _______ _____ _____    ______ ____
ROOT
ATOM      1  C   UNL     1       3.139   4.818  18.529  0.00  0.00    +0.000 A 
ATOM      2  C   UNL     1       3.089   5.782  19.520  0.00  0.00    +0.000 A 
ATOM      3  S   UNL     1       1.852   5.400  20.640  0.00  0.00    +0.000 S 
ATOM      4  C   UNL     1       1.464   4.005  19.720  0.00  0.00    +0.000 A 
ATOM      5  N   UNL     1       0.479   3.185  20.098  0.00  0.00    +0.000 N 
ATOM      6  N   UNL     1       2.189   3.817  18.644  0.00  0.00    +0.000 NA
ATOM      7  H   UNL     1      -0.033   3.323  20.959  0.00  0.00    +0.000 HD
ATOM      8  H   UNL     1       0.302   2.341  19.570  0.00  0.00    +0.000 HD
ENDROOT
BRANCH   1  13
ATOM      9  C   UNL     1       6.938   4.953  14.177  0.00  0.00    +0.000 C 
ATOM     10  C   UNL     1       5.961   4.910  15.313  0.00  0.00    +0.000 A 
ATOM     11  C   UNL     1       5.546   3.688  15.851  0.00  0.00    +0.000 A 
ATOM     12  C   UNL     1       4.624   3.655  16.900  0.00  0.00    +0.000 A 
ATOM     13  C   UNL     1       4.101   4.842  17.433  0.00  0.00    +0.000 A 
ATOM     14  C   UNL     1       4.512   6.065  16.887  0.00  0.00    +0.000 A 
ATOM     15  C   UNL     1       5.439   6.098  15.840  0.00  0.00    +0.000 A 
ENDBRANCH   1  13
TORSDOF 1
ENDMDL
