MODEL 1
REMARK VINA RESULT:      -8.1      0.000      0.000
REMARK  Name = 
REMARK  6 active torsions:
REMARK  status: ('A' for Active; 'I' for Inactive)
REMARK    1  A    between atoms: C_1  and  C_2
REMARK    2  A    between atoms: C_2  and  C_3
REMARK    3  A    between atoms: C_2  and  C_15
REMARK    4  A    between atoms: C_3  and  O_5
REMARK    5  A    between atoms: O_5  and  C_6
REMARK    6  A    between atoms: N_13  and  C_14
REMARK                            x       y       z     vdW  Elec       q    Type
REMARK                         _______ _______ _______ _____ _____    ______ ____
ROOT
ATOM      1  C   UNL     1       6.987   5.345  18.510  0.00  0.00    +0.000 C 
ATOM      2  O   UNL     1       7.469   5.843  19.506  0.00  0.00    +0.000 OA
ENDROOT
BRANCH   1   4
ATOM      3  C   UNL     1       7.037   7.384  17.368  0.00  0.00    +0.000 C 
ATOM      4  C   UNL     1       7.331   5.878  16.972  0.00  0.00    +0.000 C 
BRANCH   4   5
ATOM      5  C   UNL     1       6.877   5.092  15.393  0.00  0.00    +0.000 A 
ATOM      6  C   UNL     1       5.621   4.448  15.311  0.00  0.00    +0.000 A 
ATOM      7  C   UNL     1       5.146   3.805  14.085  0.00  0.00    +0.000 A 
ATOM      8  C   UNL     1       5.868   3.757  12.899  0.00  0.00    +0.000 A 
ATOM      9  F   UNL     1       5.388   3.152  11.797  0.00  0.00    +0.000 F 
ATOM     10  C   UNL     1       7.058   4.353  12.880  0.00  0.00    +0.000 A 
ATOM     11  C   UNL     1       7.513   4.976  14.061  0.00  0.00    +0.000 A 
ENDBRANCH   4   5
ENDBRANCH   1   4
BRANCH   1  12
ATOM     12  O   UNL     1       6.342   4.118  18.608  0.00  0.00    +0.000 OA
BRANCH  12  13
ATOM     13  C   UNL     1       4.959   4.209  19.118  0.00  0.00    +0.000 C 
ATOM     14  C   UNL     1       4.107   5.349  18.491  0.00  0.00    +0.000 C 
ATOM     15  C   UNL     1       2.575   5.153  18.737  0.00  0.00    +0.000 C 
ATOM     16  C   UNL     1       1.867   4.312  17.652  0.00  0.00    +0.000 C 
ATOM     17  C   UNL     1       1.810   2.891  18.216  0.00  0.00    +0.000 C 
ATOM     18  C   UNL     1       2.741   2.972  19.423  0.00  0.00    +0.000 C 
ATOM     19  C   UNL     1       4.221   2.879  18.928  0.00  0.00    +0.000 C 
ATOM     20  N   UNL     1       2.468   4.330  19.954  0.00  0.00    +0.000 NA
ATOM     21  C   UNL     1       1.185   4.469  20.643  0.00  0.00    +0.000 C 
ENDBRANCH  12  13
ENDBRANCH   1  12
TORSDOF 4
ENDMDL
MODEL 2
REMARK VINA RESULT:      -8.1      0.267      1.037
REMARK  Name = 
REMARK  6 active torsions:
REMARK  status: ('A' for Active; 'I' for Inactive)
REMARK    1  A    between atoms: C_1  and  C_2
REMARK    2  A    between atoms: C_2  and  C_3
REMARK    3  A    between atoms: C_2  and  C_15
REMARK    4  A    between atoms: C_3  and  O_5
REMARK    5  A    between atoms: O_5  and  C_6
REMARK    6  A    between atoms: N_13  and  C_14
REMARK                            x       y       z     vdW  Elec       q    Type
REMARK                         _______ _______ _______ _____ _____    ______ ____
ROOT
ATOM      1  C   UNL     1       6.916   5.298  18.784  0.00  0.00    +0.000 C 
ATOM      2  O   UNL     1       7.328   5.888  19.761  0.00  0.00    +0.000 OA
ENDROOT
BRANCH   1   4
ATOM      3  C   UNL     1       7.355   7.260  17.593  0.00  0.00    +0.000 C 
ATOM      4  C   UNL     1       7.329   5.719  17.229  0.00  0.00    +0.000 C 
BRANCH   4   5
ATOM      5  C   UNL     1       6.692   5.010  15.676  0.00  0.00    +0.000 A 
ATOM      6  C   UNL     1       7.512   5.087  14.528  0.00  0.00    +0.000 A 
ATOM      7  C   UNL     1       7.109   4.530  13.236  0.00  0.00    +0.000 A 
ATOM      8  C   UNL     1       5.899   3.884  13.007  0.00  0.00    +0.000 A 
ATOM      9  F   UNL     1       5.574   3.389  11.798  0.00  0.00    +0.000 F 
ATOM     10  C   UNL     1       5.070   3.752  14.039  0.00  0.00    +0.000 A 
ATOM     11  C   UNL     1       5.461   4.286  15.285  0.00  0.00    +0.000 A 
ENDBRANCH   4   5
ENDBRANCH   1   4
BRANCH   1  12
ATOM     12  O   UNL     1       6.300   4.062  18.946  0.00  0.00    +0.000 OA
BRANCH  12  13
ATOM     13  C   UNL     1       4.876   4.151  19.330  0.00  0.00    +0.000 C 
ATOM     14  C   UNL     1       4.077   5.277  18.616  0.00  0.00    +0.000 C 
ATOM     15  C   UNL     1       2.530   5.074  18.726  0.00  0.00    +0.000 C 
ATOM     16  C   UNL     1       1.926   4.215  17.593  0.00  0.00    +0.000 C 
ATOM     17  C   UNL     1       1.828   2.800  18.167  0.00  0.00    +0.000 C 
ATOM     18  C   UNL     1       2.647   2.902  19.452  0.00  0.00    +0.000 C 
ATOM     19  C   UNL     1       4.166   2.813  19.091  0.00  0.00    +0.000 C 
ATOM     20  N   UNL     1       2.320   4.264  19.939  0.00  0.00    +0.000 NA
ATOM     21  C   UNL     1       0.980   4.402  20.509  0.00  0.00    +0.000 C 
ENDBRANCH  12  13
ENDBRANCH   1  12
TORSDOF 4
ENDMDL
MODEL 3
REMARK VINA RESULT:      -7.8      1.058      1.580
REMARK  Name = 
REMARK  6 active torsions:
REMARK  status: ('A' for Active; 'I' for Inactive)
REMARK    1  A    between atoms: C_1  and  C_2
REMARK    2  A    between atoms: C_2  and  C_3
REMARK    3  A    between atoms: C_2  and  C_15
REMARK    4  A    between atoms: C_3  and  O_5
REMARK    5  A    between atoms: O_5  and  C_6
REMARK    6  A    between atoms: N_13  and  C_14
REMARK                            x       y       z     vdW  Elec       q    Type
REMARK                         _______ _______ _______ _____ _____    ______ ____
ROOT
ATOM      1  C   UNL     1       6.202   5.691  18.762  0.00  0.00    +0.000 C 
ATOM      2  O   UNL     1       6.647   5.289  19.817  0.00  0.00    +0.000 OA
ENDROOT
BRANCH   1   4
ATOM      3  C   UNL     1       7.541   7.217  17.603  0.00  0.00    +0.000 C 
ATOM      4  C   UNL     1       7.090   5.719  17.355  0.00  0.00    +0.000 C 
BRANCH   4   5
ATOM      5  C   UNL     1       6.643   5.001  15.741  0.00  0.00    +0.000 A 
ATOM      6  C   UNL     1       7.561   5.142  14.677  0.00  0.00    +0.000 A 
ATOM      7  C   UNL     1       7.314   4.585  13.347  0.00  0.00    +0.000 A 
ATOM      8  C   UNL     1       6.170   3.877  12.997  0.00  0.00    +0.000 A 
ATOM      9  F   UNL     1       5.988   3.384  11.758  0.00  0.00    +0.000 F 
ATOM     10  C   UNL     1       5.256   3.682  13.945  0.00  0.00    +0.000 A 
ATOM     11  C   UNL     1       5.497   4.217  15.227  0.00  0.00    +0.000 A 
ENDBRANCH   4   5
ENDBRANCH   1   4
BRANCH   1  12
ATOM     12  O   UNL     1       4.832   5.884  18.631  0.00  0.00    +0.000 OA
BRANCH  12  13
ATOM     13  C   UNL     1       4.019   4.976  19.464  0.00  0.00    +0.000 C 
ATOM     14  C   UNL     1       2.571   5.469  19.744  0.00  0.00    +0.000 C 
ATOM     15  C   UNL     1       1.638   4.322  20.255  0.00  0.00    +0.000 C 
ATOM     16  C   UNL     1       0.930   3.538  19.128  0.00  0.00    +0.000 C 
ATOM     17  C   UNL     1       1.792   2.295  18.898  0.00  0.00    +0.000 C 
ATOM     18  C   UNL     1       3.059   2.615  19.687  0.00  0.00    +0.000 C 
ATOM     19  C   UNL     1       3.953   3.578  18.839  0.00  0.00    +0.000 C 
ATOM     20  N   UNL     1       2.532   3.328  20.876  0.00  0.00    +0.000 NA
ATOM     21  C   UNL     1       1.862   2.470  21.854  0.00  0.00    +0.000 C 
ENDBRANCH  12  13
ENDBRANCH   1  12
TORSDOF 4
ENDMDL
MODEL 4
REMARK VINA RESULT:      -7.6      3.347      6.342
REMARK  Name = 
REMARK  6 active torsions:
REMARK  status: ('A' for Active; 'I' for Inactive)
REMARK    1  A    between atoms: C_1  and  C_2
REMARK    2  A    between atoms: C_2  and  C_3
REMARK    3  A    between atoms: C_2  and  C_15
REMARK    4  A    between atoms: C_3  and  O_5
REMARK    5  A    between atoms: O_5  and  C_6
REMARK    6  A    between atoms: N_13  and  C_14
REMARK                            x       y       z     vdW  Elec       q    Type
REMARK                         _______ _______ _______ _____ _____    ______ ____
ROOT
ATOM      1  C   UNL     1       3.330   3.276  19.537  0.00  0.00    +0.000 C 
ATOM      2  O   UNL     1       2.922   2.188  19.189  0.00  0.00    +0.000 OA
ENDROOT
BRANCH   1   4
ATOM      3  C   UNL     1       1.190   3.393  20.470  0.00  0.00    +0.000 C 
ATOM      4  C   UNL     1       2.347   4.442  20.204  0.00  0.00    +0.000 C 
BRANCH   4   5
ATOM      5  C   UNL     1       2.111   6.157  19.637  0.00  0.00    +0.000 A 
ATOM      6  C   UNL     1       1.668   7.111  20.582  0.00  0.00    +0.000 A 
ATOM      7  C   UNL     1       1.468   8.520  20.240  0.00  0.00    +0.000 A 
ATOM      8  C   UNL     1       1.684   9.055  18.976  0.00  0.00    +0.000 A 
ATOM      9  F   UNL     1       1.484  10.360  18.712  0.00  0.00    +0.000 F 
ATOM     10  C   UNL     1       2.118   8.230  18.027  0.00  0.00    +0.000 A 
ATOM     11  C   UNL     1       2.314   6.873  18.358  0.00  0.00    +0.000 A 
ENDBRANCH   4   5
ENDBRANCH   1   4
BRANCH   1  12
ATOM     12  O   UNL     1       4.699   3.485  19.651  0.00  0.00    +0.000 OA
BRANCH  12  13
ATOM     13  C   UNL     1       5.351   3.877  18.385  0.00  0.00    +0.000 C 
ATOM     14  C   UNL     1       4.372   4.243  17.233  0.00  0.00    +0.000 C 
ATOM     15  C   UNL     1       5.074   5.034  16.081  0.00  0.00    +0.000 C 
ATOM     16  C   UNL     1       5.078   6.566  16.282  0.00  0.00    +0.000 C 
ATOM     17  C   UNL     1       6.441   6.888  16.898  0.00  0.00    +0.000 C 
ATOM     18  C   UNL     1       6.977   5.508  17.270  0.00  0.00    +0.000 C 
ATOM     19  C   UNL     1       6.311   5.051  18.609  0.00  0.00    +0.000 C 
ATOM     20  N   UNL     1       6.497   4.660  16.150  0.00  0.00    +0.000 NA
ATOM     21  C   UNL     1       7.214   4.853  14.890  0.00  0.00    +0.000 C 
ENDBRANCH  12  13
ENDBRANCH   1  12
TORSDOF 4
ENDMDL
MODEL 5
REMARK VINA RESULT:      -7.5      3.514      6.446
REMARK  Name = 
REMARK  6 active torsions:
REMARK  status: ('A' for Active; 'I' for Inactive)
REMARK    1  A    between atoms: C_1  and  C_2
REMARK    2  A    between atoms: C_2  and  C_3
REMARK    3  A    between atoms: C_2  and  C_15
REMARK    4  A    between atoms: C_3  and  O_5
REMARK    5  A    between atoms: O_5  and  C_6
REMARK    6  A    between atoms: N_13  and  C_14
REMARK                            x       y       z     vdW  Elec       q    Type
REMARK                         _______ _______ _______ _____ _____    ______ ____
ROOT
ATOM      1  C   UNL     1       3.032   3.737  19.274  0.00  0.00    +0.000 C 
ATOM      2  O   UNL     1       2.114   3.084  18.823  0.00  0.00    +0.000 OA
ENDROOT
BRANCH   1   4
ATOM      3  C   UNL     1       2.148   4.155  21.397  0.00  0.00    +0.000 C 
ATOM      4  C   UNL     1       2.805   5.051  20.269  0.00  0.00    +0.000 C 
BRANCH   4   5
ATOM      5  C   UNL     1       2.262   6.725  19.797  0.00  0.00    +0.000 A 
ATOM      6  C   UNL     1       2.481   7.141  18.465  0.00  0.00    +0.000 A 
ATOM      7  C   UNL     1       2.064   8.455  17.973  0.00  0.00    +0.000 A 
ATOM      8  C   UNL     1       1.425   9.413  18.751  0.00  0.00    +0.000 A 
ATOM      9  F   UNL     1       1.062  10.609  18.251  0.00  0.00    +0.000 F 
ATOM     10  C   UNL     1       1.163   9.100  20.017  0.00  0.00    +0.000 A 
ATOM     11  C   UNL     1       1.563   7.832  20.489  0.00  0.00    +0.000 A 
ENDBRANCH   4   5
ENDBRANCH   1   4
BRANCH   1  12
ATOM     12  O   UNL     1       4.325   3.235  19.200  0.00  0.00    +0.000 OA
BRANCH  12  13
ATOM     13  C   UNL     1       5.078   3.695  18.015  0.00  0.00    +0.000 C 
ATOM     14  C   UNL     1       4.226   4.443  16.951  0.00  0.00    +0.000 C 
ATOM     15  C   UNL     1       5.106   5.257  15.947  0.00  0.00    +0.000 C 
ATOM     16  C   UNL     1       5.415   6.699  16.408  0.00  0.00    +0.000 C 
ATOM     17  C   UNL     1       6.798   6.626  17.060  0.00  0.00    +0.000 C 
ATOM     18  C   UNL     1       7.031   5.123  17.185  0.00  0.00    +0.000 C 
ATOM     19  C   UNL     1       6.249   4.592  18.431  0.00  0.00    +0.000 C 
ATOM     20  N   UNL     1       6.421   4.593  15.940  0.00  0.00    +0.000 NA
ATOM     21  C   UNL     1       7.198   4.846  14.726  0.00  0.00    +0.000 C 
ENDBRANCH  12  13
ENDBRANCH   1  12
TORSDOF 4
ENDMDL
MODEL 6
REMARK VINA RESULT:      -7.5      1.371      2.369
REMARK  Name = 
REMARK  6 active torsions:
REMARK  status: ('A' for Active; 'I' for Inactive)
REMARK    1  A    between atoms: C_1  and  C_2
REMARK    2  A    between atoms: C_2  and  C_3
REMARK    3  A    between atoms: C_2  and  C_15
REMARK    4  A    between atoms: C_3  and  O_5
REMARK    5  A    between atoms: O_5  and  C_6
REMARK    6  A    between atoms: N_13  and  C_14
REMARK                            x       y       z     vdW  Elec       q    Type
REMARK                         _______ _______ _______ _____ _____    ______ ____
ROOT
ATOM      1  C   UNL     1       5.867   5.908  17.764  0.00  0.00    +0.000 C 
ATOM      2  O   UNL     1       5.993   7.077  17.464  0.00  0.00    +0.000 OA
ENDROOT
BRANCH   1   4
ATOM      3  C   UNL     1       7.762   4.547  17.915  0.00  0.00    +0.000 C 
ATOM      4  C   UNL     1       6.558   4.670  16.893  0.00  0.00    +0.000 C 
BRANCH   4   5
ATOM      5  C   UNL     1       6.688   4.520  15.081  0.00  0.00    +0.000 A 
ATOM      6  C   UNL     1       7.625   5.341  14.415  0.00  0.00    +0.000 A 
ATOM      7  C   UNL     1       7.829   5.286  12.967  0.00  0.00    +0.000 A 
ATOM      8  C   UNL     1       7.132   4.441  12.112  0.00  0.00    +0.000 A 
ATOM      9  F   UNL     1       7.355   4.428  10.785  0.00  0.00    +0.000 F 
ATOM     10  C   UNL     1       6.239   3.619  12.657  0.00  0.00    +0.000 A 
ATOM     11  C   UNL     1       6.046   3.670  14.054  0.00  0.00    +0.000 A 
ENDBRANCH   4   5
ENDBRANCH   1   4
BRANCH   1  12
ATOM     12  O   UNL     1       5.370   5.577  19.018  0.00  0.00    +0.000 OA
BRANCH  12  13
ATOM     13  C   UNL     1       4.178   4.705  18.977  0.00  0.00    +0.000 C 
ATOM     14  C   UNL     1       4.416   3.251  19.475  0.00  0.00    +0.000 C 
ATOM     15  C   UNL     1       3.081   2.507  19.804  0.00  0.00    +0.000 C 
ATOM     16  C   UNL     1       2.595   2.702  21.257  0.00  0.00    +0.000 C 
ATOM     17  C   UNL     1       1.570   3.836  21.192  0.00  0.00    +0.000 C 
ATOM     18  C   UNL     1       1.771   4.389  19.783  0.00  0.00    +0.000 C 
ATOM     19  C   UNL     1       3.027   5.321  19.781  0.00  0.00    +0.000 C 
ATOM     20  N   UNL     1       2.045   3.166  18.989  0.00  0.00    +0.000 NA
ATOM     21  C   UNL     1       0.874   2.326  18.741  0.00  0.00    +0.000 C 
ENDBRANCH  12  13
ENDBRANCH   1  12
TORSDOF 4
ENDMDL
MODEL 7
REMARK VINA RESULT:      -7.5      3.826      6.705
REMARK  Name = 
REMARK  6 active torsions:
REMARK  status: ('A' for Active; 'I' for Inactive)
REMARK    1  A    between atoms: C_1  and  C_2
REMARK    2  A    between atoms: C_2  and  C_3
REMARK    3  A    between atoms: C_2  and  C_15
REMARK    4  A    between atoms: C_3  and  O_5
REMARK    5  A    between atoms: O_5  and  C_6
REMARK    6  A    between atoms: N_13  and  C_14
REMARK                            x       y       z     vdW  Elec       q    Type
REMARK                         _______ _______ _______ _____ _____    ______ ____
ROOT
ATOM      1  C   UNL     1       2.161   4.356  18.880  0.00  0.00    +0.000 C 
ATOM      2  O   UNL     1       1.121   3.732  18.894  0.00  0.00    +0.000 OA
ENDROOT
BRANCH   1   4
ATOM      3  C   UNL     1       2.092   4.854  21.162  0.00  0.00    +0.000 C 
ATOM      4  C   UNL     1       2.440   5.676  19.854  0.00  0.00    +0.000 C 
BRANCH   4   5
ATOM      5  C   UNL     1       1.977   7.411  19.539  0.00  0.00    +0.000 A 
ATOM      6  C   UNL     1       2.292   7.961  18.276  0.00  0.00    +0.000 A 
ATOM      7  C   UNL     1       1.946   9.334  17.909  0.00  0.00    +0.000 A 
ATOM      8  C   UNL     1       1.289  10.225  18.750  0.00  0.00    +0.000 A 
ATOM      9  F   UNL     1       0.993  11.481  18.365  0.00  0.00    +0.000 F 
ATOM     10  C   UNL     1       0.939   9.785  19.956  0.00  0.00    +0.000 A 
ATOM     11  C   UNL     1       1.270   8.460  20.307  0.00  0.00    +0.000 A 
ENDBRANCH   4   5
ENDBRANCH   1   4
BRANCH   1  12
ATOM     12  O   UNL     1       3.271   3.814  18.243  0.00  0.00    +0.000 OA
BRANCH  12  13
ATOM     13  C   UNL     1       4.368   4.780  18.028  0.00  0.00    +0.000 C 
ATOM     14  C   UNL     1       5.681   4.458  18.796  0.00  0.00    +0.000 C 
ATOM     15  C   UNL     1       6.911   5.240  18.230  0.00  0.00    +0.000 C 
ATOM     16  C   UNL     1       7.648   4.510  17.086  0.00  0.00    +0.000 C 
ATOM     17  C   UNL     1       7.083   5.108  15.796  0.00  0.00    +0.000 C 
ATOM     18  C   UNL     1       5.877   5.900  16.293  0.00  0.00    +0.000 C 
ATOM     19  C   UNL     1       4.689   4.913  16.535  0.00  0.00    +0.000 C 
ATOM     20  N   UNL     1       6.356   6.445  17.587  0.00  0.00    +0.000 NA
ATOM     21  C   UNL     1       7.318   7.540  17.469  0.00  0.00    +0.000 C 
ENDBRANCH  12  13
ENDBRANCH   1  12
TORSDOF 4
ENDMDL
MODEL 8
REMARK VINA RESULT:      -7.4      0.873      1.029
REMARK  Name = 
REMARK  6 active torsions:
REMARK  status: ('A' for Active; 'I' for Inactive)
REMARK    1  A    between atoms: C_1  and  C_2
REMARK    2  A    between atoms: C_2  and  C_3
REMARK    3  A    between atoms: C_2  and  C_15
REMARK    4  A    between atoms: C_3  and  O_5
REMARK    5  A    between atoms: O_5  and  C_6
REMARK    6  A    between atoms: N_13  and  C_14
REMARK                            x       y       z     vdW  Elec       q    Type
REMARK                         _______ _______ _______ _____ _____    ______ ____
ROOT
ATOM      1  C   UNL     1       6.976   5.374  18.190  0.00  0.00    +0.000 C 
ATOM      2  O   UNL     1       7.510   4.373  18.620  0.00  0.00    +0.000 OA
ENDROOT
BRANCH   1   4
ATOM      3  C   UNL     1       6.739   7.391  17.032  0.00  0.00    +0.000 C 
ATOM      4  C   UNL     1       7.211   5.931  16.639  0.00  0.00    +0.000 C 
BRANCH   4   5
ATOM      5  C   UNL     1       6.820   5.077  15.078  0.00  0.00    +0.000 A 
ATOM      6  C   UNL     1       5.595   4.378  14.995  0.00  0.00    +0.000 A 
ATOM      7  C   UNL     1       5.170   3.677  13.782  0.00  0.00    +0.000 A 
ATOM      8  C   UNL     1       5.915   3.624  12.610  0.00  0.00    +0.000 A 
ATOM      9  F   UNL     1       5.481   2.965  11.520  0.00  0.00    +0.000 F 
ATOM     10  C   UNL     1       7.078   4.270  12.593  0.00  0.00    +0.000 A 
ATOM     11  C   UNL     1       7.485   4.948  13.762  0.00  0.00    +0.000 A 
ENDBRANCH   4   5
ENDBRANCH   1   4
BRANCH   1  12
ATOM     12  O   UNL     1       5.921   5.940  18.895  0.00  0.00    +0.000 OA
BRANCH  12  13
ATOM     13  C   UNL     1       4.817   4.999  19.174  0.00  0.00    +0.000 C 
ATOM     14  C   UNL     1       3.429   5.667  19.386  0.00  0.00    +0.000 C 
ATOM     15  C   UNL     1       2.250   4.647  19.262  0.00  0.00    +0.000 C 
ATOM     16  C   UNL     1       1.715   4.477  17.823  0.00  0.00    +0.000 C 
ATOM     17  C   UNL     1       2.421   3.235  17.274  0.00  0.00    +0.000 C 
ATOM     18  C   UNL     1       3.506   2.977  18.316  0.00  0.00    +0.000 C 
ATOM     19  C   UNL     1       4.698   3.955  18.058  0.00  0.00    +0.000 C 
ATOM     20  N   UNL     1       2.826   3.330  19.587  0.00  0.00    +0.000 NA
ATOM     21  C   UNL     1       1.835   2.354  20.040  0.00  0.00    +0.000 C 
ENDBRANCH  12  13
ENDBRANCH   1  12
TORSDOF 4
ENDMDL
MODEL 9
REMARK VINA RESULT:      -7.4      1.338      1.801
REMARK  Name = 
REMARK  6 active torsions:
REMARK  status: ('A' for Active; 'I' for Inactive)
REMARK    1  A    between atoms: C_1  and  C_2
REMARK    2  A    between atoms: C_2  and  C_3
REMARK    3  A    between atoms: C_2  and  C_15
REMARK    4  A    between atoms: C_3  and  O_5
REMARK    5  A    between atoms: O_5  and  C_6
REMARK    6  A    between atoms: N_13  and  C_14
REMARK                            x       y       z     vdW  Elec       q    Type
REMARK                         _______ _______ _______ _____ _____    ______ ____
ROOT
ATOM      1  C   UNL     1       5.892   5.974  17.767  0.00  0.00    +0.000 C 
ATOM      2  O   UNL     1       5.877   7.117  17.363  0.00  0.00    +0.000 OA
ENDROOT
BRANCH   1   4
ATOM      3  C   UNL     1       7.790   4.618  17.921  0.00  0.00    +0.000 C 
ATOM      4  C   UNL     1       6.573   4.719  16.912  0.00  0.00    +0.000 C 
BRANCH   4   5
ATOM      5  C   UNL     1       6.681   4.534  15.102  0.00  0.00    +0.000 A 
ATOM      6  C   UNL     1       7.623   5.328  14.411  0.00  0.00    +0.000 A 
ATOM      7  C   UNL     1       7.809   5.243  12.962  0.00  0.00    +0.000 A 
ATOM      8  C   UNL     1       7.090   4.393  12.131  0.00  0.00    +0.000 A 
ATOM      9  F   UNL     1       7.298   4.352  10.801  0.00  0.00    +0.000 F 
ATOM     10  C   UNL     1       6.189   3.595  12.700  0.00  0.00    +0.000 A 
ATOM     11  C   UNL     1       6.013   3.676  14.098  0.00  0.00    +0.000 A 
ENDBRANCH   4   5
ENDBRANCH   1   4
BRANCH   1  12
ATOM     12  O   UNL     1       5.588   5.719  19.099  0.00  0.00    +0.000 OA
BRANCH  12  13
ATOM     13  C   UNL     1       4.318   4.990  19.292  0.00  0.00    +0.000 C 
ATOM     14  C   UNL     1       3.263   5.207  18.170  0.00  0.00    +0.000 C 
ATOM     15  C   UNL     1       2.135   4.124  18.193  0.00  0.00    +0.000 C 
ATOM     16  C   UNL     1       2.456   2.865  17.358  0.00  0.00    +0.000 C 
ATOM     17  C   UNL     1       3.008   1.847  18.359  0.00  0.00    +0.000 C 
ATOM     18  C   UNL     1       3.234   2.694  19.608  0.00  0.00    +0.000 C 
ATOM     19  C   UNL     1       4.573   3.486  19.446  0.00  0.00    +0.000 C 
ATOM     20  N   UNL     1       2.084   3.631  19.580  0.00  0.00    +0.000 NA
ATOM     21  C   UNL     1       0.800   3.029  19.940  0.00  0.00    +0.000 C 
ENDBRANCH  12  13
ENDBRANCH   1  12
TORSDOF 4
ENDMDL
