MODEL 1
REMARK VINA RESULT:      -8.4      0.000      0.000
REMARK  Name = 
REMARK  9 active torsions:
REMARK  status: ('A' for Active; 'I' for Inactive)
REMARK    1  A    between atoms: C_1  and  C_2
REMARK    2  A    between atoms: C_5  and  C_6
REMARK    3  A    between atoms: C_11  and  C_12
REMARK    4  A    between atoms: C_12  and  C_13
REMARK    5  A    between atoms: C_12  and  C_14
REMARK    6  A    between atoms: C_12  and  C_15
REMARK    7  A    between atoms: C_19  and  N_20
REMARK    8  A    between atoms: C_22  and  C_23
REMARK    9  A    between atoms: C_27  and  N_28
REMARK                            x       y       z     vdW  Elec       q    Type
REMARK                         _______ _______ _______ _____ _____    ______ ____
ROOT
ATOM      1  C   UNL     1      -1.693  10.362  18.524  0.00  0.00    +0.000 C 
ATOM      2  C   UNL     1      -0.632  11.433  18.570  0.00  0.00    +0.000 A 
ATOM      3  C   UNL     1      -0.981  12.710  18.103  0.00  0.00    +0.000 A 
ATOM      4  C   UNL     1      -0.084  13.772  18.185  0.00  0.00    +0.000 A 
ATOM      5  C   UNL     1       1.189  13.597  18.739  0.00  0.00    +0.000 A 
ATOM      6  C   UNL     1       1.555  12.336  19.229  0.00  0.00    +0.000 A 
ATOM      7  C   UNL     1       0.656  11.247  19.127  0.00  0.00    +0.000 A 
ENDROOT
BRANCH   5   8
ATOM      8  C   UNL     1       2.063  14.800  18.818  0.00  0.00    +0.000 C 
ATOM      9  O   UNL     1       1.554  15.871  18.497  0.00  0.00    +0.000 OA
ATOM     10  N   UNL     1       3.374  14.600  19.208  0.00  0.00    +0.000 N 
ATOM     11  C   UNL     1       4.321  15.616  19.239  0.00  0.00    +0.000 A 
ATOM     12  C   UNL     1       5.678  15.437  19.608  0.00  0.00    +0.000 A 
ATOM     13  C   UNL     1       6.249  16.688  19.504  0.00  0.00    +0.000 A 
ATOM     14  O   UNL     1       5.291  17.557  19.084  0.00  0.00    +0.000 OA
ATOM     15  N   UNL     1       4.098  16.895  18.926  0.00  0.00    +0.000 NA
ATOM     16  H   UNL     1       3.710  13.667  19.405  0.00  0.00    +0.000 HD
BRANCH  13  17
ATOM     17  C   UNL     1       7.613  17.271  19.755  0.00  0.00    +0.000 C 
ATOM     18  C   UNL     1       7.507  18.549  20.606  0.00  0.00    +0.000 C 
ATOM     19  C   UNL     1       8.500  16.257  20.502  0.00  0.00    +0.000 C 
ATOM     20  C   UNL     1       8.280  17.627  18.414  0.00  0.00    +0.000 C 
ENDBRANCH  13  17
ENDBRANCH   5   8
BRANCH   7  21
ATOM     21  N   UNL     1       1.069   9.976  19.608  0.00  0.00    +0.000 N 
ATOM     22  C   UNL     1       1.652   8.957  18.895  0.00  0.00    +0.000 A 
ATOM     23  C   UNL     1       1.828   7.946  19.811  0.00  0.00    +0.000 A 
ATOM     24  N   UNL     1       1.320   8.331  21.014  0.00  0.00    +0.000 NA
ATOM     25  N   UNL     1       0.887   9.577  20.889  0.00  0.00    +0.000 NA
BRANCH  23  26
ATOM     26  C   UNL     1       2.454   6.675  19.553  0.00  0.00    +0.000 A 
ATOM     27  C   UNL     1       2.327   5.619  20.440  0.00  0.00    +0.000 A 
ATOM     28  N   UNL     1       2.857   4.397  20.219  0.00  0.00    +0.000 NA
ATOM     29  C   UNL     1       3.562   4.242  19.066  0.00  0.00    +0.000 A 
ATOM     30  C   UNL     1       3.795   5.229  18.100  0.00  0.00    +0.000 A 
ATOM     31  C   UNL     1       3.209   6.464  18.391  0.00  0.00    +0.000 A 
BRANCH  30  32
ATOM     32  N   UNL     1       4.538   5.033  16.961  0.00  0.00    +0.000 N 
ATOM     33  C   UNL     1       4.926   3.731  16.438  0.00  0.00    +0.000 C 
ATOM     34  C   UNL     1       6.240   4.034  15.730  0.00  0.00    +0.000 C 
ATOM     35  C   UNL     1       6.010   5.415  15.138  0.00  0.00    +0.000 C 
ATOM     36  C   UNL     1       5.096   6.113  16.146  0.00  0.00    +0.000 C 
ENDBRANCH  30  32
ENDBRANCH  23  26
ENDBRANCH   7  21
TORSDOF 5
ENDMDL
MODEL 2
REMARK VINA RESULT:      -8.2      4.861     10.981
REMARK  Name = 
REMARK  9 active torsions:
REMARK  status: ('A' for Active; 'I' for Inactive)
REMARK    1  A    between atoms: C_1  and  C_2
REMARK    2  A    between atoms: C_5  and  C_6
REMARK    3  A    between atoms: C_11  and  C_12
REMARK    4  A    between atoms: C_12  and  C_13
REMARK    5  A    between atoms: C_12  and  C_14
REMARK    6  A    between atoms: C_12  and  C_15
REMARK    7  A    between atoms: C_19  and  N_20
REMARK    8  A    between atoms: C_22  and  C_23
REMARK    9  A    between atoms: C_27  and  N_28
REMARK                            x       y       z     vdW  Elec       q    Type
REMARK                         _______ _______ _______ _____ _____    ______ ____
ROOT
ATOM      1  C   UNL     1       1.032  14.426  19.532  0.00  0.00    +0.000 C 
ATOM      2  C   UNL     1       1.229  12.960  19.233  0.00  0.00    +0.000 A 
ATOM      3  C   UNL     1       2.091  12.627  18.176  0.00  0.00    +0.000 A 
ATOM      4  C   UNL     1       2.387  11.297  17.886  0.00  0.00    +0.000 A 
ATOM      5  C   UNL     1       1.837  10.257  18.643  0.00  0.00    +0.000 A 
ATOM      6  C   UNL     1       0.988  10.564  19.716  0.00  0.00    +0.000 A 
ATOM      7  C   UNL     1       0.665  11.913  20.000  0.00  0.00    +0.000 A 
ENDROOT
BRANCH   5   8
ATOM      8  C   UNL     1       2.243   8.870  18.282  0.00  0.00    +0.000 C 
ATOM      9  O   UNL     1       2.675   8.704  17.144  0.00  0.00    +0.000 OA
ATOM     10  N   UNL     1       2.064   7.893  19.243  0.00  0.00    +0.000 N 
ATOM     11  C   UNL     1       2.315   6.546  19.012  0.00  0.00    +0.000 A 
ATOM     12  C   UNL     1       2.116   5.518  19.967  0.00  0.00    +0.000 A 
ATOM     13  C   UNL     1       2.488   4.354  19.328  0.00  0.00    +0.000 A 
ATOM     14  O   UNL     1       2.874   4.670  18.062  0.00  0.00    +0.000 OA
ATOM     15  N   UNL     1       2.771   6.026  17.870  0.00  0.00    +0.000 NA
ATOM     16  H   UNL     1       1.653   8.126  20.136  0.00  0.00    +0.000 HD
BRANCH  13  17
ATOM     17  C   UNL     1       2.575   2.900  19.706  0.00  0.00    +0.000 C 
ATOM     18  C   UNL     1       2.620   2.740  21.236  0.00  0.00    +0.000 C 
ATOM     19  C   UNL     1       1.351   2.133  19.170  0.00  0.00    +0.000 C 
ATOM     20  C   UNL     1       3.853   2.284  19.109  0.00  0.00    +0.000 C 
ENDBRANCH  13  17
ENDBRANCH   5   8
BRANCH   7  21
ATOM     21  N   UNL     1      -0.220  12.189  21.076  0.00  0.00    +0.000 N 
ATOM     22  C   UNL     1      -1.590  12.282  21.033  0.00  0.00    +0.000 A 
ATOM     23  C   UNL     1      -1.959  12.589  22.323  0.00  0.00    +0.000 A 
ATOM     24  N   UNL     1      -0.846  12.725  23.092  0.00  0.00    +0.000 NA
ATOM     25  N   UNL     1       0.206  12.452  22.333  0.00  0.00    +0.000 NA
BRANCH  23  26
ATOM     26  C   UNL     1      -3.310  12.741  22.798  0.00  0.00    +0.000 A 
ATOM     27  C   UNL     1      -3.702  12.229  24.023  0.00  0.00    +0.000 A 
ATOM     28  N   UNL     1      -4.943  12.386  24.531  0.00  0.00    +0.000 NA
ATOM     29  C   UNL     1      -5.830  13.069  23.759  0.00  0.00    +0.000 A 
ATOM     30  C   UNL     1      -5.580  13.610  22.492  0.00  0.00    +0.000 A 
ATOM     31  C   UNL     1      -4.273  13.418  22.036  0.00  0.00    +0.000 A 
BRANCH  30  32
ATOM     32  N   UNL     1      -6.517  14.270  21.737  0.00  0.00    +0.000 N 
ATOM     33  C   UNL     1      -7.027  13.805  20.455  0.00  0.00    +0.000 C 
ATOM     34  C   UNL     1      -7.374  15.105  19.740  0.00  0.00    +0.000 C 
ATOM     35  C   UNL     1      -7.899  15.990  20.858  0.00  0.00    +0.000 C 
ATOM     36  C   UNL     1      -7.092  15.570  22.087  0.00  0.00    +0.000 C 
ENDBRANCH  30  32
ENDBRANCH  23  26
ENDBRANCH   7  21
TORSDOF 5
ENDMDL
MODEL 3
REMARK VINA RESULT:      -8.2      5.027     11.101
REMARK  Name = 
REMARK  9 active torsions:
REMARK  status: ('A' for Active; 'I' for Inactive)
REMARK    1  A    between atoms: C_1  and  C_2
REMARK    2  A    between atoms: C_5  and  C_6
REMARK    3  A    between atoms: C_11  and  C_12
REMARK    4  A    between atoms: C_12  and  C_13
REMARK    5  A    between atoms: C_12  and  C_14
REMARK    6  A    between atoms: C_12  and  C_15
REMARK    7  A    between atoms: C_19  and  N_20
REMARK    8  A    between atoms: C_22  and  C_23
REMARK    9  A    between atoms: C_27  and  N_28
REMARK                            x       y       z     vdW  Elec       q    Type
REMARK                         _______ _______ _______ _____ _____    ______ ____
ROOT
ATOM      1  C   UNL     1       0.650  14.345  18.752  0.00  0.00    +0.000 C 
ATOM      2  C   UNL     1       0.936  12.878  18.547  0.00  0.00    +0.000 A 
ATOM      3  C   UNL     1       2.193  12.531  18.028  0.00  0.00    +0.000 A 
ATOM      4  C   UNL     1       2.564  11.196  17.884  0.00  0.00    +0.000 A 
ATOM      5  C   UNL     1       1.695  10.164  18.256  0.00  0.00    +0.000 A 
ATOM      6  C   UNL     1       0.441  10.485  18.794  0.00  0.00    +0.000 A 
ATOM      7  C   UNL     1       0.050  11.840  18.921  0.00  0.00    +0.000 A 
ENDROOT
BRANCH   5   8
ATOM      8  C   UNL     1       2.195   8.770  18.100  0.00  0.00    +0.000 C 
ATOM      9  O   UNL     1       2.744   8.500  17.034  0.00  0.00    +0.000 OA
ATOM     10  N   UNL     1       1.966   7.900  19.148  0.00  0.00    +0.000 N 
ATOM     11  C   UNL     1       2.298   6.551  19.102  0.00  0.00    +0.000 A 
ATOM     12  C   UNL     1       2.051   5.628  20.149  0.00  0.00    +0.000 A 
ATOM     13  C   UNL     1       2.535   4.422  19.689  0.00  0.00    +0.000 A 
ATOM     14  O   UNL     1       3.029   4.613  18.437  0.00  0.00    +0.000 OA
ATOM     15  N   UNL     1       2.886   5.931  18.077  0.00  0.00    +0.000 NA
ATOM     16  H   UNL     1       1.459   8.209  19.966  0.00  0.00    +0.000 HD
BRANCH  13  17
ATOM     17  C   UNL     1       2.647   3.027  20.243  0.00  0.00    +0.000 C 
ATOM     18  C   UNL     1       4.088   2.505  20.106  0.00  0.00    +0.000 C 
ATOM     19  C   UNL     1       2.260   3.009  21.734  0.00  0.00    +0.000 C 
ATOM     20  C   UNL     1       1.706   2.085  19.470  0.00  0.00    +0.000 C 
ENDBRANCH  13  17
ENDBRANCH   5   8
BRANCH   7  21
ATOM     21  N   UNL     1      -1.238  12.130  19.445  0.00  0.00    +0.000 N 
ATOM     22  C   UNL     1      -1.547  12.620  20.691  0.00  0.00    +0.000 A 
ATOM     23  C   UNL     1      -2.921  12.697  20.704  0.00  0.00    +0.000 A 
ATOM     24  N   UNL     1      -3.413  12.221  19.528  0.00  0.00    +0.000 NA
ATOM     25  N   UNL     1      -2.382  11.906  18.757  0.00  0.00    +0.000 NA
BRANCH  23  26
ATOM     26  C   UNL     1      -3.725  13.203  21.785  0.00  0.00    +0.000 A 
ATOM     27  C   UNL     1      -5.026  12.769  21.978  0.00  0.00    +0.000 A 
ATOM     28  N   UNL     1      -5.802  13.180  23.003  0.00  0.00    +0.000 NA
ATOM     29  C   UNL     1      -5.249  14.084  23.856  0.00  0.00    +0.000 A 
ATOM     30  C   UNL     1      -3.963  14.631  23.762  0.00  0.00    +0.000 A 
ATOM     31  C   UNL     1      -3.215  14.152  22.683  0.00  0.00    +0.000 A 
BRANCH  30  32
ATOM     32  N   UNL     1      -3.457  15.563  24.634  0.00  0.00    +0.000 N 
ATOM     33  C   UNL     1      -4.087  16.839  24.943  0.00  0.00    +0.000 C 
ATOM     34  C   UNL     1      -2.897  17.729  25.275  0.00  0.00    +0.000 C 
ATOM     35  C   UNL     1      -1.945  16.788  25.995  0.00  0.00    +0.000 C 
ATOM     36  C   UNL     1      -2.175  15.431  25.329  0.00  0.00    +0.000 C 
ENDBRANCH  30  32
ENDBRANCH  23  26
ENDBRANCH   7  21
TORSDOF 5
ENDMDL
MODEL 4
REMARK VINA RESULT:      -8.1      3.290      9.661
REMARK  Name = 
REMARK  9 active torsions:
REMARK  status: ('A' for Active; 'I' for Inactive)
REMARK    1  A    between atoms: C_1  and  C_2
REMARK    2  A    between atoms: C_5  and  C_6
REMARK    3  A    between atoms: C_11  and  C_12
REMARK    4  A    between atoms: C_12  and  C_13
REMARK    5  A    between atoms: C_12  and  C_14
REMARK    6  A    between atoms: C_12  and  C_15
REMARK    7  A    between atoms: C_19  and  N_20
REMARK    8  A    between atoms: C_22  and  C_23
REMARK    9  A    between atoms: C_27  and  N_28
REMARK                            x       y       z     vdW  Elec       q    Type
REMARK                         _______ _______ _______ _____ _____    ______ ____
ROOT
ATOM      1  C   UNL     1      -0.633  14.187  22.121  0.00  0.00    +0.000 C 
ATOM      2  C   UNL     1      -0.217  12.758  21.877  0.00  0.00    +0.000 A 
ATOM      3  C   UNL     1      -0.887  11.758  22.598  0.00  0.00    +0.000 A 
ATOM      4  C   UNL     1      -0.617  10.410  22.372  0.00  0.00    +0.000 A 
ATOM      5  C   UNL     1       0.327  10.016  21.418  0.00  0.00    +0.000 A 
ATOM      6  C   UNL     1       0.997  10.995  20.672  0.00  0.00    +0.000 A 
ATOM      7  C   UNL     1       0.744  12.367  20.913  0.00  0.00    +0.000 A 
ENDROOT
BRANCH   5   8
ATOM      8  C   UNL     1       0.519   8.552  21.221  0.00  0.00    +0.000 C 
ATOM      9  O   UNL     1      -0.265   7.812  21.810  0.00  0.00    +0.000 OA
ATOM     10  N   UNL     1       1.580   8.159  20.428  0.00  0.00    +0.000 N 
ATOM     11  C   UNL     1       1.929   6.829  20.231  0.00  0.00    +0.000 A 
ATOM     12  C   UNL     1       3.027   6.395  19.446  0.00  0.00    +0.000 A 
ATOM     13  C   UNL     1       3.004   5.018  19.522  0.00  0.00    +0.000 A 
ATOM     14  O   UNL     1       1.961   4.655  20.316  0.00  0.00    +0.000 OA
ATOM     15  N   UNL     1       1.295   5.774  20.750  0.00  0.00    +0.000 NA
ATOM     16  H   UNL     1       2.200   8.849  20.027  0.00  0.00    +0.000 HD
BRANCH  13  17
ATOM     17  C   UNL     1       3.818   3.896  18.938  0.00  0.00    +0.000 C 
ATOM     18  C   UNL     1       3.817   2.679  19.880  0.00  0.00    +0.000 C 
ATOM     19  C   UNL     1       3.237   3.463  17.578  0.00  0.00    +0.000 C 
ATOM     20  C   UNL     1       5.272   4.360  18.736  0.00  0.00    +0.000 C 
ENDBRANCH  13  17
ENDBRANCH   5   8
BRANCH   7  21
ATOM     21  N   UNL     1       1.460  13.335  20.159  0.00  0.00    +0.000 N 
ATOM     22  C   UNL     1       2.668  13.912  20.466  0.00  0.00    +0.000 A 
ATOM     23  C   UNL     1       2.906  14.792  19.435  0.00  0.00    +0.000 A 
ATOM     24  N   UNL     1       1.853  14.776  18.574  0.00  0.00    +0.000 NA
ATOM     25  N   UNL     1       0.991  13.866  19.006  0.00  0.00    +0.000 NA
BRANCH  23  26
ATOM     26  C   UNL     1       4.083  15.606  19.278  0.00  0.00    +0.000 A 
ATOM     27  C   UNL     1       4.072  16.954  19.593  0.00  0.00    +0.000 A 
ATOM     28  N   UNL     1       5.161  17.746  19.505  0.00  0.00    +0.000 NA
ATOM     29  C   UNL     1       6.304  17.157  19.060  0.00  0.00    +0.000 A 
ATOM     30  C   UNL     1       6.449  15.818  18.677  0.00  0.00    +0.000 A 
ATOM     31  C   UNL     1       5.283  15.057  18.803  0.00  0.00    +0.000 A 
BRANCH  30  32
ATOM     32  N   UNL     1       7.619  15.273  18.207  0.00  0.00    +0.000 N 
ATOM     33  C   UNL     1       7.816  13.862  17.909  0.00  0.00    +0.000 C 
ATOM     34  C   UNL     1       9.304  13.668  18.171  0.00  0.00    +0.000 C 
ATOM     35  C   UNL     1       9.916  14.973  17.689  0.00  0.00    +0.000 C 
ATOM     36  C   UNL     1       8.854  16.029  17.998  0.00  0.00    +0.000 C 
ENDBRANCH  30  32
ENDBRANCH  23  26
ENDBRANCH   7  21
TORSDOF 5
ENDMDL
MODEL 5
REMARK VINA RESULT:      -7.9      4.816      7.156
REMARK  Name = 
REMARK  9 active torsions:
REMARK  status: ('A' for Active; 'I' for Inactive)
REMARK    1  A    between atoms: C_1  and  C_2
REMARK    2  A    between atoms: C_5  and  C_6
REMARK    3  A    between atoms: C_11  and  C_12
REMARK    4  A    between atoms: C_12  and  C_13
REMARK    5  A    between atoms: C_12  and  C_14
REMARK    6  A    between atoms: C_12  and  C_15
REMARK    7  A    between atoms: C_19  and  N_20
REMARK    8  A    between atoms: C_22  and  C_23
REMARK    9  A    between atoms: C_27  and  N_28
REMARK                            x       y       z     vdW  Elec       q    Type
REMARK                         _______ _______ _______ _____ _____    ______ ____
ROOT
ATOM      1  C   UNL     1       1.997   9.528  17.735  0.00  0.00    +0.000 C 
ATOM      2  C   UNL     1       1.217  10.069  18.907  0.00  0.00    +0.000 A 
ATOM      3  C   UNL     1       0.734  11.384  18.811  0.00  0.00    +0.000 A 
ATOM      4  C   UNL     1      -0.062  11.929  19.815  0.00  0.00    +0.000 A 
ATOM      5  C   UNL     1      -0.406  11.181  20.946  0.00  0.00    +0.000 A 
ATOM      6  C   UNL     1       0.049   9.860  21.058  0.00  0.00    +0.000 A 
ATOM      7  C   UNL     1       0.878   9.308  20.051  0.00  0.00    +0.000 A 
ENDROOT
BRANCH   5   8
ATOM      8  C   UNL     1      -1.292  11.837  21.947  0.00  0.00    +0.000 C 
ATOM      9  O   UNL     1      -0.912  11.813  23.116  0.00  0.00    +0.000 OA
ATOM     10  N   UNL     1      -2.474  12.379  21.480  0.00  0.00    +0.000 N 
ATOM     11  C   UNL     1      -3.433  12.941  22.313  0.00  0.00    +0.000 A 
ATOM     12  C   UNL     1      -4.666  13.481  21.868  0.00  0.00    +0.000 A 
ATOM     13  C   UNL     1      -5.300  13.926  23.009  0.00  0.00    +0.000 A 
ATOM     14  O   UNL     1      -4.496  13.655  24.073  0.00  0.00    +0.000 OA
ATOM     15  N   UNL     1      -3.341  13.051  23.641  0.00  0.00    +0.000 NA
ATOM     16  H   UNL     1      -2.718  12.304  20.502  0.00  0.00    +0.000 HD
BRANCH  13  17
ATOM     17  C   UNL     1      -6.598  14.621  23.316  0.00  0.00    +0.000 C 
ATOM     18  C   UNL     1      -7.494  13.731  24.196  0.00  0.00    +0.000 C 
ATOM     19  C   UNL     1      -6.335  15.942  24.063  0.00  0.00    +0.000 C 
ATOM     20  C   UNL     1      -7.345  14.927  22.005  0.00  0.00    +0.000 C 
ENDBRANCH  13  17
ENDBRANCH   5   8
BRANCH   7  21
ATOM     21  N   UNL     1       1.344   7.976  20.208  0.00  0.00    +0.000 N 
ATOM     22  C   UNL     1       2.206   7.286  19.390  0.00  0.00    +0.000 A 
ATOM     23  C   UNL     1       2.312   6.041  19.966  0.00  0.00    +0.000 A 
ATOM     24  N   UNL     1       1.502   5.975  21.057  0.00  0.00    +0.000 NA
ATOM     25  N   UNL     1       0.940   7.166  21.214  0.00  0.00    +0.000 NA
BRANCH  23  26
ATOM     26  C   UNL     1       3.149   4.966  19.499  0.00  0.00    +0.000 A 
ATOM     27  C   UNL     1       3.122   3.720  20.103  0.00  0.00    +0.000 A 
ATOM     28  N   UNL     1       3.853   2.670  19.673  0.00  0.00    +0.000 NA
ATOM     29  C   UNL     1       4.662   2.894  18.602  0.00  0.00    +0.000 A 
ATOM     30  C   UNL     1       4.812   4.107  17.918  0.00  0.00    +0.000 A 
ATOM     31  C   UNL     1       4.018   5.146  18.412  0.00  0.00    +0.000 A 
BRANCH  30  32
ATOM     32  N   UNL     1       5.663   4.294  16.856  0.00  0.00    +0.000 N 
ATOM     33  C   UNL     1       7.072   4.641  16.974  0.00  0.00    +0.000 C 
ATOM     34  C   UNL     1       7.330   5.429  15.696  0.00  0.00    +0.000 C 
ATOM     35  C   UNL     1       6.473   4.715  14.664  0.00  0.00    +0.000 C 
ATOM     36  C   UNL     1       5.255   4.229  15.452  0.00  0.00    +0.000 C 
ENDBRANCH  30  32
ENDBRANCH  23  26
ENDBRANCH   7  21
TORSDOF 5
ENDMDL
MODEL 6
REMARK VINA RESULT:      -7.9      3.097      9.187
REMARK  Name = 
REMARK  9 active torsions:
REMARK  status: ('A' for Active; 'I' for Inactive)
REMARK    1  A    between atoms: C_1  and  C_2
REMARK    2  A    between atoms: C_5  and  C_6
REMARK    3  A    between atoms: C_11  and  C_12
REMARK    4  A    between atoms: C_12  and  C_13
REMARK    5  A    between atoms: C_12  and  C_14
REMARK    6  A    between atoms: C_12  and  C_15
REMARK    7  A    between atoms: C_19  and  N_20
REMARK    8  A    between atoms: C_22  and  C_23
REMARK    9  A    between atoms: C_27  and  N_28
REMARK                            x       y       z     vdW  Elec       q    Type
REMARK                         _______ _______ _______ _____ _____    ______ ____
ROOT
ATOM      1  C   UNL     1      -0.747  14.991  19.220  0.00  0.00    +0.000 C 
ATOM      2  C   UNL     1      -0.196  13.599  19.408  0.00  0.00    +0.000 A 
ATOM      3  C   UNL     1      -1.108  12.581  19.729  0.00  0.00    +0.000 A 
ATOM      4  C   UNL     1      -0.691  11.257  19.840  0.00  0.00    +0.000 A 
ATOM      5  C   UNL     1       0.646  10.904  19.632  0.00  0.00    +0.000 A 
ATOM      6  C   UNL     1       1.573  11.899  19.293  0.00  0.00    +0.000 A 
ATOM      7  C   UNL     1       1.160  13.250  19.201  0.00  0.00    +0.000 A 
ENDROOT
BRANCH   5   8
ATOM      8  C   UNL     1       0.988   9.458  19.736  0.00  0.00    +0.000 C 
ATOM      9  O   UNL     1       0.494   8.843  20.678  0.00  0.00    +0.000 OA
ATOM     10  N   UNL     1       1.856   8.948  18.789  0.00  0.00    +0.000 N 
ATOM     11  C   UNL     1       2.329   7.642  18.818  0.00  0.00    +0.000 A 
ATOM     12  C   UNL     1       3.241   7.098  17.878  0.00  0.00    +0.000 A 
ATOM     13  C   UNL     1       3.434   5.792  18.276  0.00  0.00    +0.000 A 
ATOM     14  O   UNL     1       2.691   5.575  19.395  0.00  0.00    +0.000 OA
ATOM     15  N   UNL     1       2.005   6.718  19.726  0.00  0.00    +0.000 NA
ATOM     16  H   UNL     1       2.248   9.551  18.080  0.00  0.00    +0.000 HD
BRANCH  13  17
ATOM     17  C   UNL     1       4.223   4.618  17.764  0.00  0.00    +0.000 C 
ATOM     18  C   UNL     1       5.347   4.250  18.748  0.00  0.00    +0.000 C 
ATOM     19  C   UNL     1       3.307   3.392  17.586  0.00  0.00    +0.000 C 
ATOM     20  C   UNL     1       4.855   4.971  16.405  0.00  0.00    +0.000 C 
ENDBRANCH  13  17
ENDBRANCH   5   8
BRANCH   7  21
ATOM     21  N   UNL     1       2.129  14.239  18.882  0.00  0.00    +0.000 N 
ATOM     22  C   UNL     1       3.494  14.147  19.009  0.00  0.00    +0.000 A 
ATOM     23  C   UNL     1       3.965  15.372  18.594  0.00  0.00    +0.000 A 
ATOM     24  N   UNL     1       2.916  16.179  18.281  0.00  0.00    +0.000 NA
ATOM     25  N   UNL     1       1.804  15.472  18.431  0.00  0.00    +0.000 NA
BRANCH  23  26
ATOM     26  C   UNL     1       5.351  15.752  18.497  0.00  0.00    +0.000 A 
ATOM     27  C   UNL     1       5.758  17.050  18.750  0.00  0.00    +0.000 A 
ATOM     28  N   UNL     1       7.050  17.443  18.716  0.00  0.00    +0.000 NA
ATOM     29  C   UNL     1       7.964  16.489  18.392  0.00  0.00    +0.000 A 
ATOM     30  C   UNL     1       7.689  15.152  18.083  0.00  0.00    +0.000 A 
ATOM     31  C   UNL     1       6.334  14.815  18.147  0.00  0.00    +0.000 A 
BRANCH  30  32
ATOM     32  N   UNL     1       8.645  14.229  17.735  0.00  0.00    +0.000 N 
ATOM     33  C   UNL     1       8.408  12.799  17.598  0.00  0.00    +0.000 C 
ATOM     34  C   UNL     1       9.762  12.199  17.956  0.00  0.00    +0.000 C 
ATOM     35  C   UNL     1      10.751  13.194  17.372  0.00  0.00    +0.000 C 
ATOM     36  C   UNL     1      10.056  14.549  17.511  0.00  0.00    +0.000 C 
ENDBRANCH  30  32
ENDBRANCH  23  26
ENDBRANCH   7  21
TORSDOF 5
ENDMDL
MODEL 7
REMARK VINA RESULT:      -7.8      3.850      7.444
REMARK  Name = 
REMARK  9 active torsions:
REMARK  status: ('A' for Active; 'I' for Inactive)
REMARK    1  A    between atoms: C_1  and  C_2
REMARK    2  A    between atoms: C_5  and  C_6
REMARK    3  A    between atoms: C_11  and  C_12
REMARK    4  A    between atoms: C_12  and  C_13
REMARK    5  A    between atoms: C_12  and  C_14
REMARK    6  A    between atoms: C_12  and  C_15
REMARK    7  A    between atoms: C_19  and  N_20
REMARK    8  A    between atoms: C_22  and  C_23
REMARK    9  A    between atoms: C_27  and  N_28
REMARK                            x       y       z     vdW  Elec       q    Type
REMARK                         _______ _______ _______ _____ _____    ______ ____
ROOT
ATOM      1  C   UNL     1       3.399   2.275  19.444  0.00  0.00    +0.000 C 
ATOM      2  C   UNL     1       2.893   3.678  19.672  0.00  0.00    +0.000 A 
ATOM      3  C   UNL     1       1.751   3.830  20.475  0.00  0.00    +0.000 A 
ATOM      4  C   UNL     1       1.268   5.096  20.798  0.00  0.00    +0.000 A 
ATOM      5  C   UNL     1       1.909   6.250  20.335  0.00  0.00    +0.000 A 
ATOM      6  C   UNL     1       3.061   6.124  19.547  0.00  0.00    +0.000 A 
ATOM      7  C   UNL     1       3.544   4.840  19.196  0.00  0.00    +0.000 A 
ENDROOT
BRANCH   5   8
ATOM      8  C   UNL     1       1.340   7.558  20.764  0.00  0.00    +0.000 C 
ATOM      9  O   UNL     1       0.739   7.569  21.836  0.00  0.00    +0.000 OA
ATOM     10  N   UNL     1       1.508   8.628  19.907  0.00  0.00    +0.000 N 
ATOM     11  C   UNL     1       0.955   9.881  20.138  0.00  0.00    +0.000 A 
ATOM     12  C   UNL     1       1.086  10.990  19.265  0.00  0.00    +0.000 A 
ATOM     13  C   UNL     1       0.394  12.015  19.875  0.00  0.00    +0.000 A 
ATOM     14  O   UNL     1      -0.130  11.540  21.037  0.00  0.00    +0.000 OA
ATOM     15  N   UNL     1       0.222  10.222  21.201  0.00  0.00    +0.000 NA
ATOM     16  H   UNL     1       1.979   8.503  19.021  0.00  0.00    +0.000 HD
BRANCH  13  17
ATOM     17  C   UNL     1       0.122  13.462  19.566  0.00  0.00    +0.000 C 
ATOM     18  C   UNL     1      -0.381  13.622  18.121  0.00  0.00    +0.000 C 
ATOM     19  C   UNL     1      -0.947  14.023  20.522  0.00  0.00    +0.000 C 
ATOM     20  C   UNL     1       1.418  14.278  19.729  0.00  0.00    +0.000 C 
ENDBRANCH  13  17
ENDBRANCH   5   8
BRANCH   7  21
ATOM     21  N   UNL     1       4.697   4.748  18.373  0.00  0.00    +0.000 N 
ATOM     22  C   UNL     1       4.768   4.885  17.007  0.00  0.00    +0.000 A 
ATOM     23  C   UNL     1       6.095   4.682  16.705  0.00  0.00    +0.000 A 
ATOM     24  N   UNL     1       6.779   4.383  17.843  0.00  0.00    +0.000 NA
ATOM     25  N   UNL     1       5.927   4.454  18.856  0.00  0.00    +0.000 NA
BRANCH  23  26
ATOM     26  C   UNL     1       6.683   4.772  15.393  0.00  0.00    +0.000 A 
ATOM     27  C   UNL     1       7.640   5.729  15.100  0.00  0.00    +0.000 A 
ATOM     28  N   UNL     1       8.251   5.823  13.900  0.00  0.00    +0.000 NA
ATOM     29  C   UNL     1       7.864   4.928  12.951  0.00  0.00    +0.000 A 
ATOM     30  C   UNL     1       6.890   3.934  13.101  0.00  0.00    +0.000 A 
ATOM     31  C   UNL     1       6.307   3.890  14.371  0.00  0.00    +0.000 A 
BRANCH  30  32
ATOM     32  N   UNL     1       6.512   3.068  12.104  0.00  0.00    +0.000 N 
ATOM     33  C   UNL     1       5.142   2.871  11.651  0.00  0.00    +0.000 C 
ATOM     34  C   UNL     1       5.151   1.424  11.176  0.00  0.00    +0.000 C 
ATOM     35  C   UNL     1       6.530   1.267  10.556  0.00  0.00    +0.000 C 
ATOM     36  C   UNL     1       7.430   2.174  11.396  0.00  0.00    +0.000 C 
ENDBRANCH  30  32
ENDBRANCH  23  26
ENDBRANCH   7  21
TORSDOF 5
ENDMDL
MODEL 8
REMARK VINA RESULT:      -7.8      2.736      5.316
REMARK  Name = 
REMARK  9 active torsions:
REMARK  status: ('A' for Active; 'I' for Inactive)
REMARK    1  A    between atoms: C_1  and  C_2
REMARK    2  A    between atoms: C_5  and  C_6
REMARK    3  A    between atoms: C_11  and  C_12
REMARK    4  A    between atoms: C_12  and  C_13
REMARK    5  A    between atoms: C_12  and  C_14
REMARK    6  A    between atoms: C_12  and  C_15
REMARK    7  A    between atoms: C_19  and  N_20
REMARK    8  A    between atoms: C_22  and  C_23
REMARK    9  A    between atoms: C_27  and  N_28
REMARK                            x       y       z     vdW  Elec       q    Type
REMARK                         _______ _______ _______ _____ _____    ______ ____
ROOT
ATOM      1  C   UNL     1       2.204   5.174  21.146  0.00  0.00    +0.000 C 
ATOM      2  C   UNL     1       1.819   6.501  20.541  0.00  0.00    +0.000 A 
ATOM      3  C   UNL     1       1.081   7.386  21.342  0.00  0.00    +0.000 A 
ATOM      4  C   UNL     1       0.755   8.661  20.886  0.00  0.00    +0.000 A 
ATOM      5  C   UNL     1       1.157   9.096  19.618  0.00  0.00    +0.000 A 
ATOM      6  C   UNL     1       1.911   8.237  18.806  0.00  0.00    +0.000 A 
ATOM      7  C   UNL     1       2.225   6.932  19.255  0.00  0.00    +0.000 A 
ENDROOT
BRANCH   5   8
ATOM      8  C   UNL     1       0.794  10.489  19.234  0.00  0.00    +0.000 C 
ATOM      9  O   UNL     1      -0.273  10.634  18.643  0.00  0.00    +0.000 OA
ATOM     10  N   UNL     1       1.702  11.483  19.544  0.00  0.00    +0.000 N 
ATOM     11  C   UNL     1       1.534  12.810  19.167  0.00  0.00    +0.000 A 
ATOM     12  C   UNL     1       2.460  13.846  19.445  0.00  0.00    +0.000 A 
ATOM     13  C   UNL     1       1.903  14.984  18.901  0.00  0.00    +0.000 A 
ATOM     14  O   UNL     1       0.721  14.642  18.321  0.00  0.00    +0.000 OA
ATOM     15  N   UNL     1       0.492  13.299  18.490  0.00  0.00    +0.000 NA
ATOM     16  H   UNL     1       2.579  11.252  19.991  0.00  0.00    +0.000 HD
BRANCH  13  17
ATOM     17  C   UNL     1       2.283  16.438  18.829  0.00  0.00    +0.000 C 
ATOM     18  C   UNL     1       3.085  16.851  20.076  0.00  0.00    +0.000 C 
ATOM     19  C   UNL     1       3.147  16.705  17.581  0.00  0.00    +0.000 C 
ATOM     20  C   UNL     1       1.012  17.303  18.752  0.00  0.00    +0.000 C 
ENDBRANCH  13  17
ENDBRANCH   5   8
BRANCH   7  21
ATOM     21  N   UNL     1       2.967   6.077  18.397  0.00  0.00    +0.000 N 
ATOM     22  C   UNL     1       3.934   6.433  17.489  0.00  0.00    +0.000 A 
ATOM     23  C   UNL     1       4.315   5.248  16.903  0.00  0.00    +0.000 A 
ATOM     24  N   UNL     1       3.564   4.231  17.407  0.00  0.00    +0.000 NA
ATOM     25  N   UNL     1       2.767   4.740  18.336  0.00  0.00    +0.000 NA
BRANCH  23  26
ATOM     26  C   UNL     1       5.349   5.093  15.912  0.00  0.00    +0.000 A 
ATOM     27  C   UNL     1       6.607   5.639  16.096  0.00  0.00    +0.000 A 
ATOM     28  N   UNL     1       7.621   5.482  15.218  0.00  0.00    +0.000 NA
ATOM     29  C   UNL     1       7.344   4.761  14.097  0.00  0.00    +0.000 A 
ATOM     30  C   UNL     1       6.112   4.182  13.770  0.00  0.00    +0.000 A 
ATOM     31  C   UNL     1       5.114   4.378  14.729  0.00  0.00    +0.000 A 
BRANCH  30  32
ATOM     32  N   UNL     1       5.871   3.485  12.611  0.00  0.00    +0.000 N 
ATOM     33  C   UNL     1       4.725   3.696  11.738  0.00  0.00    +0.000 C 
ATOM     34  C   UNL     1       4.513   2.318  11.124  0.00  0.00    +0.000 C 
ATOM     35  C   UNL     1       5.928   1.792  10.947  0.00  0.00    +0.000 C 
ATOM     36  C   UNL     1       6.705   2.385  12.123  0.00  0.00    +0.000 C 
ENDBRANCH  30  32
ENDBRANCH  23  26
ENDBRANCH   7  21
TORSDOF 5
ENDMDL
MODEL 9
REMARK VINA RESULT:      -7.7      2.977     10.107
REMARK  Name = 
REMARK  9 active torsions:
REMARK  status: ('A' for Active; 'I' for Inactive)
REMARK    1  A    between atoms: C_1  and  C_2
REMARK    2  A    between atoms: C_5  and  C_6
REMARK    3  A    between atoms: C_11  and  C_12
REMARK    4  A    between atoms: C_12  and  C_13
REMARK    5  A    between atoms: C_12  and  C_14
REMARK    6  A    between atoms: C_12  and  C_15
REMARK    7  A    between atoms: C_19  and  N_20
REMARK    8  A    between atoms: C_22  and  C_23
REMARK    9  A    between atoms: C_27  and  N_28
REMARK                            x       y       z     vdW  Elec       q    Type
REMARK                         _______ _______ _______ _____ _____    ______ ____
ROOT
ATOM      1  C   UNL     1      -0.263  14.416  19.168  0.00  0.00    +0.000 C 
ATOM      2  C   UNL     1       0.407  13.077  18.986  0.00  0.00    +0.000 A 
ATOM      3  C   UNL     1      -0.389  11.930  19.136  0.00  0.00    +0.000 A 
ATOM      4  C   UNL     1       0.135  10.660  18.907  0.00  0.00    +0.000 A 
ATOM      5  C   UNL     1       1.468  10.492  18.516  0.00  0.00    +0.000 A 
ATOM      6  C   UNL     1       2.278  11.623  18.341  0.00  0.00    +0.000 A 
ATOM      7  C   UNL     1       1.758  12.915  18.596  0.00  0.00    +0.000 A 
ENDROOT
BRANCH   5   8
ATOM      8  C   UNL     1       1.926   9.099  18.257  0.00  0.00    +0.000 C 
ATOM      9  O   UNL     1       2.325   8.855  17.121  0.00  0.00    +0.000 OA
ATOM     10  N   UNL     1       1.828   8.201  19.302  0.00  0.00    +0.000 N 
ATOM     11  C   UNL     1       2.136   6.852  19.176  0.00  0.00    +0.000 A 
ATOM     12  C   UNL     1       2.019   5.901  20.221  0.00  0.00    +0.000 A 
ATOM     13  C   UNL     1       2.424   4.705  19.669  0.00  0.00    +0.000 A 
ATOM     14  O   UNL     1       2.749   4.928  18.367  0.00  0.00    +0.000 OA
ATOM     15  N   UNL     1       2.575   6.256  18.065  0.00  0.00    +0.000 NA
ATOM     16  H   UNL     1       1.439   8.491  20.189  0.00  0.00    +0.000 HD
BRANCH  13  17
ATOM     17  C   UNL     1       2.593   3.294  20.164  0.00  0.00    +0.000 C 
ATOM     18  C   UNL     1       2.205   3.192  21.650  0.00  0.00    +0.000 C 
ATOM     19  C   UNL     1       1.700   2.332  19.358  0.00  0.00    +0.000 C 
ATOM     20  C   UNL     1       4.062   2.863  20.008  0.00  0.00    +0.000 C 
ENDBRANCH  13  17
ENDBRANCH   5   8
BRANCH   7  21
ATOM     21  N   UNL     1       2.613  14.037  18.436  0.00  0.00    +0.000 N 
ATOM     22  C   UNL     1       3.794  14.292  19.089  0.00  0.00    +0.000 A 
ATOM     23  C   UNL     1       4.210  15.508  18.596  0.00  0.00    +0.000 A 
ATOM     24  N   UNL     1       3.283  15.983  17.721  0.00  0.00    +0.000 NA
ATOM     25  N   UNL     1       2.329  15.069  17.607  0.00  0.00    +0.000 NA
BRANCH  23  26
ATOM     26  C   UNL     1       5.434  16.182  18.942  0.00  0.00    +0.000 A 
ATOM     27  C   UNL     1       5.423  17.437  19.527  0.00  0.00    +0.000 A 
ATOM     28  N   UNL     1       6.541  18.088  19.909  0.00  0.00    +0.000 NA
ATOM     29  C   UNL     1       7.722  17.455  19.671  0.00  0.00    +0.000 A 
ATOM     30  C   UNL     1       7.881  16.205  19.060  0.00  0.00    +0.000 A 
ATOM     31  C   UNL     1       6.681  15.586  18.700  0.00  0.00    +0.000 A 
BRANCH  30  32
ATOM     32  N   UNL     1       9.098  15.616  18.815  0.00  0.00    +0.000 N 
ATOM     33  C   UNL     1      10.380  16.148  19.254  0.00  0.00    +0.000 C 
ATOM     34  C   UNL     1      11.336  15.643  18.181  0.00  0.00    +0.000 C 
ATOM     35  C   UNL     1      10.792  14.264  17.846  0.00  0.00    +0.000 C 
ATOM     36  C   UNL     1       9.279  14.399  18.022  0.00  0.00    +0.000 C 
ENDBRANCH  30  32
ENDBRANCH  23  26
ENDBRANCH   7  21
TORSDOF 5
ENDMDL
