MODEL 1
REMARK VINA RESULT:      -8.9      0.000      0.000
REMARK  Name = 
REMARK  10 active torsions:
REMARK  status: ('A' for Active; 'I' for Inactive)
REMARK    1  A    between atoms: C_1  and  O_2
REMARK    2  A    between atoms: O_2  and  C_3
REMARK    3  A    between atoms: C_6  and  C_7
REMARK    4  A    between atoms: C_7  and  C_8
REMARK    5  A    between atoms: C_7  and  N_9
REMARK    6  A    between atoms: C_10  and  C_12
REMARK    7  A    between atoms: C_19  and  C_20
REMARK    8  A    between atoms: N_26  and  C_27
REMARK    9  A    between atoms: C_34  and  O_35
REMARK   10  A    between atoms: O_35  and  C_36
REMARK                            x       y       z     vdW  Elec       q    Type
REMARK                         _______ _______ _______ _____ _____    ______ ____
ROOT
ATOM      1  C   UNL     1       1.870   7.449  19.813  0.00  0.00    +0.000 A 
ATOM      2  C   UNL     1       2.113   8.141  18.624  0.00  0.00    +0.000 A 
ATOM      3  C   UNL     1       1.817   9.513  18.525  0.00  0.00    +0.000 A 
ATOM      4  C   UNL     1       1.269  10.123  19.672  0.00  0.00    +0.000 A 
ATOM      5  C   UNL     1       1.158   9.443  20.870  0.00  0.00    +0.000 A 
ATOM      6  C   UNL     1       1.419   8.082  20.963  0.00  0.00    +0.000 A 
ATOM      7  N   UNL     1       0.739  10.257  21.850  0.00  0.00    +0.000 NA
ATOM      8  C   UNL     1       0.309  11.379  21.297  0.00  0.00    +0.000 A 
ATOM      9  N   UNL     1       0.574  11.327  19.881  0.00  0.00    +0.000 N 
ENDROOT
BRANCH   8  10
ATOM     10  C   UNL     1      -0.531  12.231  22.171  0.00  0.00    +0.000 A 
ATOM     11  C   UNL     1      -1.668  11.626  22.749  0.00  0.00    +0.000 A 
ATOM     12  C   UNL     1      -2.570  12.373  23.500  0.00  0.00    +0.000 A 
ATOM     13  C   UNL     1      -2.288  13.709  23.708  0.00  0.00    +0.000 A 
ATOM     14  C   UNL     1      -1.101  14.221  23.184  0.00  0.00    +0.000 A 
ATOM     15  N   UNL     1      -0.202  13.517  22.429  0.00  0.00    +0.000 NA
ENDBRANCH   8  10
BRANCH   9  16
ATOM     16  C   UNL     1       0.026  12.034  18.714  0.00  0.00    +0.000 C 
ATOM     17  C   UNL     1      -0.729  11.119  17.706  0.00  0.00    +0.000 C 
ATOM     18  C   UNL     1      -1.805  10.327  18.419  0.00  0.00    +0.000 C 
ATOM     19  C   UNL     1      -2.601  11.184  19.401  0.00  0.00    +0.000 C 
ATOM     20  C   UNL     1      -2.268  12.685  19.502  0.00  0.00    +0.000 C 
ATOM     21  C   UNL     1      -0.933  13.179  18.948  0.00  0.00    +0.000 C 
ENDBRANCH   9  16
BRANCH   1  23
ATOM     22  N   UNL     1       2.566   5.438  18.791  0.00  0.00    +0.000 N 
ATOM     23  C   UNL     1       2.111   6.009  19.942  0.00  0.00    +0.000 C 
ATOM     24  O   UNL     1       1.995   5.446  21.020  0.00  0.00    +0.000 OA
ATOM     25  H   UNL     1       2.714   6.015  17.971  0.00  0.00    +0.000 HD
BRANCH  22  26
ATOM     26  C   UNL     1       3.020   4.065  18.760  0.00  0.00    +0.000 C 
ATOM     27  C   UNL     1       1.840   3.183  18.371  0.00  0.00    +0.000 C 
BRANCH  26  31
ATOM     28  C   UNL     1       6.525   4.458  16.258  0.00  0.00    +0.000 A 
ATOM     29  C   UNL     1       5.289   4.111  15.687  0.00  0.00    +0.000 A 
ATOM     30  C   UNL     1       4.151   3.926  16.474  0.00  0.00    +0.000 A 
ATOM     31  C   UNL     1       4.237   4.022  17.861  0.00  0.00    +0.000 A 
ATOM     32  C   UNL     1       5.501   4.249  18.433  0.00  0.00    +0.000 A 
ATOM     33  C   UNL     1       6.645   4.476  17.654  0.00  0.00    +0.000 A 
BRANCH  28  35
ATOM     34  C   UNL     1       7.315   5.054  14.108  0.00  0.00    +0.000 C 
ATOM     35  O   UNL     1       7.607   4.761  15.476  0.00  0.00    +0.000 OA
ENDBRANCH  28  35
BRANCH  33  36
ATOM     36  O   UNL     1       7.750   4.707  18.427  0.00  0.00    +0.000 OA
ATOM     37  C   UNL     1       7.762   5.823  19.301  0.00  0.00    +0.000 C 
ENDBRANCH  33  36
ENDBRANCH  26  31
ENDBRANCH  22  26
ENDBRANCH   1  23
TORSDOF 7
ENDMDL
MODEL 2
REMARK VINA RESULT:      -8.9      1.315      1.922
REMARK  Name = 
REMARK  10 active torsions:
REMARK  status: ('A' for Active; 'I' for Inactive)
REMARK    1  A    between atoms: C_1  and  O_2
REMARK    2  A    between atoms: O_2  and  C_3
REMARK    3  A    between atoms: C_6  and  C_7
REMARK    4  A    between atoms: C_7  and  C_8
REMARK    5  A    between atoms: C_7  and  N_9
REMARK    6  A    between atoms: C_10  and  C_12
REMARK    7  A    between atoms: C_19  and  C_20
REMARK    8  A    between atoms: N_26  and  C_27
REMARK    9  A    between atoms: C_34  and  O_35
REMARK   10  A    between atoms: O_35  and  C_36
REMARK                            x       y       z     vdW  Elec       q    Type
REMARK                         _______ _______ _______ _____ _____    ______ ____
ROOT
ATOM      1  C   UNL     1       1.697   7.956  19.761  0.00  0.00    +0.000 A 
ATOM      2  C   UNL     1       1.978   8.773  18.662  0.00  0.00    +0.000 A 
ATOM      3  C   UNL     1       1.659  10.144  18.695  0.00  0.00    +0.000 A 
ATOM      4  C   UNL     1       1.049  10.621  19.872  0.00  0.00    +0.000 A 
ATOM      5  C   UNL     1       0.901   9.817  20.987  0.00  0.00    +0.000 A 
ATOM      6  C   UNL     1       1.185   8.458  20.949  0.00  0.00    +0.000 A 
ATOM      7  N   UNL     1       0.423  10.517  22.027  0.00  0.00    +0.000 NA
ATOM      8  C   UNL     1      -0.005  11.684  21.576  0.00  0.00    +0.000 A 
ATOM      9  N   UNL     1       0.322  11.785  20.175  0.00  0.00    +0.000 N 
ENDROOT
BRANCH   8  10
ATOM     10  C   UNL     1      -0.899  12.426  22.495  0.00  0.00    +0.000 A 
ATOM     11  C   UNL     1      -2.236  11.981  22.581  0.00  0.00    +0.000 A 
ATOM     12  C   UNL     1      -3.172  12.677  23.340  0.00  0.00    +0.000 A 
ATOM     13  C   UNL     1      -2.739  13.782  24.048  0.00  0.00    +0.000 A 
ATOM     14  C   UNL     1      -1.385  14.112  23.989  0.00  0.00    +0.000 A 
ATOM     15  N   UNL     1      -0.444  13.458  23.241  0.00  0.00    +0.000 NA
ENDBRANCH   8  10
BRANCH   9  16
ATOM     16  C   UNL     1      -0.189  12.602  19.065  0.00  0.00    +0.000 C 
ATOM     17  C   UNL     1      -0.649  14.031  19.479  0.00  0.00    +0.000 C 
ATOM     18  C   UNL     1       0.462  14.747  20.218  0.00  0.00    +0.000 C 
ATOM     19  C   UNL     1       1.820  14.559  19.545  0.00  0.00    +0.000 C 
ATOM     20  C   UNL     1       1.885  13.750  18.235  0.00  0.00    +0.000 C 
ATOM     21  C   UNL     1       0.708  12.846  17.873  0.00  0.00    +0.000 C 
ENDBRANCH   9  16
BRANCH   1  23
ATOM     22  N   UNL     1       2.562   6.091  18.601  0.00  0.00    +0.000 N 
ATOM     23  C   UNL     1       1.961   6.515  19.750  0.00  0.00    +0.000 C 
ATOM     24  O   UNL     1       1.739   5.826  20.734  0.00  0.00    +0.000 OA
ATOM     25  H   UNL     1       2.787   6.762  17.877  0.00  0.00    +0.000 HD
BRANCH  22  26
ATOM     26  C   UNL     1       3.054   4.737  18.465  0.00  0.00    +0.000 C 
ATOM     27  C   UNL     1       1.936   3.881  17.881  0.00  0.00    +0.000 C 
BRANCH  26  31
ATOM     28  C   UNL     1       6.480   5.249  15.878  0.00  0.00    +0.000 A 
ATOM     29  C   UNL     1       5.870   3.989  15.994  0.00  0.00    +0.000 A 
ATOM     30  C   UNL     1       4.795   3.779  16.859  0.00  0.00    +0.000 A 
ATOM     31  C   UNL     1       4.345   4.813  17.679  0.00  0.00    +0.000 A 
ATOM     32  C   UNL     1       5.039   6.035  17.646  0.00  0.00    +0.000 A 
ATOM     33  C   UNL     1       6.095   6.272  16.754  0.00  0.00    +0.000 A 
BRANCH  28  35
ATOM     34  C   UNL     1       7.221   4.894  13.658  0.00  0.00    +0.000 C 
ATOM     35  O   UNL     1       7.451   5.484  14.940  0.00  0.00    +0.000 OA
ENDBRANCH  28  35
BRANCH  33  36
ATOM     36  O   UNL     1       6.593   7.540  16.880  0.00  0.00    +0.000 OA
ATOM     37  C   UNL     1       7.703   7.766  17.731  0.00  0.00    +0.000 C 
ENDBRANCH  33  36
ENDBRANCH  26  31
ENDBRANCH  22  26
ENDBRANCH   1  23
TORSDOF 7
ENDMDL
MODEL 3
REMARK VINA RESULT:      -8.9      1.098      1.118
REMARK  Name = 
REMARK  10 active torsions:
REMARK  status: ('A' for Active; 'I' for Inactive)
REMARK    1  A    between atoms: C_1  and  O_2
REMARK    2  A    between atoms: O_2  and  C_3
REMARK    3  A    between atoms: C_6  and  C_7
REMARK    4  A    between atoms: C_7  and  C_8
REMARK    5  A    between atoms: C_7  and  N_9
REMARK    6  A    between atoms: C_10  and  C_12
REMARK    7  A    between atoms: C_19  and  C_20
REMARK    8  A    between atoms: N_26  and  C_27
REMARK    9  A    between atoms: C_34  and  O_35
REMARK   10  A    between atoms: O_35  and  C_36
REMARK                            x       y       z     vdW  Elec       q    Type
REMARK                         _______ _______ _______ _____ _____    ______ ____
ROOT
ATOM      1  C   UNL     1       1.699   8.044  19.757  0.00  0.00    +0.000 A 
ATOM      2  C   UNL     1       2.006   8.878  18.679  0.00  0.00    +0.000 A 
ATOM      3  C   UNL     1       1.703  10.251  18.732  0.00  0.00    +0.000 A 
ATOM      4  C   UNL     1       1.081  10.713  19.909  0.00  0.00    +0.000 A 
ATOM      5  C   UNL     1       0.906   9.891  21.007  0.00  0.00    +0.000 A 
ATOM      6  C   UNL     1       1.175   8.529  20.947  0.00  0.00    +0.000 A 
ATOM      7  N   UNL     1       0.421  10.577  22.052  0.00  0.00    +0.000 NA
ATOM      8  C   UNL     1       0.013  11.757  21.616  0.00  0.00    +0.000 A 
ATOM      9  N   UNL     1       0.363  11.880  20.223  0.00  0.00    +0.000 N 
ENDROOT
BRANCH   8  10
ATOM     10  C   UNL     1      -0.886  12.492  22.536  0.00  0.00    +0.000 A 
ATOM     11  C   UNL     1      -2.053  11.820  22.959  0.00  0.00    +0.000 A 
ATOM     12  C   UNL     1      -3.006  12.468  23.740  0.00  0.00    +0.000 A 
ATOM     13  C   UNL     1      -2.746  13.766  24.133  0.00  0.00    +0.000 A 
ATOM     14  C   UNL     1      -1.532  14.338  23.754  0.00  0.00    +0.000 A 
ATOM     15  N   UNL     1      -0.583  13.735  22.975  0.00  0.00    +0.000 NA
ENDBRANCH   8  10
BRANCH   9  16
ATOM     16  C   UNL     1      -0.122  12.724  19.121  0.00  0.00    +0.000 C 
ATOM     17  C   UNL     1      -0.840  11.942  17.982  0.00  0.00    +0.000 C 
ATOM     18  C   UNL     1      -1.957  11.093  18.551  0.00  0.00    +0.000 C 
ATOM     19  C   UNL     1      -2.788  11.846  19.587  0.00  0.00    +0.000 C 
ATOM     20  C   UNL     1      -2.442  13.321  19.874  0.00  0.00    +0.000 C 
ATOM     21  C   UNL     1      -1.077  13.852  19.440  0.00  0.00    +0.000 C 
ENDBRANCH   9  16
BRANCH   1  23
ATOM     22  N   UNL     1       2.361   6.158  18.501  0.00  0.00    +0.000 N 
ATOM     23  C   UNL     1       1.947   6.600  19.723  0.00  0.00    +0.000 C 
ATOM     24  O   UNL     1       1.871   5.923  20.738  0.00  0.00    +0.000 OA
ATOM     25  H   UNL     1       2.478   6.820  17.744  0.00  0.00    +0.000 HD
BRANCH  22  26
ATOM     26  C   UNL     1       2.815   4.798  18.307  0.00  0.00    +0.000 C 
ATOM     27  C   UNL     1       1.703   4.019  17.616  0.00  0.00    +0.000 C 
BRANCH  26  31
ATOM     28  C   UNL     1       6.379   5.310  15.914  0.00  0.00    +0.000 A 
ATOM     29  C   UNL     1       5.766   4.048  16.000  0.00  0.00    +0.000 A 
ATOM     30  C   UNL     1       4.645   3.839  16.805  0.00  0.00    +0.000 A 
ATOM     31  C   UNL     1       4.148   4.874  17.595  0.00  0.00    +0.000 A 
ATOM     32  C   UNL     1       4.840   6.099  17.596  0.00  0.00    +0.000 A 
ATOM     33  C   UNL     1       5.943   6.335  16.763  0.00  0.00    +0.000 A 
BRANCH  28  35
ATOM     34  C   UNL     1       7.292   4.869  13.775  0.00  0.00    +0.000 C 
ATOM     35  O   UNL     1       7.400   5.543  15.031  0.00  0.00    +0.000 OA
ENDBRANCH  28  35
BRANCH  33  36
ATOM     36  O   UNL     1       6.430   7.605  16.912  0.00  0.00    +0.000 OA
ATOM     37  C   UNL     1       7.650   7.800  17.607  0.00  0.00    +0.000 C 
ENDBRANCH  33  36
ENDBRANCH  26  31
ENDBRANCH  22  26
ENDBRANCH   1  23
TORSDOF 7
ENDMDL
MODEL 4
REMARK VINA RESULT:      -8.8      3.789     10.005
REMARK  Name = 
REMARK  10 active torsions:
REMARK  status: ('A' for Active; 'I' for Inactive)
REMARK    1  A    between atoms: C_1  and  O_2
REMARK    2  A    between atoms: O_2  and  C_3
REMARK    3  A    between atoms: C_6  and  C_7
REMARK    4  A    between atoms: C_7  and  C_8
REMARK    5  A    between atoms: C_7  and  N_9
REMARK    6  A    between atoms: C_10  and  C_12
REMARK    7  A    between atoms: C_19  and  C_20
REMARK    8  A    between atoms: N_26  and  C_27
REMARK    9  A    between atoms: C_34  and  O_35
REMARK   10  A    between atoms: O_35  and  C_36
REMARK                            x       y       z     vdW  Elec       q    Type
REMARK                         _______ _______ _______ _____ _____    ______ ____
ROOT
ATOM      1  C   UNL     1       1.125   9.080  18.798  0.00  0.00    +0.000 A 
ATOM      2  C   UNL     1       1.057   8.370  20.000  0.00  0.00    +0.000 A 
ATOM      3  C   UNL     1       1.960   7.321  20.258  0.00  0.00    +0.000 A 
ATOM      4  C   UNL     1       2.904   7.040  19.251  0.00  0.00    +0.000 A 
ATOM      5  C   UNL     1       3.028   7.840  18.131  0.00  0.00    +0.000 A 
ATOM      6  C   UNL     1       2.120   8.855  17.857  0.00  0.00    +0.000 A 
ATOM      7  N   UNL     1       4.074   7.464  17.382  0.00  0.00    +0.000 NA
ATOM      8  C   UNL     1       4.487   6.284  17.813  0.00  0.00    +0.000 A 
ATOM      9  N   UNL     1       3.728   5.932  18.988  0.00  0.00    +0.000 N 
ENDROOT
BRANCH   8  10
ATOM     10  C   UNL     1       5.372   5.546  16.883  0.00  0.00    +0.000 A 
ATOM     11  C   UNL     1       4.961   5.473  15.534  0.00  0.00    +0.000 A 
ATOM     12  C   UNL     1       5.675   4.717  14.610  0.00  0.00    +0.000 A 
ATOM     13  C   UNL     1       6.827   4.087  15.041  0.00  0.00    +0.000 A 
ATOM     14  C   UNL     1       7.224   4.275  16.365  0.00  0.00    +0.000 A 
ATOM     15  N   UNL     1       6.536   4.999  17.301  0.00  0.00    +0.000 NA
ENDBRANCH   8  10
BRANCH   9  16
ATOM     16  C   UNL     1       3.440   4.663  19.673  0.00  0.00    +0.000 C 
ATOM     17  C   UNL     1       1.943   4.235  19.628  0.00  0.00    +0.000 C 
ATOM     18  C   UNL     1       1.447   4.209  18.197  0.00  0.00    +0.000 C 
ATOM     19  C   UNL     1       2.448   3.551  17.249  0.00  0.00    +0.000 C 
ATOM     20  C   UNL     1       3.749   2.974  17.840  0.00  0.00    +0.000 C 
ATOM     21  C   UNL     1       4.181   3.420  19.236  0.00  0.00    +0.000 C 
ENDBRANCH   9  16
BRANCH   1  23
ATOM     22  N   UNL     1       0.453  11.325  19.080  0.00  0.00    +0.000 N 
ATOM     23  C   UNL     1       0.172  10.141  18.464  0.00  0.00    +0.000 C 
ATOM     24  O   UNL     1      -0.707   9.960  17.634  0.00  0.00    +0.000 OA
ATOM     25  H   UNL     1       1.263  11.394  19.684  0.00  0.00    +0.000 HD
BRANCH  22  26
ATOM     26  C   UNL     1      -0.269  12.535  18.751  0.00  0.00    +0.000 C 
ATOM     27  C   UNL     1      -1.466  12.645  19.689  0.00  0.00    +0.000 C 
BRANCH  26  31
ATOM     28  C   UNL     1       2.421  15.895  18.348  0.00  0.00    +0.000 A 
ATOM     29  C   UNL     1       2.929  14.586  18.356  0.00  0.00    +0.000 A 
ATOM     30  C   UNL     1       2.093  13.482  18.536  0.00  0.00    +0.000 A 
ATOM     31  C   UNL     1       0.733  13.668  18.777  0.00  0.00    +0.000 A 
ATOM     32  C   UNL     1       0.253  14.985  18.889  0.00  0.00    +0.000 A 
ATOM     33  C   UNL     1       1.073  16.101  18.672  0.00  0.00    +0.000 A 
BRANCH  28  35
ATOM     34  C   UNL     1       4.531  16.933  18.621  0.00  0.00    +0.000 C 
ATOM     35  O   UNL     1       3.222  16.965  18.048  0.00  0.00    +0.000 OA
ENDBRANCH  28  35
BRANCH  33  36
ATOM     36  O   UNL     1       0.382  17.275  18.802  0.00  0.00    +0.000 OA
ATOM     37  C   UNL     1      -0.614  17.600  17.848  0.00  0.00    +0.000 C 
ENDBRANCH  33  36
ENDBRANCH  26  31
ENDBRANCH  22  26
ENDBRANCH   1  23
TORSDOF 7
ENDMDL
MODEL 5
REMARK VINA RESULT:      -8.8      3.078     10.044
REMARK  Name = 
REMARK  10 active torsions:
REMARK  status: ('A' for Active; 'I' for Inactive)
REMARK    1  A    between atoms: C_1  and  O_2
REMARK    2  A    between atoms: O_2  and  C_3
REMARK    3  A    between atoms: C_6  and  C_7
REMARK    4  A    between atoms: C_7  and  C_8
REMARK    5  A    between atoms: C_7  and  N_9
REMARK    6  A    between atoms: C_10  and  C_12
REMARK    7  A    between atoms: C_19  and  C_20
REMARK    8  A    between atoms: N_26  and  C_27
REMARK    9  A    between atoms: C_34  and  O_35
REMARK   10  A    between atoms: O_35  and  C_36
REMARK                            x       y       z     vdW  Elec       q    Type
REMARK                         _______ _______ _______ _____ _____    ______ ____
ROOT
ATOM      1  C   UNL     1       1.270   9.310  18.788  0.00  0.00    +0.000 A 
ATOM      2  C   UNL     1       1.122   8.582  19.971  0.00  0.00    +0.000 A 
ATOM      3  C   UNL     1       1.950   7.475  20.233  0.00  0.00    +0.000 A 
ATOM      4  C   UNL     1       2.906   7.156  19.248  0.00  0.00    +0.000 A 
ATOM      5  C   UNL     1       3.112   7.969  18.149  0.00  0.00    +0.000 A 
ATOM      6  C   UNL     1       2.277   9.044  17.871  0.00  0.00    +0.000 A 
ATOM      7  N   UNL     1       4.156   7.544  17.423  0.00  0.00    +0.000 NA
ATOM      8  C   UNL     1       4.483   6.332  17.841  0.00  0.00    +0.000 A 
ATOM      9  N   UNL     1       3.668   6.004  18.985  0.00  0.00    +0.000 N 
ENDROOT
BRANCH   8  10
ATOM     10  C   UNL     1       5.349   5.560  16.920  0.00  0.00    +0.000 A 
ATOM     11  C   UNL     1       4.957   5.512  15.565  0.00  0.00    +0.000 A 
ATOM     12  C   UNL     1       5.652   4.729  14.649  0.00  0.00    +0.000 A 
ATOM     13  C   UNL     1       6.767   4.046  15.095  0.00  0.00    +0.000 A 
ATOM     14  C   UNL     1       7.150   4.209  16.426  0.00  0.00    +0.000 A 
ATOM     15  N   UNL     1       6.480   4.959  17.355  0.00  0.00    +0.000 NA
ENDBRANCH   8  10
BRANCH   9  16
ATOM     16  C   UNL     1       3.282   4.743  19.633  0.00  0.00    +0.000 C 
ATOM     17  C   UNL     1       1.774   4.381  19.486  0.00  0.00    +0.000 C 
ATOM     18  C   UNL     1       1.372   4.391  18.026  0.00  0.00    +0.000 C 
ATOM     19  C   UNL     1       2.402   3.699  17.136  0.00  0.00    +0.000 C 
ATOM     20  C   UNL     1       3.636   3.060  17.802  0.00  0.00    +0.000 C 
ATOM     21  C   UNL     1       3.996   3.473  19.228  0.00  0.00    +0.000 C 
ENDBRANCH   9  16
BRANCH   1  23
ATOM     22  N   UNL     1      -0.924  10.175  18.683  0.00  0.00    +0.000 N 
ATOM     23  C   UNL     1       0.394  10.435  18.448  0.00  0.00    +0.000 C 
ATOM     24  O   UNL     1       0.857  11.508  18.090  0.00  0.00    +0.000 OA
ATOM     25  H   UNL     1      -1.196   9.279  19.068  0.00  0.00    +0.000 HD
BRANCH  22  26
ATOM     26  C   UNL     1      -1.927  11.212  18.571  0.00  0.00    +0.000 C 
ATOM     27  C   UNL     1      -3.174  10.601  17.942  0.00  0.00    +0.000 C 
BRANCH  26  31
ATOM     28  C   UNL     1      -2.551  12.515  22.646  0.00  0.00    +0.000 A 
ATOM     29  C   UNL     1      -3.346  13.037  21.612  0.00  0.00    +0.000 A 
ATOM     30  C   UNL     1      -3.136  12.676  20.280  0.00  0.00    +0.000 A 
ATOM     31  C   UNL     1      -2.080  11.830  19.943  0.00  0.00    +0.000 A 
ATOM     32  C   UNL     1      -1.215  11.409  20.969  0.00  0.00    +0.000 A 
ATOM     33  C   UNL     1      -1.437  11.732  22.315  0.00  0.00    +0.000 A 
BRANCH  28  35
ATOM     34  C   UNL     1      -4.169  12.454  24.372  0.00  0.00    +0.000 C 
ATOM     35  O   UNL     1      -2.838  12.772  23.960  0.00  0.00    +0.000 OA
ENDBRANCH  28  35
BRANCH  33  36
ATOM     36  O   UNL     1      -0.487  11.186  23.133  0.00  0.00    +0.000 OA
ATOM     37  C   UNL     1      -0.363   9.776  23.204  0.00  0.00    +0.000 C 
ENDBRANCH  33  36
ENDBRANCH  26  31
ENDBRANCH  22  26
ENDBRANCH   1  23
TORSDOF 7
ENDMDL
MODEL 6
REMARK VINA RESULT:      -8.5      3.435      9.711
REMARK  Name = 
REMARK  10 active torsions:
REMARK  status: ('A' for Active; 'I' for Inactive)
REMARK    1  A    between atoms: C_1  and  O_2
REMARK    2  A    between atoms: O_2  and  C_3
REMARK    3  A    between atoms: C_6  and  C_7
REMARK    4  A    between atoms: C_7  and  C_8
REMARK    5  A    between atoms: C_7  and  N_9
REMARK    6  A    between atoms: C_10  and  C_12
REMARK    7  A    between atoms: C_19  and  C_20
REMARK    8  A    between atoms: N_26  and  C_27
REMARK    9  A    between atoms: C_34  and  O_35
REMARK   10  A    between atoms: O_35  and  C_36
REMARK                            x       y       z     vdW  Elec       q    Type
REMARK                         _______ _______ _______ _____ _____    ______ ____
ROOT
ATOM      1  C   UNL     1       0.926   9.148  18.710  0.00  0.00    +0.000 A 
ATOM      2  C   UNL     1       0.906   8.502  19.949  0.00  0.00    +0.000 A 
ATOM      3  C   UNL     1       1.864   7.516  20.253  0.00  0.00    +0.000 A 
ATOM      4  C   UNL     1       2.812   7.229  19.251  0.00  0.00    +0.000 A 
ATOM      5  C   UNL     1       2.884   7.973  18.087  0.00  0.00    +0.000 A 
ATOM      6  C   UNL     1       1.922   8.924  17.770  0.00  0.00    +0.000 A 
ATOM      7  N   UNL     1       3.941   7.610  17.347  0.00  0.00    +0.000 NA
ATOM      8  C   UNL     1       4.418   6.478  17.836  0.00  0.00    +0.000 A 
ATOM      9  N   UNL     1       3.690   6.152  19.038  0.00  0.00    +0.000 N 
ENDROOT
BRANCH   8  10
ATOM     10  C   UNL     1       5.332   5.737  16.936  0.00  0.00    +0.000 A 
ATOM     11  C   UNL     1       4.938   5.618  15.585  0.00  0.00    +0.000 A 
ATOM     12  C   UNL     1       5.681   4.853  14.691  0.00  0.00    +0.000 A 
ATOM     13  C   UNL     1       6.842   4.263  15.152  0.00  0.00    +0.000 A 
ATOM     14  C   UNL     1       7.218   4.497  16.474  0.00  0.00    +0.000 A 
ATOM     15  N   UNL     1       6.503   5.229  17.382  0.00  0.00    +0.000 NA
ENDBRANCH   8  10
BRANCH   9  16
ATOM     16  C   UNL     1       3.474   4.910  19.794  0.00  0.00    +0.000 C 
ATOM     17  C   UNL     1       1.993   4.431  19.832  0.00  0.00    +0.000 C 
ATOM     18  C   UNL     1       1.441   4.318  18.426  0.00  0.00    +0.000 C 
ATOM     19  C   UNL     1       2.424   3.648  17.469  0.00  0.00    +0.000 C 
ATOM     20  C   UNL     1       3.768   3.144  18.032  0.00  0.00    +0.000 C 
ATOM     21  C   UNL     1       4.240   3.672  19.385  0.00  0.00    +0.000 C 
ENDBRANCH   9  16
BRANCH   1  23
ATOM     22  N   UNL     1       0.096  11.345  18.941  0.00  0.00    +0.000 N 
ATOM     23  C   UNL     1      -0.084  10.139  18.330  0.00  0.00    +0.000 C 
ATOM     24  O   UNL     1      -0.920   9.891  17.474  0.00  0.00    +0.000 OA
ATOM     25  H   UNL     1       0.879  11.475  19.570  0.00  0.00    +0.000 HD
BRANCH  22  26
ATOM     26  C   UNL     1      -0.694  12.501  18.572  0.00  0.00    +0.000 C 
ATOM     27  C   UNL     1      -1.928  12.538  19.465  0.00  0.00    +0.000 C 
BRANCH  26  31
ATOM     28  C   UNL     1       2.049  15.783  19.202  0.00  0.00    +0.000 A 
ATOM     29  C   UNL     1       0.673  16.033  19.073  0.00  0.00    +0.000 A 
ATOM     30  C   UNL     1      -0.232  15.001  18.818  0.00  0.00    +0.000 A 
ATOM     31  C   UNL     1       0.228  13.700  18.621  0.00  0.00    +0.000 A 
ATOM     32  C   UNL     1       1.616  13.479  18.631  0.00  0.00    +0.000 A 
ATOM     33  C   UNL     1       2.533  14.498  18.925  0.00  0.00    +0.000 A 
BRANCH  28  35
ATOM     34  C   UNL     1       2.983  17.037  20.979  0.00  0.00    +0.000 C 
ATOM     35  O   UNL     1       2.918  16.774  19.576  0.00  0.00    +0.000 OA
ENDBRANCH  28  35
BRANCH  33  36
ATOM     36  O   UNL     1       3.824  14.041  18.909  0.00  0.00    +0.000 OA
ATOM     37  C   UNL     1       4.738  14.586  17.973  0.00  0.00    +0.000 C 
ENDBRANCH  33  36
ENDBRANCH  26  31
ENDBRANCH  22  26
ENDBRANCH   1  23
TORSDOF 7
ENDMDL
MODEL 7
REMARK VINA RESULT:      -8.5      3.271      9.946
REMARK  Name = 
REMARK  10 active torsions:
REMARK  status: ('A' for Active; 'I' for Inactive)
REMARK    1  A    between atoms: C_1  and  O_2
REMARK    2  A    between atoms: O_2  and  C_3
REMARK    3  A    between atoms: C_6  and  C_7
REMARK    4  A    between atoms: C_7  and  C_8
REMARK    5  A    between atoms: C_7  and  N_9
REMARK    6  A    between atoms: C_10  and  C_12
REMARK    7  A    between atoms: C_19  and  C_20
REMARK    8  A    between atoms: N_26  and  C_27
REMARK    9  A    between atoms: C_34  and  O_35
REMARK   10  A    between atoms: O_35  and  C_36
REMARK                            x       y       z     vdW  Elec       q    Type
REMARK                         _______ _______ _______ _____ _____    ______ ____
ROOT
ATOM      1  C   UNL     1       1.184   8.293  20.399  0.00  0.00    +0.000 A 
ATOM      2  C   UNL     1       0.681   7.152  21.028  0.00  0.00    +0.000 A 
ATOM      3  C   UNL     1       1.184   5.878  20.702  0.00  0.00    +0.000 A 
ATOM      4  C   UNL     1       2.195   5.834  19.721  0.00  0.00    +0.000 A 
ATOM      5  C   UNL     1       2.760   6.988  19.210  0.00  0.00    +0.000 A 
ATOM      6  C   UNL     1       2.245   8.243  19.506  0.00  0.00    +0.000 A 
ATOM      7  N   UNL     1       3.789   6.703  18.399  0.00  0.00    +0.000 NA
ATOM      8  C   UNL     1       3.761   5.407  18.136  0.00  0.00    +0.000 A 
ATOM      9  N   UNL     1       2.714   4.801  18.921  0.00  0.00    +0.000 N 
ENDROOT
BRANCH   8  10
ATOM     10  C   UNL     1       4.574   4.981  16.974  0.00  0.00    +0.000 A 
ATOM     11  C   UNL     1       4.981   5.991  16.076  0.00  0.00    +0.000 A 
ATOM     12  C   UNL     1       5.660   5.672  14.904  0.00  0.00    +0.000 A 
ATOM     13  C   UNL     1       5.971   4.346  14.676  0.00  0.00    +0.000 A 
ATOM     14  C   UNL     1       5.618   3.411  15.649  0.00  0.00    +0.000 A 
ATOM     15  N   UNL     1       4.937   3.689  16.803  0.00  0.00    +0.000 NA
ENDBRANCH   8  10
BRANCH   9  16
ATOM     16  C   UNL     1       1.952   3.548  18.810  0.00  0.00    +0.000 C 
ATOM     17  C   UNL     1       2.832   2.267  18.719  0.00  0.00    +0.000 C 
ATOM     18  C   UNL     1       3.805   2.214  19.879  0.00  0.00    +0.000 C 
ATOM     19  C   UNL     1       3.144   2.580  21.206  0.00  0.00    +0.000 C 
ATOM     20  C   UNL     1       1.635   2.891  21.214  0.00  0.00    +0.000 C 
ATOM     21  C   UNL     1       0.946   3.216  19.889  0.00  0.00    +0.000 C 
ENDBRANCH   9  16
BRANCH   1  23
ATOM     22  N   UNL     1       0.592  10.416  19.553  0.00  0.00    +0.000 N 
ATOM     23  C   UNL     1       0.652   9.632  20.667  0.00  0.00    +0.000 C 
ATOM     24  O   UNL     1       0.226   9.931  21.773  0.00  0.00    +0.000 OA
ATOM     25  H   UNL     1       0.888  10.039  18.661  0.00  0.00    +0.000 HD
BRANCH  22  26
ATOM     26  C   UNL     1      -0.057  11.709  19.576  0.00  0.00    +0.000 C 
ATOM     27  C   UNL     1       0.752  12.662  18.705  0.00  0.00    +0.000 C 
BRANCH  26  31
ATOM     28  C   UNL     1      -4.087  11.349  18.053  0.00  0.00    +0.000 A 
ATOM     29  C   UNL     1      -3.836  12.118  19.201  0.00  0.00    +0.000 A 
ATOM     30  C   UNL     1      -2.555  12.213  19.747  0.00  0.00    +0.000 A 
ATOM     31  C   UNL     1      -1.503  11.485  19.193  0.00  0.00    +0.000 A 
ATOM     32  C   UNL     1      -1.787  10.623  18.119  0.00  0.00    +0.000 A 
ATOM     33  C   UNL     1      -3.060  10.548  17.536  0.00  0.00    +0.000 A 
BRANCH  28  35
ATOM     34  C   UNL     1      -6.410  10.953  18.272  0.00  0.00    +0.000 C 
ATOM     35  O   UNL     1      -5.315  11.358  17.447  0.00  0.00    +0.000 OA
ENDBRANCH  28  35
BRANCH  33  36
ATOM     36  O   UNL     1      -3.089   9.669  16.488  0.00  0.00    +0.000 OA
ATOM     37  C   UNL     1      -2.871  10.152  15.174  0.00  0.00    +0.000 C 
ENDBRANCH  33  36
ENDBRANCH  26  31
ENDBRANCH  22  26
ENDBRANCH   1  23
TORSDOF 7
ENDMDL
MODEL 8
REMARK VINA RESULT:      -8.1      3.356      9.735
REMARK  Name = 
REMARK  10 active torsions:
REMARK  status: ('A' for Active; 'I' for Inactive)
REMARK    1  A    between atoms: C_1  and  O_2
REMARK    2  A    between atoms: O_2  and  C_3
REMARK    3  A    between atoms: C_6  and  C_7
REMARK    4  A    between atoms: C_7  and  C_8
REMARK    5  A    between atoms: C_7  and  N_9
REMARK    6  A    between atoms: C_10  and  C_12
REMARK    7  A    between atoms: C_19  and  C_20
REMARK    8  A    between atoms: N_26  and  C_27
REMARK    9  A    between atoms: C_34  and  O_35
REMARK   10  A    between atoms: O_35  and  C_36
REMARK                            x       y       z     vdW  Elec       q    Type
REMARK                         _______ _______ _______ _____ _____    ______ ____
ROOT
ATOM      1  C   UNL     1       0.984   9.091  19.023  0.00  0.00    +0.000 A 
ATOM      2  C   UNL     1       0.999   8.390  20.231  0.00  0.00    +0.000 A 
ATOM      3  C   UNL     1       1.938   7.363  20.446  0.00  0.00    +0.000 A 
ATOM      4  C   UNL     1       2.830   7.094  19.389  0.00  0.00    +0.000 A 
ATOM      5  C   UNL     1       2.873   7.888  18.258  0.00  0.00    +0.000 A 
ATOM      6  C   UNL     1       1.929   8.881  18.028  0.00  0.00    +0.000 A 
ATOM      7  N   UNL     1       3.883   7.527  17.454  0.00  0.00    +0.000 NA
ATOM      8  C   UNL     1       4.345   6.360  17.870  0.00  0.00    +0.000 A 
ATOM      9  N   UNL     1       3.662   6.002  19.088  0.00  0.00    +0.000 N 
ENDROOT
BRANCH   8  10
ATOM     10  C   UNL     1       5.193   5.634  16.896  0.00  0.00    +0.000 A 
ATOM     11  C   UNL     1       6.440   5.163  17.362  0.00  0.00    +0.000 A 
ATOM     12  C   UNL     1       7.344   4.560  16.493  0.00  0.00    +0.000 A 
ATOM     13  C   UNL     1       6.961   4.387  15.178  0.00  0.00    +0.000 A 
ATOM     14  C   UNL     1       5.680   4.793  14.806  0.00  0.00    +0.000 A 
ATOM     15  N   UNL     1       4.774   5.403  15.631  0.00  0.00    +0.000 NA
ENDBRANCH   8  10
BRANCH   9  16
ATOM     16  C   UNL     1       3.440   4.733  19.797  0.00  0.00    +0.000 C 
ATOM     17  C   UNL     1       1.951   4.280  19.851  0.00  0.00    +0.000 C 
ATOM     18  C   UNL     1       1.365   4.235  18.456  0.00  0.00    +0.000 C 
ATOM     19  C   UNL     1       2.313   3.588  17.449  0.00  0.00    +0.000 C 
ATOM     20  C   UNL     1       3.659   3.037  17.958  0.00  0.00    +0.000 C 
ATOM     21  C   UNL     1       4.173   3.500  19.320  0.00  0.00    +0.000 C 
ENDBRANCH   9  16
BRANCH   1  23
ATOM     22  N   UNL     1       0.017  11.158  19.630  0.00  0.00    +0.000 N 
ATOM     23  C   UNL     1      -0.009  10.129  18.735  0.00  0.00    +0.000 C 
ATOM     24  O   UNL     1      -0.698  10.080  17.726  0.00  0.00    +0.000 OA
ATOM     25  H   UNL     1       0.693  11.146  20.385  0.00  0.00    +0.000 HD
BRANCH  22  26
ATOM     26  C   UNL     1      -0.768  12.355  19.425  0.00  0.00    +0.000 C 
ATOM     27  C   UNL     1      -1.747  12.487  20.586  0.00  0.00    +0.000 C 
BRANCH  26  31
ATOM     28  C   UNL     1       1.993  15.681  19.338  0.00  0.00    +0.000 A 
ATOM     29  C   UNL     1       0.715  15.814  18.769  0.00  0.00    +0.000 A 
ATOM     30  C   UNL     1      -0.181  14.744  18.735  0.00  0.00    +0.000 A 
ATOM     31  C   UNL     1       0.207  13.493  19.214  0.00  0.00    +0.000 A 
ATOM     32  C   UNL     1       1.528  13.337  19.669  0.00  0.00    +0.000 A 
ATOM     33  C   UNL     1       2.424  14.413  19.745  0.00  0.00    +0.000 A 
BRANCH  28  35
ATOM     34  C   UNL     1       2.447  17.690  20.504  0.00  0.00    +0.000 C 
ATOM     35  O   UNL     1       2.820  16.763  19.482  0.00  0.00    +0.000 OA
ENDBRANCH  28  35
BRANCH  33  36
ATOM     36  O   UNL     1       3.638  14.029  20.249  0.00  0.00    +0.000 OA
ATOM     37  C   UNL     1       3.937  14.296  21.608  0.00  0.00    +0.000 C 
ENDBRANCH  33  36
ENDBRANCH  26  31
ENDBRANCH  22  26
ENDBRANCH   1  23
TORSDOF 7
ENDMDL
MODEL 9
REMARK VINA RESULT:      -8.1      3.437     10.052
REMARK  Name = 
REMARK  10 active torsions:
REMARK  status: ('A' for Active; 'I' for Inactive)
REMARK    1  A    between atoms: C_1  and  O_2
REMARK    2  A    between atoms: O_2  and  C_3
REMARK    3  A    between atoms: C_6  and  C_7
REMARK    4  A    between atoms: C_7  and  C_8
REMARK    5  A    between atoms: C_7  and  N_9
REMARK    6  A    between atoms: C_10  and  C_12
REMARK    7  A    between atoms: C_19  and  C_20
REMARK    8  A    between atoms: N_26  and  C_27
REMARK    9  A    between atoms: C_34  and  O_35
REMARK   10  A    between atoms: O_35  and  C_36
REMARK                            x       y       z     vdW  Elec       q    Type
REMARK                         _______ _______ _______ _____ _____    ______ ____
ROOT
ATOM      1  C   UNL     1       1.073   8.988  18.948  0.00  0.00    +0.000 A 
ATOM      2  C   UNL     1       1.046   8.259  20.138  0.00  0.00    +0.000 A 
ATOM      3  C   UNL     1       1.973   7.223  20.360  0.00  0.00    +0.000 A 
ATOM      4  C   UNL     1       2.900   6.976  19.328  0.00  0.00    +0.000 A 
ATOM      5  C   UNL     1       2.983   7.796  18.218  0.00  0.00    +0.000 A 
ATOM      6  C   UNL     1       2.051   8.798  17.981  0.00  0.00    +0.000 A 
ATOM      7  N   UNL     1       4.020   7.451  17.441  0.00  0.00    +0.000 NA
ATOM      8  C   UNL     1       4.464   6.272  17.844  0.00  0.00    +0.000 A 
ATOM      9  N   UNL     1       3.738   5.888  19.029  0.00  0.00    +0.000 N 
ENDROOT
BRANCH   8  10
ATOM     10  C   UNL     1       5.341   5.566  16.882  0.00  0.00    +0.000 A 
ATOM     11  C   UNL     1       4.875   5.457  15.554  0.00  0.00    +0.000 A 
ATOM     12  C   UNL     1       5.583   4.724  14.607  0.00  0.00    +0.000 A 
ATOM     13  C   UNL     1       6.782   4.155  14.993  0.00  0.00    +0.000 A 
ATOM     14  C   UNL     1       7.227   4.379  16.295  0.00  0.00    +0.000 A 
ATOM     15  N   UNL     1       6.548   5.080  17.254  0.00  0.00    +0.000 NA
ENDBRANCH   8  10
BRANCH   9  16
ATOM     16  C   UNL     1       3.489   4.603  19.700  0.00  0.00    +0.000 C 
ATOM     17  C   UNL     1       1.994   4.164  19.710  0.00  0.00    +0.000 C 
ATOM     18  C   UNL     1       1.437   4.163  18.302  0.00  0.00    +0.000 C 
ATOM     19  C   UNL     1       2.400   3.532  17.299  0.00  0.00    +0.000 C 
ATOM     20  C   UNL     1       3.730   2.954  17.821  0.00  0.00    +0.000 C 
ATOM     21  C   UNL     1       4.219   3.376  19.206  0.00  0.00    +0.000 C 
ENDBRANCH   9  16
BRANCH   1  23
ATOM     22  N   UNL     1       0.142  11.077  19.531  0.00  0.00    +0.000 N 
ATOM     23  C   UNL     1       0.094  10.037  18.651  0.00  0.00    +0.000 C 
ATOM     24  O   UNL     1      -0.603   9.983  17.648  0.00  0.00    +0.000 OA
ATOM     25  H   UNL     1       0.822  11.066  20.281  0.00  0.00    +0.000 HD
BRANCH  22  26
ATOM     26  C   UNL     1      -0.627  12.284  19.313  0.00  0.00    +0.000 C 
ATOM     27  C   UNL     1      -1.915  12.179  20.122  0.00  0.00    +0.000 C 
BRANCH  26  31
ATOM     28  C   UNL     1       1.546  15.890  20.293  0.00  0.00    +0.000 A 
ATOM     29  C   UNL     1       1.517  15.426  18.967  0.00  0.00    +0.000 A 
ATOM     30  C   UNL     1       0.868  14.238  18.628  0.00  0.00    +0.000 A 
ATOM     31  C   UNL     1       0.285  13.451  19.620  0.00  0.00    +0.000 A 
ATOM     32  C   UNL     1       0.423  13.861  20.958  0.00  0.00    +0.000 A 
ATOM     33  C   UNL     1       1.038  15.071  21.309  0.00  0.00    +0.000 A 
BRANCH  28  35
ATOM     34  C   UNL     1       3.493  17.224  20.474  0.00  0.00    +0.000 C 
ATOM     35  O   UNL     1       2.073  17.116  20.604  0.00  0.00    +0.000 OA
ENDBRANCH  28  35
BRANCH  33  36
ATOM     36  O   UNL     1       1.026  15.274  22.663  0.00  0.00    +0.000 OA
ATOM     37  C   UNL     1      -0.039  16.007  23.243  0.00  0.00    +0.000 C 
ENDBRANCH  33  36
ENDBRANCH  26  31
ENDBRANCH  22  26
ENDBRANCH   1  23
TORSDOF 7
ENDMDL
