MODEL 1
REMARK VINA RESULT:      -5.2      0.000      0.000
REMARK  Name = 
REMARK  9 active torsions:
REMARK  status: ('A' for Active; 'I' for Inactive)
REMARK    1  A    between atoms: C_1  and  O_2
REMARK    2  A    between atoms: O_2  and  C_3
REMARK    3  A    between atoms: C_3  and  C_4
REMARK    4  A    between atoms: C_4  and  N_5
REMARK    5  A    between atoms: N_5  and  C_6
REMARK    6  A    between atoms: N_5  and  C_10
REMARK    7  A    between atoms: C_6  and  C_7
REMARK    8  A    between atoms: C_7  and  O_8
REMARK    9  A    between atoms: O_8  and  C_9
REMARK                            x       y       z     vdW  Elec       q    Type
REMARK                         _______ _______ _______ _____ _____    ______ ____
ROOT
ATOM      1  N   UNL     1       3.605   5.282  18.572  0.00  0.00    +0.000 NA
ENDROOT
BRANCH   1   2
ATOM      2  C   UNL     1       3.070   4.271  17.616  0.00  0.00    +0.000 C 
ATOM      3  C   UNL     1       1.550   4.008  17.716  0.00  0.00    +0.000 C 
ATOM      4  C   UNL     1       1.136   2.919  18.708  0.00  0.00    +0.000 C 
ATOM      5  N   UNL     1       1.887   1.672  18.545  0.00  0.00    +0.000 NA
ATOM      6  C   UNL     1       3.329   1.888  18.579  0.00  0.00    +0.000 C 
ATOM      7  C   UNL     1       3.801   2.913  17.546  0.00  0.00    +0.000 C 
ATOM      8  H   UNL     1       1.636   1.256  17.648  0.00  0.00    +0.000 HD
ENDBRANCH   1   2
BRANCH   1   9
ATOM      9  C   UNL     1       4.980   5.733  18.270  0.00  0.00    +0.000 C 
BRANCH   9  10
ATOM     10  C   UNL     1       6.160   5.334  19.170  0.00  0.00    +0.000 C 
BRANCH  10  12
ATOM     11  C   UNL     1       7.355   4.655  17.271  0.00  0.00    +0.000 C 
ATOM     12  O   UNL     1       6.947   4.299  18.585  0.00  0.00    +0.000 OA
ENDBRANCH  10  12
ENDBRANCH   9  10
ENDBRANCH   1   9
BRANCH   1  13
ATOM     13  C   UNL     1       2.701   6.437  18.795  0.00  0.00    +0.000 C 
BRANCH  13  14
ATOM     14  C   UNL     1       2.952   7.735  17.995  0.00  0.00    +0.000 C 
BRANCH  14  15
ATOM     15  O   UNL     1       1.721   8.385  17.676  0.00  0.00    +0.000 OA
ATOM     16  C   UNL     1       1.747   9.765  18.012  0.00  0.00    +0.000 C 
ENDBRANCH  14  15
ENDBRANCH  13  14
ENDBRANCH   1  13
TORSDOF 7
ENDMDL
MODEL 2
REMARK VINA RESULT:      -5.1      2.395      2.854
REMARK  Name = 
REMARK  9 active torsions:
REMARK  status: ('A' for Active; 'I' for Inactive)
REMARK    1  A    between atoms: C_1  and  O_2
REMARK    2  A    between atoms: O_2  and  C_3
REMARK    3  A    between atoms: C_3  and  C_4
REMARK    4  A    between atoms: C_4  and  N_5
REMARK    5  A    between atoms: N_5  and  C_6
REMARK    6  A    between atoms: N_5  and  C_10
REMARK    7  A    between atoms: C_6  and  C_7
REMARK    8  A    between atoms: C_7  and  O_8
REMARK    9  A    between atoms: O_8  and  C_9
REMARK                            x       y       z     vdW  Elec       q    Type
REMARK                         _______ _______ _______ _____ _____    ______ ____
ROOT
ATOM      1  N   UNL     1       3.640   5.382  18.017  0.00  0.00    +0.000 NA
ENDROOT
BRANCH   1   2
ATOM      2  C   UNL     1       2.387   4.578  17.949  0.00  0.00    +0.000 C 
ATOM      3  C   UNL     1       1.729   4.264  19.313  0.00  0.00    +0.000 C 
ATOM      4  C   UNL     1       2.215   2.986  19.998  0.00  0.00    +0.000 C 
ATOM      5  N   UNL     1       2.203   1.816  19.115  0.00  0.00    +0.000 NA
ATOM      6  C   UNL     1       2.934   2.055  17.875  0.00  0.00    +0.000 C 
ATOM      7  C   UNL     1       2.428   3.281  17.113  0.00  0.00    +0.000 C 
ATOM      8  H   UNL     1       1.235   1.588  18.890  0.00  0.00    +0.000 HD
ENDBRANCH   1   2
BRANCH   1   9
ATOM      9  C   UNL     1       4.410   5.197  19.265  0.00  0.00    +0.000 C 
BRANCH   9  10
ATOM     10  C   UNL     1       5.784   4.507  19.253  0.00  0.00    +0.000 C 
BRANCH  10  12
ATOM     11  C   UNL     1       7.656   5.870  18.888  0.00  0.00    +0.000 C 
ATOM     12  O   UNL     1       6.788   5.313  19.866  0.00  0.00    +0.000 OA
ENDBRANCH  10  12
ENDBRANCH   9  10
ENDBRANCH   1   9
BRANCH   1  13
ATOM     13  C   UNL     1       4.512   5.240  16.826  0.00  0.00    +0.000 C 
BRANCH  13  14
ATOM     14  C   UNL     1       5.118   6.515  16.198  0.00  0.00    +0.000 C 
BRANCH  14  15
ATOM     15  O   UNL     1       6.326   6.216  15.497  0.00  0.00    +0.000 OA
ATOM     16  C   UNL     1       6.563   4.818  15.421  0.00  0.00    +0.000 C 
ENDBRANCH  14  15
ENDBRANCH  13  14
ENDBRANCH   1  13
TORSDOF 7
ENDMDL
MODEL 3
REMARK VINA RESULT:      -5.1      2.580      3.439
REMARK  Name = 
REMARK  9 active torsions:
REMARK  status: ('A' for Active; 'I' for Inactive)
REMARK    1  A    between atoms: C_1  and  O_2
REMARK    2  A    between atoms: O_2  and  C_3
REMARK    3  A    between atoms: C_3  and  C_4
REMARK    4  A    between atoms: C_4  and  N_5
REMARK    5  A    between atoms: N_5  and  C_6
REMARK    6  A    between atoms: N_5  and  C_10
REMARK    7  A    between atoms: C_6  and  C_7
REMARK    8  A    between atoms: C_7  and  O_8
REMARK    9  A    between atoms: O_8  and  C_9
REMARK                            x       y       z     vdW  Elec       q    Type
REMARK                         _______ _______ _______ _____ _____    ______ ____
ROOT
ATOM      1  N   UNL     1       4.350   4.053  17.373  0.00  0.00    +0.000 NA
ENDROOT
BRANCH   1   2
ATOM      2  C   UNL     1       2.934   3.611  17.234  0.00  0.00    +0.000 C 
ATOM      3  C   UNL     1       1.882   4.564  17.849  0.00  0.00    +0.000 C 
ATOM      4  C   UNL     1       1.552   4.315  19.322  0.00  0.00    +0.000 C 
ATOM      5  N   UNL     1       1.244   2.913  19.617  0.00  0.00    +0.000 NA
ATOM      6  C   UNL     1       2.293   2.010  19.156  0.00  0.00    +0.000 C 
ATOM      7  C   UNL     1       2.601   2.167  17.666  0.00  0.00    +0.000 C 
ATOM      8  H   UNL     1       0.369   2.668  19.153  0.00  0.00    +0.000 HD
ENDBRANCH   1   2
BRANCH   1   9
ATOM      9  C   UNL     1       5.084   4.142  16.093  0.00  0.00    +0.000 C 
BRANCH   9  10
ATOM     10  C   UNL     1       5.626   5.487  15.582  0.00  0.00    +0.000 C 
BRANCH  10  12
ATOM     11  C   UNL     1       6.335   4.064  13.861  0.00  0.00    +0.000 C 
ATOM     12  O   UNL     1       6.539   5.316  14.501  0.00  0.00    +0.000 OA
ENDBRANCH  10  12
ENDBRANCH   9  10
ENDBRANCH   1   9
BRANCH   1  13
ATOM     13  C   UNL     1       4.519   5.291  18.172  0.00  0.00    +0.000 C 
BRANCH  13  14
ATOM     14  C   UNL     1       5.443   5.250  19.410  0.00  0.00    +0.000 C 
BRANCH  14  15
ATOM     15  O   UNL     1       6.739   4.759  19.064  0.00  0.00    +0.000 OA
ATOM     16  C   UNL     1       7.725   5.780  19.115  0.00  0.00    +0.000 C 
ENDBRANCH  14  15
ENDBRANCH  13  14
ENDBRANCH   1  13
TORSDOF 7
ENDMDL
MODEL 4
REMARK VINA RESULT:      -5.1      2.421      5.195
REMARK  Name = 
REMARK  9 active torsions:
REMARK  status: ('A' for Active; 'I' for Inactive)
REMARK    1  A    between atoms: C_1  and  O_2
REMARK    2  A    between atoms: O_2  and  C_3
REMARK    3  A    between atoms: C_3  and  C_4
REMARK    4  A    between atoms: C_4  and  N_5
REMARK    5  A    between atoms: N_5  and  C_6
REMARK    6  A    between atoms: N_5  and  C_10
REMARK    7  A    between atoms: C_6  and  C_7
REMARK    8  A    between atoms: C_7  and  O_8
REMARK    9  A    between atoms: O_8  and  C_9
REMARK                            x       y       z     vdW  Elec       q    Type
REMARK                         _______ _______ _______ _____ _____    ______ ____
ROOT
ATOM      1  N   UNL     1       4.450   4.232  17.846  0.00  0.00    +0.000 NA
ENDROOT
BRANCH   1   2
ATOM      2  C   UNL     1       4.727   5.218  16.764  0.00  0.00    +0.000 C 
ATOM      3  C   UNL     1       5.278   4.617  15.449  0.00  0.00    +0.000 C 
ATOM      4  C   UNL     1       6.800   4.485  15.374  0.00  0.00    +0.000 C 
ATOM      5  N   UNL     1       7.507   5.716  15.739  0.00  0.00    +0.000 NA
ATOM      6  C   UNL     1       7.090   6.225  17.040  0.00  0.00    +0.000 C 
ATOM      7  C   UNL     1       5.580   6.451  17.136  0.00  0.00    +0.000 C 
ATOM      8  H   UNL     1       7.315   6.423  15.029  0.00  0.00    +0.000 HD
ENDBRANCH   1   2
BRANCH   1   9
ATOM      9  C   UNL     1       4.341   4.828  19.194  0.00  0.00    +0.000 C 
BRANCH   9  10
ATOM     10  C   UNL     1       3.012   5.419  19.694  0.00  0.00    +0.000 C 
BRANCH  10  12
ATOM     11  C   UNL     1       1.970   7.470  20.143  0.00  0.00    +0.000 C 
ATOM     12  O   UNL     1       2.834   6.766  19.261  0.00  0.00    +0.000 OA
ENDBRANCH  10  12
ENDBRANCH   9  10
ENDBRANCH   1   9
BRANCH   1  13
ATOM     13  C   UNL     1       3.302   3.336  17.564  0.00  0.00    +0.000 C 
BRANCH  13  14
ATOM     14  C   UNL     1       3.265   1.948  18.243  0.00  0.00    +0.000 C 
BRANCH  14  15
ATOM     15  O   UNL     1       2.223   1.883  19.217  0.00  0.00    +0.000 OA
ATOM     16  C   UNL     1       1.000   2.407  18.722  0.00  0.00    +0.000 C 
ENDBRANCH  14  15
ENDBRANCH  13  14
ENDBRANCH   1  13
TORSDOF 7
ENDMDL
MODEL 5
REMARK VINA RESULT:      -5.0      2.641      5.369
REMARK  Name = 
REMARK  9 active torsions:
REMARK  status: ('A' for Active; 'I' for Inactive)
REMARK    1  A    between atoms: C_1  and  O_2
REMARK    2  A    between atoms: O_2  and  C_3
REMARK    3  A    between atoms: C_3  and  C_4
REMARK    4  A    between atoms: C_4  and  N_5
REMARK    5  A    between atoms: N_5  and  C_6
REMARK    6  A    between atoms: N_5  and  C_10
REMARK    7  A    between atoms: C_6  and  C_7
REMARK    8  A    between atoms: C_7  and  O_8
REMARK    9  A    between atoms: O_8  and  C_9
REMARK                            x       y       z     vdW  Elec       q    Type
REMARK                         _______ _______ _______ _____ _____    ______ ____
ROOT
ATOM      1  N   UNL     1       4.285   4.874  17.958  0.00  0.00    +0.000 NA
ENDROOT
BRANCH   1   2
ATOM      2  C   UNL     1       4.712   5.681  16.780  0.00  0.00    +0.000 C 
ATOM      3  C   UNL     1       5.327   4.872  15.614  0.00  0.00    +0.000 C 
ATOM      4  C   UNL     1       6.838   4.652  15.693  0.00  0.00    +0.000 C 
ATOM      5  N   UNL     1       7.590   5.883  15.947  0.00  0.00    +0.000 NA
ATOM      6  C   UNL     1       7.104   6.593  17.125  0.00  0.00    +0.000 C 
ATOM      7  C   UNL     1       5.608   6.908  17.054  0.00  0.00    +0.000 C 
ATOM      8  H   UNL     1       7.502   6.492  15.133  0.00  0.00    +0.000 HD
ENDBRANCH   1   2
BRANCH   1   9
ATOM      9  C   UNL     1       3.929   5.679  19.145  0.00  0.00    +0.000 C 
BRANCH   9  10
ATOM     10  C   UNL     1       2.474   5.765  19.636  0.00  0.00    +0.000 C 
BRANCH  10  12
ATOM     11  C   UNL     1       1.053   4.154  20.575  0.00  0.00    +0.000 C 
ATOM     12  O   UNL     1       2.240   4.914  20.756  0.00  0.00    +0.000 OA
ENDBRANCH  10  12
ENDBRANCH   9  10
ENDBRANCH   1   9
BRANCH   1  13
ATOM     13  C   UNL     1       3.232   3.875  17.654  0.00  0.00    +0.000 C 
BRANCH  13  14
ATOM     14  C   UNL     1       3.557   2.377  17.851  0.00  0.00    +0.000 C 
BRANCH  14  15
ATOM     15  O   UNL     1       3.250   1.958  19.182  0.00  0.00    +0.000 OA
ATOM     16  C   UNL     1       4.364   2.095  20.052  0.00  0.00    +0.000 C 
ENDBRANCH  14  15
ENDBRANCH  13  14
ENDBRANCH   1  13
TORSDOF 7
ENDMDL
MODEL 6
REMARK VINA RESULT:      -5.0      2.631      3.110
REMARK  Name = 
REMARK  9 active torsions:
REMARK  status: ('A' for Active; 'I' for Inactive)
REMARK    1  A    between atoms: C_1  and  O_2
REMARK    2  A    between atoms: O_2  and  C_3
REMARK    3  A    between atoms: C_3  and  C_4
REMARK    4  A    between atoms: C_4  and  N_5
REMARK    5  A    between atoms: N_5  and  C_6
REMARK    6  A    between atoms: N_5  and  C_10
REMARK    7  A    between atoms: C_6  and  C_7
REMARK    8  A    between atoms: C_7  and  O_8
REMARK    9  A    between atoms: O_8  and  C_9
REMARK                            x       y       z     vdW  Elec       q    Type
REMARK                         _______ _______ _______ _____ _____    ______ ____
ROOT
ATOM      1  N   UNL     1       4.013   4.389  17.487  0.00  0.00    +0.000 NA
ENDROOT
BRANCH   1   2
ATOM      2  C   UNL     1       2.775   3.572  17.338  0.00  0.00    +0.000 C 
ATOM      3  C   UNL     1       1.484   4.222  17.890  0.00  0.00    +0.000 C 
ATOM      4  C   UNL     1       1.189   3.945  19.365  0.00  0.00    +0.000 C 
ATOM      5  N   UNL     1       1.265   2.524  19.714  0.00  0.00    +0.000 NA
ATOM      6  C   UNL     1       2.534   1.926  19.315  0.00  0.00    +0.000 C 
ATOM      7  C   UNL     1       2.835   2.108  17.826  0.00  0.00    +0.000 C 
ATOM      8  H   UNL     1       0.504   2.033  19.243  0.00  0.00    +0.000 HD
ENDBRANCH   1   2
BRANCH   1   9
ATOM      9  C   UNL     1       4.894   3.956  18.591  0.00  0.00    +0.000 C 
BRANCH   9  10
ATOM     10  C   UNL     1       5.822   4.954  19.303  0.00  0.00    +0.000 C 
BRANCH  10  12
ATOM     11  C   UNL     1       7.780   6.137  18.790  0.00  0.00    +0.000 C 
ATOM     12  O   UNL     1       7.166   4.856  18.835  0.00  0.00    +0.000 OA
ENDBRANCH  10  12
ENDBRANCH   9  10
ENDBRANCH   1   9
BRANCH   1  13
ATOM     13  C   UNL     1       4.778   4.558  16.228  0.00  0.00    +0.000 C 
BRANCH  13  14
ATOM     14  C   UNL     1       5.293   5.967  15.861  0.00  0.00    +0.000 C 
BRANCH  14  15
ATOM     15  O   UNL     1       6.591   5.899  15.269  0.00  0.00    +0.000 OA
ATOM     16  C   UNL     1       7.039   4.559  15.123  0.00  0.00    +0.000 C 
ENDBRANCH  14  15
ENDBRANCH  13  14
ENDBRANCH   1  13
TORSDOF 7
ENDMDL
MODEL 7
REMARK VINA RESULT:      -5.0      2.607      3.478
REMARK  Name = 
REMARK  9 active torsions:
REMARK  status: ('A' for Active; 'I' for Inactive)
REMARK    1  A    between atoms: C_1  and  O_2
REMARK    2  A    between atoms: O_2  and  C_3
REMARK    3  A    between atoms: C_3  and  C_4
REMARK    4  A    between atoms: C_4  and  N_5
REMARK    5  A    between atoms: N_5  and  C_6
REMARK    6  A    between atoms: N_5  and  C_10
REMARK    7  A    between atoms: C_6  and  C_7
REMARK    8  A    between atoms: C_7  and  O_8
REMARK    9  A    between atoms: O_8  and  C_9
REMARK                            x       y       z     vdW  Elec       q    Type
REMARK                         _______ _______ _______ _____ _____    ______ ____
ROOT
ATOM      1  N   UNL     1       4.268   3.325  17.694  0.00  0.00    +0.000 NA
ENDROOT
BRANCH   1   2
ATOM      2  C   UNL     1       2.843   2.899  17.792  0.00  0.00    +0.000 C 
ATOM      3  C   UNL     1       1.810   4.049  17.806  0.00  0.00    +0.000 C 
ATOM      4  C   UNL     1       1.474   4.613  19.187  0.00  0.00    +0.000 C 
ATOM      5  N   UNL     1       1.139   3.579  20.169  0.00  0.00    +0.000 NA
ATOM      6  C   UNL     1       2.170   2.552  20.261  0.00  0.00    +0.000 C 
ATOM      7  C   UNL     1       2.483   1.900  18.913  0.00  0.00    +0.000 C 
ATOM      8  H   UNL     1       0.260   3.142  19.894  0.00  0.00    +0.000 HD
ENDBRANCH   1   2
BRANCH   1   9
ATOM      9  C   UNL     1       4.515   4.384  16.692  0.00  0.00    +0.000 C 
BRANCH   9  10
ATOM     10  C   UNL     1       5.743   4.330  15.769  0.00  0.00    +0.000 C 
BRANCH  10  12
ATOM     11  C   UNL     1       5.227   6.616  15.798  0.00  0.00    +0.000 C 
ATOM     12  O   UNL     1       6.141   5.629  15.338  0.00  0.00    +0.000 OA
ENDBRANCH  10  12
ENDBRANCH   9  10
ENDBRANCH   1   9
BRANCH   1  13
ATOM     13  C   UNL     1       4.884   3.671  18.998  0.00  0.00    +0.000 C 
BRANCH  13  14
ATOM     14  C   UNL     1       5.291   5.139  19.256  0.00  0.00    +0.000 C 
BRANCH  14  15
ATOM     15  O   UNL     1       6.629   5.219  19.750  0.00  0.00    +0.000 OA
ATOM     16  C   UNL     1       7.513   5.794  18.798  0.00  0.00    +0.000 C 
ENDBRANCH  14  15
ENDBRANCH  13  14
ENDBRANCH   1  13
TORSDOF 7
ENDMDL
MODEL 8
REMARK VINA RESULT:      -4.9      2.552      3.611
REMARK  Name = 
REMARK  9 active torsions:
REMARK  status: ('A' for Active; 'I' for Inactive)
REMARK    1  A    between atoms: C_1  and  O_2
REMARK    2  A    between atoms: O_2  and  C_3
REMARK    3  A    between atoms: C_3  and  C_4
REMARK    4  A    between atoms: C_4  and  N_5
REMARK    5  A    between atoms: N_5  and  C_6
REMARK    6  A    between atoms: N_5  and  C_10
REMARK    7  A    between atoms: C_6  and  C_7
REMARK    8  A    between atoms: C_7  and  O_8
REMARK    9  A    between atoms: O_8  and  C_9
REMARK                            x       y       z     vdW  Elec       q    Type
REMARK                         _______ _______ _______ _____ _____    ______ ____
ROOT
ATOM      1  N   UNL     1       5.088   5.035  18.020  0.00  0.00    +0.000 NA
ENDROOT
BRANCH   1   2
ATOM      2  C   UNL     1       3.845   4.596  18.715  0.00  0.00    +0.000 C 
ATOM      3  C   UNL     1       4.000   3.354  19.623  0.00  0.00    +0.000 C 
ATOM      4  C   UNL     1       3.791   2.005  18.932  0.00  0.00    +0.000 C 
ATOM      5  N   UNL     1       2.556   1.944  18.145  0.00  0.00    +0.000 NA
ATOM      6  C   UNL     1       2.457   3.041  17.189  0.00  0.00    +0.000 C 
ATOM      7  C   UNL     1       2.580   4.416  17.848  0.00  0.00    +0.000 C 
ATOM      8  H   UNL     1       1.762   1.987  18.783  0.00  0.00    +0.000 HD
ENDBRANCH   1   2
BRANCH   1   9
ATOM      9  C   UNL     1       4.861   6.009  16.932  0.00  0.00    +0.000 C 
BRANCH   9  10
ATOM     10  C   UNL     1       5.327   5.716  15.496  0.00  0.00    +0.000 C 
BRANCH  10  12
ATOM     11  C   UNL     1       6.347   4.079  14.165  0.00  0.00    +0.000 C 
ATOM     12  O   UNL     1       5.476   4.317  15.262  0.00  0.00    +0.000 OA
ENDBRANCH  10  12
ENDBRANCH   9  10
ENDBRANCH   1   9
BRANCH   1  13
ATOM     13  C   UNL     1       6.158   5.500  18.936  0.00  0.00    +0.000 C 
BRANCH  13  14
ATOM     14  C   UNL     1       7.590   5.658  18.378  0.00  0.00    +0.000 C 
BRANCH  14  15
ATOM     15  O   UNL     1       8.136   6.932  18.725  0.00  0.00    +0.000 OA
ATOM     16  C   UNL     1       7.866   7.913  17.734  0.00  0.00    +0.000 C 
ENDBRANCH  14  15
ENDBRANCH  13  14
ENDBRANCH   1  13
TORSDOF 7
ENDMDL
MODEL 9
REMARK VINA RESULT:      -4.9      2.521      5.305
REMARK  Name = 
REMARK  9 active torsions:
REMARK  status: ('A' for Active; 'I' for Inactive)
REMARK    1  A    between atoms: C_1  and  O_2
REMARK    2  A    between atoms: O_2  and  C_3
REMARK    3  A    between atoms: C_3  and  C_4
REMARK    4  A    between atoms: C_4  and  N_5
REMARK    5  A    between atoms: N_5  and  C_6
REMARK    6  A    between atoms: N_5  and  C_10
REMARK    7  A    between atoms: C_6  and  C_7
REMARK    8  A    between atoms: C_7  and  O_8
REMARK    9  A    between atoms: O_8  and  C_9
REMARK                            x       y       z     vdW  Elec       q    Type
REMARK                         _______ _______ _______ _____ _____    ______ ____
ROOT
ATOM      1  N   UNL     1       4.474   4.680  18.644  0.00  0.00    +0.000 NA
ENDROOT
BRANCH   1   2
ATOM      2  C   UNL     1       4.633   5.302  17.299  0.00  0.00    +0.000 C 
ATOM      3  C   UNL     1       5.322   4.411  16.238  0.00  0.00    +0.000 C 
ATOM      4  C   UNL     1       6.847   4.511  16.187  0.00  0.00    +0.000 C 
ATOM      5  N   UNL     1       7.335   5.891  16.128  0.00  0.00    +0.000 NA
ATOM      6  C   UNL     1       6.794   6.714  17.204  0.00  0.00    +0.000 C 
ATOM      7  C   UNL     1       5.265   6.709  17.244  0.00  0.00    +0.000 C 
ATOM      8  H   UNL     1       7.061   6.295  15.232  0.00  0.00    +0.000 HD
ENDBRANCH   1   2
BRANCH   1   9
ATOM      9  C   UNL     1       3.796   5.544  19.633  0.00  0.00    +0.000 C 
BRANCH   9  10
ATOM     10  C   UNL     1       2.374   6.070  19.382  0.00  0.00    +0.000 C 
BRANCH  10  12
ATOM     11  C   UNL     1       1.597   7.852  20.691  0.00  0.00    +0.000 C 
ATOM     12  O   UNL     1       2.301   7.488  19.512  0.00  0.00    +0.000 OA
ENDBRANCH  10  12
ENDBRANCH   9  10
ENDBRANCH   1   9
BRANCH   1  13
ATOM     13  C   UNL     1       3.869   3.326  18.614  0.00  0.00    +0.000 C 
BRANCH  13  14
ATOM     14  C   UNL     1       3.629   2.596  19.955  0.00  0.00    +0.000 C 
BRANCH  14  15
ATOM     15  O   UNL     1       2.234   2.394  20.184  0.00  0.00    +0.000 OA
ATOM     16  C   UNL     1       1.863   2.715  21.517  0.00  0.00    +0.000 C 
ENDBRANCH  14  15
ENDBRANCH  13  14
ENDBRANCH   1  13
TORSDOF 7
ENDMDL
