MODEL 1
REMARK VINA RESULT:      -7.1      0.000      0.000
REMARK  Name = 
REMARK  9 active torsions:
REMARK  status: ('A' for Active; 'I' for Inactive)
REMARK    1  A    between atoms: C_1  and  C_2
REMARK    2  A    between atoms: C_2  and  N_3
REMARK    3  A    between atoms: C_4  and  C_6
REMARK    4  A    between atoms: C_7  and  C_8
REMARK    5  A    between atoms: C_8  and  C_9
REMARK    6  A    between atoms: C_9  and  C_10
REMARK    7  A    between atoms: C_11  and  C_12
REMARK    8  A    between atoms: C_15  and  C_16
REMARK    9  A    between atoms: C_19  and  C_20
REMARK                            x       y       z     vdW  Elec       q    Type
REMARK                         _______ _______ _______ _____ _____    ______ ____
ROOT
ATOM      1  C   UNL     1       2.301   7.607  19.031  0.00  0.00    +0.000 A 
ATOM      2  C   UNL     1       1.929   8.633  18.204  0.00  0.00    +0.000 A 
ATOM      3  C   UNL     1       1.170   9.576  18.929  0.00  0.00    +0.000 A 
ATOM      4  C   UNL     1       1.059   9.195  20.251  0.00  0.00    +0.000 A 
ATOM      5  S   UNL     1       1.807   7.731  20.619  0.00  0.00    +0.000 S 
ENDROOT
BRANCH   4   6
ATOM      6  C   UNL     1       0.335   9.810  21.279  0.00  0.00    +0.000 A 
ATOM      7  C   UNL     1      -0.080   9.234  22.458  0.00  0.00    +0.000 A 
ATOM      8  C   UNL     1      -0.855  10.138  23.206  0.00  0.00    +0.000 A 
ATOM      9  C   UNL     1      -1.000  11.337  22.543  0.00  0.00    +0.000 A 
ATOM     10  S   UNL     1      -0.238  11.371  21.034  0.00  0.00    +0.000 S 
BRANCH   9  11
ATOM     11  C   UNL     1      -1.643  12.512  22.997  0.00  0.00    +0.000 A 
ATOM     12  C   UNL     1      -1.068  13.748  23.203  0.00  0.00    +0.000 A 
ATOM     13  C   UNL     1      -2.019  14.675  23.690  0.00  0.00    +0.000 A 
ATOM     14  C   UNL     1      -3.257  14.100  23.865  0.00  0.00    +0.000 A 
ATOM     15  S   UNL     1      -3.284  12.455  23.450  0.00  0.00    +0.000 S 
ENDBRANCH   9  11
ENDBRANCH   4   6
BRANCH   1  17
ATOM     16  C   UNL     1       3.754   5.457  18.362  0.00  0.00    +0.000 C 
ATOM     17  C   UNL     1       3.031   6.492  18.686  0.00  0.00    +0.000 C 
BRANCH  16  18
ATOM     18  C   UNL     1       4.598   4.251  17.983  0.00  0.00    +0.000 C 
BRANCH  18  19
ATOM     19  C   UNL     1       6.089   4.519  18.238  0.00  0.00    +0.000 C 
BRANCH  19  21
ATOM     20  C   UNL     1       7.678   6.491  18.314  0.00  0.00    +0.000 C 
ATOM     21  C   UNL     1       6.488   5.956  17.997  0.00  0.00    +0.000 C 
BRANCH  20  23
ATOM     22  N   UNL     1       8.723   8.577  18.968  0.00  0.00    +0.000 N 
ATOM     23  C   UNL     1       7.959   7.922  18.026  0.00  0.00    +0.000 C 
ATOM     24  O   UNL     1       7.511   8.479  17.016  0.00  0.00    +0.000 OA
ATOM     25  H   UNL     1       9.085   8.068  19.772  0.00  0.00    +0.000 HD
BRANCH  22  27
ATOM     26  C   UNL     1       9.435  10.631  20.102  0.00  0.00    +0.000 C 
ATOM     27  C   UNL     1       9.093   9.958  18.783  0.00  0.00    +0.000 C 
ENDBRANCH  22  27
ENDBRANCH  20  23
ENDBRANCH  19  21
ENDBRANCH  18  19
ENDBRANCH  16  18
ENDBRANCH   1  17
TORSDOF 8
ENDMDL
MODEL 2
REMARK VINA RESULT:      -7.0      4.166      5.505
REMARK  Name = 
REMARK  9 active torsions:
REMARK  status: ('A' for Active; 'I' for Inactive)
REMARK    1  A    between atoms: C_1  and  C_2
REMARK    2  A    between atoms: C_2  and  N_3
REMARK    3  A    between atoms: C_4  and  C_6
REMARK    4  A    between atoms: C_7  and  C_8
REMARK    5  A    between atoms: C_8  and  C_9
REMARK    6  A    between atoms: C_9  and  C_10
REMARK    7  A    between atoms: C_11  and  C_12
REMARK    8  A    between atoms: C_15  and  C_16
REMARK    9  A    between atoms: C_19  and  C_20
REMARK                            x       y       z     vdW  Elec       q    Type
REMARK                         _______ _______ _______ _____ _____    ______ ____
ROOT
ATOM      1  C   UNL     1       3.353   6.386  18.615  0.00  0.00    +0.000 A 
ATOM      2  C   UNL     1       2.844   5.971  19.816  0.00  0.00    +0.000 A 
ATOM      3  C   UNL     1       1.930   6.929  20.301  0.00  0.00    +0.000 A 
ATOM      4  C   UNL     1       1.804   7.974  19.408  0.00  0.00    +0.000 A 
ATOM      5  S   UNL     1       2.778   7.840  18.039  0.00  0.00    +0.000 S 
ENDROOT
BRANCH   4   6
ATOM      6  C   UNL     1       1.059   9.151  19.541  0.00  0.00    +0.000 A 
ATOM      7  C   UNL     1       0.902  10.141  18.598  0.00  0.00    +0.000 A 
ATOM      8  C   UNL     1       0.152  11.210  19.122  0.00  0.00    +0.000 A 
ATOM      9  C   UNL     1      -0.197  10.977  20.434  0.00  0.00    +0.000 A 
ATOM     10  S   UNL     1       0.386   9.510  21.038  0.00  0.00    +0.000 S 
BRANCH   9  11
ATOM     11  C   UNL     1      -1.006  11.777  21.276  0.00  0.00    +0.000 A 
ATOM     12  C   UNL     1      -1.101  11.705  22.649  0.00  0.00    +0.000 A 
ATOM     13  C   UNL     1      -2.035  12.645  23.142  0.00  0.00    +0.000 A 
ATOM     14  C   UNL     1      -2.631  13.361  22.129  0.00  0.00    +0.000 A 
ATOM     15  S   UNL     1      -2.077  12.910  20.590  0.00  0.00    +0.000 S 
ENDBRANCH   9  11
ENDBRANCH   4   6
BRANCH   1  17
ATOM     16  C   UNL     1       5.143   5.094  17.095  0.00  0.00    +0.000 C 
ATOM     17  C   UNL     1       4.287   5.731  17.843  0.00  0.00    +0.000 C 
BRANCH  16  18
ATOM     18  C   UNL     1       6.140   4.349  16.222  0.00  0.00    +0.000 C 
BRANCH  18  19
ATOM     19  C   UNL     1       6.359   5.080  14.888  0.00  0.00    +0.000 C 
BRANCH  19  21
ATOM     20  C   UNL     1       6.125   3.357  13.046  0.00  0.00    +0.000 C 
ATOM     21  C   UNL     1       5.661   4.420  13.722  0.00  0.00    +0.000 C 
BRANCH  20  23
ATOM     22  N   UNL     1       4.234   3.513  11.539  0.00  0.00    +0.000 N 
ATOM     23  C   UNL     1       5.346   2.789  11.914  0.00  0.00    +0.000 C 
ATOM     24  O   UNL     1       5.674   1.728  11.370  0.00  0.00    +0.000 OA
ATOM     25  H   UNL     1       4.018   4.392  12.005  0.00  0.00    +0.000 HD
BRANCH  22  27
ATOM     26  C   UNL     1       2.912   4.264   9.614  0.00  0.00    +0.000 C 
ATOM     27  C   UNL     1       3.419   3.085  10.430  0.00  0.00    +0.000 C 
ENDBRANCH  22  27
ENDBRANCH  20  23
ENDBRANCH  19  21
ENDBRANCH  18  19
ENDBRANCH  16  18
ENDBRANCH   1  17
TORSDOF 8
ENDMDL
MODEL 3
REMARK VINA RESULT:      -7.0      3.481      4.674
REMARK  Name = 
REMARK  9 active torsions:
REMARK  status: ('A' for Active; 'I' for Inactive)
REMARK    1  A    between atoms: C_1  and  C_2
REMARK    2  A    between atoms: C_2  and  N_3
REMARK    3  A    between atoms: C_4  and  C_6
REMARK    4  A    between atoms: C_7  and  C_8
REMARK    5  A    between atoms: C_8  and  C_9
REMARK    6  A    between atoms: C_9  and  C_10
REMARK    7  A    between atoms: C_11  and  C_12
REMARK    8  A    between atoms: C_15  and  C_16
REMARK    9  A    between atoms: C_19  and  C_20
REMARK                            x       y       z     vdW  Elec       q    Type
REMARK                         _______ _______ _______ _____ _____    ______ ____
ROOT
ATOM      1  C   UNL     1       2.105   8.121  19.223  0.00  0.00    +0.000 A 
ATOM      2  C   UNL     1       1.830   7.626  20.470  0.00  0.00    +0.000 A 
ATOM      3  C   UNL     1       0.861   8.435  21.099  0.00  0.00    +0.000 A 
ATOM      4  C   UNL     1       0.464   9.457  20.260  0.00  0.00    +0.000 A 
ATOM      5  S   UNL     1       1.251   9.479  18.770  0.00  0.00    +0.000 S 
ENDROOT
BRANCH   4   6
ATOM      6  C   UNL     1      -0.418  10.511  20.524  0.00  0.00    +0.000 A 
ATOM      7  C   UNL     1      -0.966  11.380  19.609  0.00  0.00    +0.000 A 
ATOM      8  C   UNL     1      -1.741  12.359  20.257  0.00  0.00    +0.000 A 
ATOM      9  C   UNL     1      -1.717  12.189  21.623  0.00  0.00    +0.000 A 
ATOM     10  S   UNL     1      -0.762  10.887  22.126  0.00  0.00    +0.000 S 
BRANCH   9  11
ATOM     11  C   UNL     1      -2.424  12.921  22.606  0.00  0.00    +0.000 A 
ATOM     12  C   UNL     1      -3.227  12.412  23.605  0.00  0.00    +0.000 A 
ATOM     13  C   UNL     1      -3.792  13.452  24.379  0.00  0.00    +0.000 A 
ATOM     14  C   UNL     1      -3.427  14.696  23.919  0.00  0.00    +0.000 A 
ATOM     15  S   UNL     1      -2.411  14.624  22.561  0.00  0.00    +0.000 S 
ENDBRANCH   9  11
ENDBRANCH   4   6
BRANCH   1  17
ATOM     16  C   UNL     1       3.837   7.121  17.440  0.00  0.00    +0.000 C 
ATOM     17  C   UNL     1       3.009   7.617  18.315  0.00  0.00    +0.000 C 
BRANCH  16  18
ATOM     18  C   UNL     1       4.802   6.543  16.417  0.00  0.00    +0.000 C 
BRANCH  18  19
ATOM     19  C   UNL     1       4.834   5.008  16.496  0.00  0.00    +0.000 C 
BRANCH  19  21
ATOM     20  C   UNL     1       2.748   3.763  17.215  0.00  0.00    +0.000 C 
ATOM     21  C   UNL     1       3.869   4.441  17.510  0.00  0.00    +0.000 C 
BRANCH  20  23
ATOM     22  N   UNL     1       1.904   3.969  19.477  0.00  0.00    +0.000 N 
ATOM     23  C   UNL     1       1.875   3.248  18.302  0.00  0.00    +0.000 C 
ATOM     24  O   UNL     1       1.190   2.229  18.154  0.00  0.00    +0.000 OA
ATOM     25  H   UNL     1       2.470   4.814  19.541  0.00  0.00    +0.000 HD
BRANCH  22  27
ATOM     26  C   UNL     1       1.864   2.848  21.658  0.00  0.00    +0.000 C 
ATOM     27  C   UNL     1       1.073   3.591  20.592  0.00  0.00    +0.000 C 
ENDBRANCH  22  27
ENDBRANCH  20  23
ENDBRANCH  19  21
ENDBRANCH  18  19
ENDBRANCH  16  18
ENDBRANCH   1  17
TORSDOF 8
ENDMDL
MODEL 4
REMARK VINA RESULT:      -7.0      3.465      4.541
REMARK  Name = 
REMARK  9 active torsions:
REMARK  status: ('A' for Active; 'I' for Inactive)
REMARK    1  A    between atoms: C_1  and  C_2
REMARK    2  A    between atoms: C_2  and  N_3
REMARK    3  A    between atoms: C_4  and  C_6
REMARK    4  A    between atoms: C_7  and  C_8
REMARK    5  A    between atoms: C_8  and  C_9
REMARK    6  A    between atoms: C_9  and  C_10
REMARK    7  A    between atoms: C_11  and  C_12
REMARK    8  A    between atoms: C_15  and  C_16
REMARK    9  A    between atoms: C_19  and  C_20
REMARK                            x       y       z     vdW  Elec       q    Type
REMARK                         _______ _______ _______ _____ _____    ______ ____
ROOT
ATOM      1  C   UNL     1       2.613   7.677  18.625  0.00  0.00    +0.000 A 
ATOM      2  C   UNL     1       2.362   7.211  19.887  0.00  0.00    +0.000 A 
ATOM      3  C   UNL     1       1.395   8.026  20.511  0.00  0.00    +0.000 A 
ATOM      4  C   UNL     1       0.975   9.023  19.653  0.00  0.00    +0.000 A 
ATOM      5  S   UNL     1       1.739   9.015  18.151  0.00  0.00    +0.000 S 
ENDROOT
BRANCH   4   6
ATOM      6  C   UNL     1       0.086  10.074  19.905  0.00  0.00    +0.000 A 
ATOM      7  C   UNL     1      -0.694  10.736  18.984  0.00  0.00    +0.000 A 
ATOM      8  C   UNL     1      -1.396  11.790  19.596  0.00  0.00    +0.000 A 
ATOM      9  C   UNL     1      -1.092  11.879  20.936  0.00  0.00    +0.000 A 
ATOM     10  S   UNL     1       0.037  10.731  21.451  0.00  0.00    +0.000 S 
BRANCH   9  11
ATOM     11  C   UNL     1      -1.645  12.757  21.899  0.00  0.00    +0.000 A 
ATOM     12  C   UNL     1      -1.013  13.277  23.008  0.00  0.00    +0.000 A 
ATOM     13  C   UNL     1      -1.893  14.094  23.756  0.00  0.00    +0.000 A 
ATOM     14  C   UNL     1      -3.154  14.131  23.207  0.00  0.00    +0.000 A 
ATOM     15  S   UNL     1      -3.289  13.189  21.801  0.00  0.00    +0.000 S 
ENDBRANCH   9  11
ENDBRANCH   4   6
BRANCH   1  17
ATOM     16  C   UNL     1       4.349   6.635  16.869  0.00  0.00    +0.000 C 
ATOM     17  C   UNL     1       3.509   7.159  17.716  0.00  0.00    +0.000 C 
BRANCH  16  18
ATOM     18  C   UNL     1       5.329   6.022  15.882  0.00  0.00    +0.000 C 
BRANCH  18  19
ATOM     19  C   UNL     1       5.215   4.490  15.870  0.00  0.00    +0.000 C 
BRANCH  19  21
ATOM     20  C   UNL     1       3.205   3.422  16.983  0.00  0.00    +0.000 C 
ATOM     21  C   UNL     1       4.443   3.939  17.046  0.00  0.00    +0.000 C 
BRANCH  20  23
ATOM     22  N   UNL     1       1.708   3.795  18.852  0.00  0.00    +0.000 N 
ATOM     23  C   UNL     1       2.544   2.906  18.211  0.00  0.00    +0.000 C 
ATOM     24  O   UNL     1       2.757   1.761  18.628  0.00  0.00    +0.000 OA
ATOM     25  H   UNL     1       1.551   4.720  18.457  0.00  0.00    +0.000 HD
BRANCH  22  27
ATOM     26  C   UNL     1       1.752   3.725  21.303  0.00  0.00    +0.000 C 
ATOM     27  C   UNL     1       0.982   3.400  20.033  0.00  0.00    +0.000 C 
ENDBRANCH  22  27
ENDBRANCH  20  23
ENDBRANCH  19  21
ENDBRANCH  18  19
ENDBRANCH  16  18
ENDBRANCH   1  17
TORSDOF 8
ENDMDL
MODEL 5
REMARK VINA RESULT:      -7.0      3.229      4.201
REMARK  Name = 
REMARK  9 active torsions:
REMARK  status: ('A' for Active; 'I' for Inactive)
REMARK    1  A    between atoms: C_1  and  C_2
REMARK    2  A    between atoms: C_2  and  N_3
REMARK    3  A    between atoms: C_4  and  C_6
REMARK    4  A    between atoms: C_7  and  C_8
REMARK    5  A    between atoms: C_8  and  C_9
REMARK    6  A    between atoms: C_9  and  C_10
REMARK    7  A    between atoms: C_11  and  C_12
REMARK    8  A    between atoms: C_15  and  C_16
REMARK    9  A    between atoms: C_19  and  C_20
REMARK                            x       y       z     vdW  Elec       q    Type
REMARK                         _______ _______ _______ _____ _____    ______ ____
ROOT
ATOM      1  C   UNL     1       2.437   7.851  18.758  0.00  0.00    +0.000 A 
ATOM      2  C   UNL     1       2.185   7.307  19.988  0.00  0.00    +0.000 A 
ATOM      3  C   UNL     1       1.279   8.127  20.694  0.00  0.00    +0.000 A 
ATOM      4  C   UNL     1       0.901   9.207  19.921  0.00  0.00    +0.000 A 
ATOM      5  S   UNL     1       1.633   9.269  18.405  0.00  0.00    +0.000 S 
ENDROOT
BRANCH   4   6
ATOM      6  C   UNL     1       0.080  10.285  20.271  0.00  0.00    +0.000 A 
ATOM      7  C   UNL     1      -0.358  11.294  19.443  0.00  0.00    +0.000 A 
ATOM      8  C   UNL     1      -1.096  12.245  20.169  0.00  0.00    +0.000 A 
ATOM      9  C   UNL     1      -1.157  11.915  21.505  0.00  0.00    +0.000 A 
ATOM     10  S   UNL     1      -0.321  10.496  21.889  0.00  0.00    +0.000 S 
BRANCH   9  11
ATOM     11  C   UNL     1      -1.864  12.579  22.536  0.00  0.00    +0.000 A 
ATOM     12  C   UNL     1      -3.046  12.180  23.123  0.00  0.00    +0.000 A 
ATOM     13  C   UNL     1      -3.467  13.114  24.098  0.00  0.00    +0.000 A 
ATOM     14  C   UNL     1      -2.613  14.189  24.186  0.00  0.00    +0.000 A 
ATOM     15  S   UNL     1      -1.311  14.086  23.103  0.00  0.00    +0.000 S 
ENDBRANCH   9  11
ENDBRANCH   4   6
BRANCH   1  17
ATOM     16  C   UNL     1       4.113   6.895  16.898  0.00  0.00    +0.000 C 
ATOM     17  C   UNL     1       3.283   7.353  17.792  0.00  0.00    +0.000 C 
BRANCH  16  18
ATOM     18  C   UNL     1       5.082   6.361  15.855  0.00  0.00    +0.000 C 
BRANCH  18  19
ATOM     19  C   UNL     1       5.662   5.004  16.285  0.00  0.00    +0.000 C 
BRANCH  19  21
ATOM     20  C   UNL     1       5.389   3.918  18.557  0.00  0.00    +0.000 C 
ATOM     21  C   UNL     1       4.875   4.341  17.391  0.00  0.00    +0.000 C 
BRANCH  20  23
ATOM     22  N   UNL     1       3.335   3.942  19.842  0.00  0.00    +0.000 N 
ATOM     23  C   UNL     1       4.514   3.280  19.576  0.00  0.00    +0.000 C 
ATOM     24  O   UNL     1       4.846   2.237  20.152  0.00  0.00    +0.000 OA
ATOM     25  H   UNL     1       3.099   4.788  19.325  0.00  0.00    +0.000 HD
BRANCH  22  27
ATOM     26  C   UNL     1       0.956   3.762  20.410  0.00  0.00    +0.000 C 
ATOM     27  C   UNL     1       2.386   3.404  20.783  0.00  0.00    +0.000 C 
ENDBRANCH  22  27
ENDBRANCH  20  23
ENDBRANCH  19  21
ENDBRANCH  18  19
ENDBRANCH  16  18
ENDBRANCH   1  17
TORSDOF 8
ENDMDL
MODEL 6
REMARK VINA RESULT:      -6.9      3.561      4.449
REMARK  Name = 
REMARK  9 active torsions:
REMARK  status: ('A' for Active; 'I' for Inactive)
REMARK    1  A    between atoms: C_1  and  C_2
REMARK    2  A    between atoms: C_2  and  N_3
REMARK    3  A    between atoms: C_4  and  C_6
REMARK    4  A    between atoms: C_7  and  C_8
REMARK    5  A    between atoms: C_8  and  C_9
REMARK    6  A    between atoms: C_9  and  C_10
REMARK    7  A    between atoms: C_11  and  C_12
REMARK    8  A    between atoms: C_15  and  C_16
REMARK    9  A    between atoms: C_19  and  C_20
REMARK                            x       y       z     vdW  Elec       q    Type
REMARK                         _______ _______ _______ _____ _____    ______ ____
ROOT
ATOM      1  C   UNL     1       1.945   7.651  19.352  0.00  0.00    +0.000 A 
ATOM      2  C   UNL     1       2.500   7.965  18.141  0.00  0.00    +0.000 A 
ATOM      3  C   UNL     1       2.163   9.290  17.792  0.00  0.00    +0.000 A 
ATOM      4  C   UNL     1       1.405   9.874  18.788  0.00  0.00    +0.000 A 
ATOM      5  S   UNL     1       1.068   8.861  20.091  0.00  0.00    +0.000 S 
ENDROOT
BRANCH   4   6
ATOM      6  C   UNL     1       0.811  11.141  18.803  0.00  0.00    +0.000 A 
ATOM      7  C   UNL     1      -0.511  11.438  18.565  0.00  0.00    +0.000 A 
ATOM      8  C   UNL     1      -0.719  12.829  18.585  0.00  0.00    +0.000 A 
ATOM      9  C   UNL     1       0.460  13.505  18.814  0.00  0.00    +0.000 A 
ATOM     10  S   UNL     1       1.800  12.488  18.981  0.00  0.00    +0.000 S 
BRANCH   9  11
ATOM     11  C   UNL     1       0.649  14.898  18.976  0.00  0.00    +0.000 A 
ATOM     12  C   UNL     1      -0.311  15.836  19.293  0.00  0.00    +0.000 A 
ATOM     13  C   UNL     1       0.246  17.135  19.339  0.00  0.00    +0.000 A 
ATOM     14  C   UNL     1       1.586  17.134  19.025  0.00  0.00    +0.000 A 
ATOM     15  S   UNL     1       2.178  15.583  18.672  0.00  0.00    +0.000 S 
ENDBRANCH   9  11
ENDBRANCH   4   6
BRANCH   1  17
ATOM     16  C   UNL     1       2.080   5.307  20.644  0.00  0.00    +0.000 C 
ATOM     17  C   UNL     1       2.034   6.447  20.014  0.00  0.00    +0.000 C 
BRANCH  16  18
ATOM     18  C   UNL     1       2.133   3.978  21.380  0.00  0.00    +0.000 C 
BRANCH  18  19
ATOM     19  C   UNL     1       2.817   2.900  20.524  0.00  0.00    +0.000 C 
BRANCH  19  21
ATOM     20  C   UNL     1       3.944   3.354  18.301  0.00  0.00    +0.000 C 
ATOM     21  C   UNL     1       3.914   3.446  19.640  0.00  0.00    +0.000 C 
BRANCH  20  23
ATOM     22  N   UNL     1       6.233   4.148  18.257  0.00  0.00    +0.000 N 
ATOM     23  C   UNL     1       5.079   3.934  17.534  0.00  0.00    +0.000 C 
ATOM     24  O   UNL     1       4.972   4.218  16.336  0.00  0.00    +0.000 OA
ATOM     25  H   UNL     1       6.277   3.877  19.238  0.00  0.00    +0.000 HD
BRANCH  22  27
ATOM     26  C   UNL     1       7.540   6.174  17.810  0.00  0.00    +0.000 C 
ATOM     27  C   UNL     1       7.414   4.671  17.617  0.00  0.00    +0.000 C 
ENDBRANCH  22  27
ENDBRANCH  20  23
ENDBRANCH  19  21
ENDBRANCH  18  19
ENDBRANCH  16  18
ENDBRANCH   1  17
TORSDOF 8
ENDMDL
MODEL 7
REMARK VINA RESULT:      -6.8      3.935      5.118
REMARK  Name = 
REMARK  9 active torsions:
REMARK  status: ('A' for Active; 'I' for Inactive)
REMARK    1  A    between atoms: C_1  and  C_2
REMARK    2  A    between atoms: C_2  and  N_3
REMARK    3  A    between atoms: C_4  and  C_6
REMARK    4  A    between atoms: C_7  and  C_8
REMARK    5  A    between atoms: C_8  and  C_9
REMARK    6  A    between atoms: C_9  and  C_10
REMARK    7  A    between atoms: C_11  and  C_12
REMARK    8  A    between atoms: C_15  and  C_16
REMARK    9  A    between atoms: C_19  and  C_20
REMARK                            x       y       z     vdW  Elec       q    Type
REMARK                         _______ _______ _______ _____ _____    ______ ____
ROOT
ATOM      1  C   UNL     1       2.423   8.028  18.746  0.00  0.00    +0.000 A 
ATOM      2  C   UNL     1       2.017   7.636  19.994  0.00  0.00    +0.000 A 
ATOM      3  C   UNL     1       1.129   8.593  20.527  0.00  0.00    +0.000 A 
ATOM      4  C   UNL     1       0.915   9.614  19.622  0.00  0.00    +0.000 A 
ATOM      5  S   UNL     1       1.780   9.460  18.183  0.00  0.00    +0.000 S 
ENDROOT
BRANCH   4   6
ATOM      6  C   UNL     1       0.165  10.784  19.786  0.00  0.00    +0.000 A 
ATOM      7  C   UNL     1      -1.130  10.878  20.241  0.00  0.00    +0.000 A 
ATOM      8  C   UNL     1      -1.577  12.211  20.191  0.00  0.00    +0.000 A 
ATOM      9  C   UNL     1      -0.605  13.043  19.682  0.00  0.00    +0.000 A 
ATOM     10  S   UNL     1       0.816  12.236  19.247  0.00  0.00    +0.000 S 
BRANCH   9  11
ATOM     11  C   UNL     1      -0.648  14.451  19.543  0.00  0.00    +0.000 A 
ATOM     12  C   UNL     1       0.081  15.222  18.663  0.00  0.00    +0.000 A 
ATOM     13  C   UNL     1      -0.206  16.596  18.835  0.00  0.00    +0.000 A 
ATOM     14  C   UNL     1      -1.107  16.811  19.853  0.00  0.00    +0.000 A 
ATOM     15  S   UNL     1      -1.607  15.375  20.604  0.00  0.00    +0.000 S 
ENDBRANCH   9  11
ENDBRANCH   4   6
BRANCH   1  17
ATOM     16  C   UNL     1       4.107   6.725  17.119  0.00  0.00    +0.000 C 
ATOM     17  C   UNL     1       3.303   7.368  17.918  0.00  0.00    +0.000 C 
BRANCH  16  18
ATOM     18  C   UNL     1       5.043   5.974  16.187  0.00  0.00    +0.000 C 
BRANCH  18  19
ATOM     19  C   UNL     1       4.815   4.457  16.279  0.00  0.00    +0.000 C 
BRANCH  19  21
ATOM     20  C   UNL     1       2.647   3.495  17.169  0.00  0.00    +0.000 C 
ATOM     21  C   UNL     1       3.846   4.064  17.370  0.00  0.00    +0.000 C 
BRANCH  20  23
ATOM     22  N   UNL     1       1.906   3.964  19.427  0.00  0.00    +0.000 N 
ATOM     23  C   UNL     1       1.777   3.148  18.324  0.00  0.00    +0.000 C 
ATOM     24  O   UNL     1       1.012   2.177  18.290  0.00  0.00    +0.000 OA
ATOM     25  H   UNL     1       2.536   4.764  19.398  0.00  0.00    +0.000 HD
BRANCH  22  27
ATOM     26  C   UNL     1       1.792   2.874  21.621  0.00  0.00    +0.000 C 
ATOM     27  C   UNL     1       1.090   3.752  20.597  0.00  0.00    +0.000 C 
ENDBRANCH  22  27
ENDBRANCH  20  23
ENDBRANCH  19  21
ENDBRANCH  18  19
ENDBRANCH  16  18
ENDBRANCH   1  17
TORSDOF 8
ENDMDL
MODEL 8
REMARK VINA RESULT:      -6.8      3.037      4.282
REMARK  Name = 
REMARK  9 active torsions:
REMARK  status: ('A' for Active; 'I' for Inactive)
REMARK    1  A    between atoms: C_1  and  C_2
REMARK    2  A    between atoms: C_2  and  N_3
REMARK    3  A    between atoms: C_4  and  C_6
REMARK    4  A    between atoms: C_7  and  C_8
REMARK    5  A    between atoms: C_8  and  C_9
REMARK    6  A    between atoms: C_9  and  C_10
REMARK    7  A    between atoms: C_11  and  C_12
REMARK    8  A    between atoms: C_15  and  C_16
REMARK    9  A    between atoms: C_19  and  C_20
REMARK                            x       y       z     vdW  Elec       q    Type
REMARK                         _______ _______ _______ _____ _____    ______ ____
ROOT
ATOM      1  C   UNL     1       1.416   9.549  18.985  0.00  0.00    +0.000 A 
ATOM      2  C   UNL     1       1.361  10.767  18.364  0.00  0.00    +0.000 A 
ATOM      3  C   UNL     1       0.525  11.636  19.097  0.00  0.00    +0.000 A 
ATOM      4  C   UNL     1       0.043  11.006  20.227  0.00  0.00    +0.000 A 
ATOM      5  S   UNL     1       0.542   9.405  20.398  0.00  0.00    +0.000 S 
ENDROOT
BRANCH   4   6
ATOM      6  C   UNL     1      -0.866  11.489  21.175  0.00  0.00    +0.000 A 
ATOM      7  C   UNL     1      -0.856  11.246  22.530  0.00  0.00    +0.000 A 
ATOM      8  C   UNL     1      -1.976  11.831  23.147  0.00  0.00    +0.000 A 
ATOM      9  C   UNL     1      -2.779  12.464  22.224  0.00  0.00    +0.000 A 
ATOM     10  S   UNL     1      -2.212  12.339  20.636  0.00  0.00    +0.000 S 
BRANCH   9  11
ATOM     11  C   UNL     1      -3.948  13.224  22.462  0.00  0.00    +0.000 A 
ATOM     12  C   UNL     1      -5.104  13.228  21.711  0.00  0.00    +0.000 A 
ATOM     13  C   UNL     1      -6.049  14.138  22.239  0.00  0.00    +0.000 A 
ATOM     14  C   UNL     1      -5.563  14.807  23.339  0.00  0.00    +0.000 A 
ATOM     15  S   UNL     1      -3.978  14.350  23.740  0.00  0.00    +0.000 S 
ENDBRANCH   9  11
ENDBRANCH   4   6
BRANCH   1  17
ATOM     16  C   UNL     1       2.742   7.378  18.140  0.00  0.00    +0.000 C 
ATOM     17  C   UNL     1       2.112   8.438  18.563  0.00  0.00    +0.000 C 
BRANCH  16  18
ATOM     18  C   UNL     1       3.475   6.142  17.646  0.00  0.00    +0.000 C 
BRANCH  18  19
ATOM     19  C   UNL     1       4.949   6.457  17.348  0.00  0.00    +0.000 C 
BRANCH  19  21
ATOM     20  C   UNL     1       6.407   5.170  15.724  0.00  0.00    +0.000 C 
ATOM     21  C   UNL     1       5.390   6.010  15.974  0.00  0.00    +0.000 C 
BRANCH  20  23
ATOM     22  N   UNL     1       6.078   3.704  13.823  0.00  0.00    +0.000 N 
ATOM     23  C   UNL     1       6.749   4.799  14.325  0.00  0.00    +0.000 C 
ATOM     24  O   UNL     1       7.595   5.427  13.678  0.00  0.00    +0.000 OA
ATOM     25  H   UNL     1       5.376   3.234  14.391  0.00  0.00    +0.000 HD
BRANCH  22  27
ATOM     26  C   UNL     1       4.987   3.111  11.708  0.00  0.00    +0.000 C 
ATOM     27  C   UNL     1       6.296   3.269  12.466  0.00  0.00    +0.000 C 
ENDBRANCH  22  27
ENDBRANCH  20  23
ENDBRANCH  19  21
ENDBRANCH  18  19
ENDBRANCH  16  18
ENDBRANCH   1  17
TORSDOF 8
ENDMDL
MODEL 9
REMARK VINA RESULT:      -6.7      2.162      2.848
REMARK  Name = 
REMARK  9 active torsions:
REMARK  status: ('A' for Active; 'I' for Inactive)
REMARK    1  A    between atoms: C_1  and  C_2
REMARK    2  A    between atoms: C_2  and  N_3
REMARK    3  A    between atoms: C_4  and  C_6
REMARK    4  A    between atoms: C_7  and  C_8
REMARK    5  A    between atoms: C_8  and  C_9
REMARK    6  A    between atoms: C_9  and  C_10
REMARK    7  A    between atoms: C_11  and  C_12
REMARK    8  A    between atoms: C_15  and  C_16
REMARK    9  A    between atoms: C_19  and  C_20
REMARK                            x       y       z     vdW  Elec       q    Type
REMARK                         _______ _______ _______ _____ _____    ______ ____
ROOT
ATOM      1  C   UNL     1       3.141   5.533  18.763  0.00  0.00    +0.000 A 
ATOM      2  C   UNL     1       2.604   4.961  19.885  0.00  0.00    +0.000 A 
ATOM      3  C   UNL     1       1.905   5.936  20.627  0.00  0.00    +0.000 A 
ATOM      4  C   UNL     1       1.948   7.157  19.984  0.00  0.00    +0.000 A 
ATOM      5  S   UNL     1       2.832   7.157  18.550  0.00  0.00    +0.000 S 
ENDROOT
BRANCH   4   6
ATOM      6  C   UNL     1       1.445   8.389  20.417  0.00  0.00    +0.000 A 
ATOM      7  C   UNL     1       1.091   8.734  21.701  0.00  0.00    +0.000 A 
ATOM      8  C   UNL     1       0.548  10.031  21.735  0.00  0.00    +0.000 A 
ATOM      9  C   UNL     1       0.500  10.584  20.474  0.00  0.00    +0.000 A 
ATOM     10  S   UNL     1       1.079   9.555  19.263  0.00  0.00    +0.000 S 
BRANCH   9  11
ATOM     11  C   UNL     1       0.090  11.888  20.109  0.00  0.00    +0.000 A 
ATOM     12  C   UNL     1       0.360  12.543  18.926  0.00  0.00    +0.000 A 
ATOM     13  C   UNL     1      -0.190  13.846  18.932  0.00  0.00    +0.000 A 
ATOM     14  C   UNL     1      -0.818  14.136  20.122  0.00  0.00    +0.000 A 
ATOM     15  S   UNL     1      -0.749  12.854  21.232  0.00  0.00    +0.000 S 
ENDBRANCH   9  11
ENDBRANCH   4   6
BRANCH   1  17
ATOM     16  C   UNL     1       4.603   4.318  16.874  0.00  0.00    +0.000 C 
ATOM     17  C   UNL     1       3.908   4.909  17.804  0.00  0.00    +0.000 C 
BRANCH  16  18
ATOM     18  C   UNL     1       5.412   3.629  15.787  0.00  0.00    +0.000 C 
BRANCH  18  19
ATOM     19  C   UNL     1       6.534   4.544  15.271  0.00  0.00    +0.000 C 
BRANCH  19  21
ATOM     20  C   UNL     1       7.000   6.630  16.630  0.00  0.00    +0.000 C 
ATOM     21  C   UNL     1       7.215   5.332  16.366  0.00  0.00    +0.000 C 
BRANCH  20  23
ATOM     22  N   UNL     1       8.044   8.626  17.525  0.00  0.00    +0.000 N 
ATOM     23  C   UNL     1       7.730   7.301  17.739  0.00  0.00    +0.000 C 
ATOM     24  O   UNL     1       8.044   6.691  18.768  0.00  0.00    +0.000 OA
ATOM     25  H   UNL     1       7.744   9.088  16.669  0.00  0.00    +0.000 HD
BRANCH  22  27
ATOM     26  C   UNL     1       8.870  10.852  18.138  0.00  0.00    +0.000 C 
ATOM     27  C   UNL     1       8.719   9.394  18.542  0.00  0.00    +0.000 C 
ENDBRANCH  22  27
ENDBRANCH  20  23
ENDBRANCH  19  21
ENDBRANCH  18  19
ENDBRANCH  16  18
ENDBRANCH   1  17
TORSDOF 8
ENDMDL
