MODEL 1
REMARK VINA RESULT:      -8.4      0.000      0.000
REMARK  Name = 
REMARK  6 active torsions:
REMARK  status: ('A' for Active; 'I' for Inactive)
REMARK    1  A    between atoms: C_2  and  C_3
REMARK    2  A    between atoms: C_3  and  C_4
REMARK    3  A    between atoms: C_4  and  C_5
REMARK    4  A    between atoms: N_11  and  C_12
REMARK    5  A    between atoms: C_15  and  C_16
REMARK    6  A    between atoms: C_16  and  C_18
REMARK                            x       y       z     vdW  Elec       q    Type
REMARK                         _______ _______ _______ _____ _____    ______ ____
ROOT
ATOM      1  C   UNL     1       5.883   6.850  17.159  0.00  0.00    +0.000 A 
ATOM      2  C   UNL     1       6.176   5.508  16.907  0.00  0.00    +0.000 A 
ATOM      3  C   UNL     1       5.201   4.519  17.078  0.00  0.00    +0.000 A 
ATOM      4  C   UNL     1       3.910   4.858  17.493  0.00  0.00    +0.000 A 
ATOM      5  C   UNL     1       3.613   6.200  17.756  0.00  0.00    +0.000 A 
ATOM      6  C   UNL     1       4.594   7.188  17.586  0.00  0.00    +0.000 A 
ENDROOT
BRANCH   1   9
ATOM      7  O   UNL     1       8.321   7.298  18.752  0.00  0.00    +0.000 OA
ATOM      8  C   UNL     1       7.941   8.072  17.881  0.00  0.00    +0.000 C 
ATOM      9  N   UNL     1       6.838   7.887  17.059  0.00  0.00    +0.000 N 
ATOM     10  H   UNL     1       6.736   8.516  16.273  0.00  0.00    +0.000 HD
BRANCH   8  11
ATOM     11  C   UNL     1       8.655   9.390  17.628  0.00  0.00    +0.000 C 
BRANCH  11  12
ATOM     12  C   UNL     1       9.034  10.059  18.950  0.00  0.00    +0.000 C 
BRANCH  12  13
ATOM     13  C   UNL     1       9.744  11.373  18.750  0.00  0.00    +0.000 A 
ATOM     14  C   UNL     1      10.591  11.565  17.655  0.00  0.00    +0.000 A 
ATOM     15  C   UNL     1      11.217  12.793  17.504  0.00  0.00    +0.000 A 
ATOM     16  N   UNL     1      11.067  13.824  18.362  0.00  0.00    +0.000 NA
ATOM     17  C   UNL     1      10.247  13.618  19.413  0.00  0.00    +0.000 A 
ATOM     18  C   UNL     1       9.575  12.428  19.650  0.00  0.00    +0.000 A 
ENDBRANCH  12  13
ENDBRANCH  11  12
ENDBRANCH   8  11
ENDBRANCH   1   9
BRANCH   4  19
ATOM     19  C   UNL     1       2.923   3.761  17.701  0.00  0.00    +0.000 C 
ATOM     20  O   UNL     1       2.488   3.151  16.725  0.00  0.00    +0.000 OA
BRANCH  19  21
ATOM     21  C   UNL     1       2.463   3.361  19.055  0.00  0.00    +0.000 A 
ATOM     22  C   UNL     1       1.098   3.426  19.344  0.00  0.00    +0.000 A 
ATOM     23  C   UNL     1       0.629   3.027  20.597  0.00  0.00    +0.000 A 
ATOM     24  C   UNL     1       1.525   2.570  21.561  0.00  0.00    +0.000 A 
ATOM     25  C   UNL     1       2.890   2.536  21.288  0.00  0.00    +0.000 A 
ATOM     26  C   UNL     1       3.365   2.946  20.042  0.00  0.00    +0.000 A 
ENDBRANCH  19  21
ENDBRANCH   4  19
TORSDOF 6
ENDMDL
MODEL 2
REMARK VINA RESULT:      -8.4      1.015      1.550
REMARK  Name = 
REMARK  6 active torsions:
REMARK  status: ('A' for Active; 'I' for Inactive)
REMARK    1  A    between atoms: C_2  and  C_3
REMARK    2  A    between atoms: C_3  and  C_4
REMARK    3  A    between atoms: C_4  and  C_5
REMARK    4  A    between atoms: N_11  and  C_12
REMARK    5  A    between atoms: C_15  and  C_16
REMARK    6  A    between atoms: C_16  and  C_18
REMARK                            x       y       z     vdW  Elec       q    Type
REMARK                         _______ _______ _______ _____ _____    ______ ____
ROOT
ATOM      1  C   UNL     1       6.322   6.647  17.507  0.00  0.00    +0.000 A 
ATOM      2  C   UNL     1       6.697   5.626  18.384  0.00  0.00    +0.000 A 
ATOM      3  C   UNL     1       5.904   4.482  18.530  0.00  0.00    +0.000 A 
ATOM      4  C   UNL     1       4.727   4.334  17.791  0.00  0.00    +0.000 A 
ATOM      5  C   UNL     1       4.341   5.357  16.918  0.00  0.00    +0.000 A 
ATOM      6  C   UNL     1       5.137   6.503  16.775  0.00  0.00    +0.000 A 
ENDROOT
BRANCH   1   9
ATOM      7  O   UNL     1       8.682   7.595  18.993  0.00  0.00    +0.000 OA
ATOM      8  C   UNL     1       8.124   8.262  18.130  0.00  0.00    +0.000 C 
ATOM      9  N   UNL     1       7.049   7.849  17.357  0.00  0.00    +0.000 N 
ATOM     10  H   UNL     1       6.795   8.430  16.568  0.00  0.00    +0.000 HD
BRANCH   8  11
ATOM     11  C   UNL     1       8.554   9.690  17.834  0.00  0.00    +0.000 C 
BRANCH  11  12
ATOM     12  C   UNL     1       9.235  10.312  19.054  0.00  0.00    +0.000 C 
BRANCH  12  13
ATOM     13  C   UNL     1      10.267  11.344  18.677  0.00  0.00    +0.000 A 
ATOM     14  C   UNL     1      11.394  11.548  19.479  0.00  0.00    +0.000 A 
ATOM     15  C   UNL     1      12.323  12.501  19.091  0.00  0.00    +0.000 A 
ATOM     16  N   UNL     1      12.205  13.259  17.980  0.00  0.00    +0.000 NA
ATOM     17  C   UNL     1      11.109  13.046  17.220  0.00  0.00    +0.000 A 
ATOM     18  C   UNL     1      10.126  12.118  17.523  0.00  0.00    +0.000 A 
ENDBRANCH  12  13
ENDBRANCH  11  12
ENDBRANCH   8  11
ENDBRANCH   1   9
BRANCH   4  19
ATOM     19  C   UNL     1       3.899   3.116  18.017  0.00  0.00    +0.000 C 
ATOM     20  O   UNL     1       4.041   2.145  17.275  0.00  0.00    +0.000 OA
BRANCH  19  21
ATOM     21  C   UNL     1       2.919   3.025  19.130  0.00  0.00    +0.000 A 
ATOM     22  C   UNL     1       3.389   2.727  20.412  0.00  0.00    +0.000 A 
ATOM     23  C   UNL     1       2.499   2.666  21.486  0.00  0.00    +0.000 A 
ATOM     24  C   UNL     1       1.140   2.895  21.276  0.00  0.00    +0.000 A 
ATOM     25  C   UNL     1       0.664   3.158  19.994  0.00  0.00    +0.000 A 
ATOM     26  C   UNL     1       1.548   3.208  18.917  0.00  0.00    +0.000 A 
ENDBRANCH  19  21
ENDBRANCH   4  19
TORSDOF 6
ENDMDL
MODEL 3
REMARK VINA RESULT:      -8.3      0.659      1.130
REMARK  Name = 
REMARK  6 active torsions:
REMARK  status: ('A' for Active; 'I' for Inactive)
REMARK    1  A    between atoms: C_2  and  C_3
REMARK    2  A    between atoms: C_3  and  C_4
REMARK    3  A    between atoms: C_4  and  C_5
REMARK    4  A    between atoms: N_11  and  C_12
REMARK    5  A    between atoms: C_15  and  C_16
REMARK    6  A    between atoms: C_16  and  C_18
REMARK                            x       y       z     vdW  Elec       q    Type
REMARK                         _______ _______ _______ _____ _____    ______ ____
ROOT
ATOM      1  C   UNL     1       6.268   6.721  17.301  0.00  0.00    +0.000 A 
ATOM      2  C   UNL     1       6.826   5.454  17.487  0.00  0.00    +0.000 A 
ATOM      3  C   UNL     1       6.008   4.336  17.690  0.00  0.00    +0.000 A 
ATOM      4  C   UNL     1       4.616   4.465  17.696  0.00  0.00    +0.000 A 
ATOM      5  C   UNL     1       4.052   5.733  17.519  0.00  0.00    +0.000 A 
ATOM      6  C   UNL     1       4.874   6.851  17.318  0.00  0.00    +0.000 A 
ENDROOT
BRANCH   1   9
ATOM      7  O   UNL     1       8.558   7.667  18.894  0.00  0.00    +0.000 OA
ATOM      8  C   UNL     1       8.075   8.312  17.970  0.00  0.00    +0.000 C 
ATOM      9  N   UNL     1       7.039   7.895  17.147  0.00  0.00    +0.000 N 
ATOM     10  H   UNL     1       6.852   8.449  16.321  0.00  0.00    +0.000 HD
BRANCH   8  11
ATOM     11  C   UNL     1       8.566   9.713  17.644  0.00  0.00    +0.000 C 
BRANCH  11  12
ATOM     12  C   UNL     1       9.150  10.383  18.888  0.00  0.00    +0.000 C 
BRANCH  12  13
ATOM     13  C   UNL     1       9.848  11.681  18.573  0.00  0.00    +0.000 A 
ATOM     14  C   UNL     1       9.444  12.872  19.182  0.00  0.00    +0.000 A 
ATOM     15  C   UNL     1      10.120  14.042  18.871  0.00  0.00    +0.000 A 
ATOM     16  N   UNL     1      11.150  14.107  18.000  0.00  0.00    +0.000 NA
ATOM     17  C   UNL     1      11.524  12.946  17.422  0.00  0.00    +0.000 A 
ATOM     18  C   UNL     1      10.913  11.727  17.669  0.00  0.00    +0.000 A 
ENDBRANCH  12  13
ENDBRANCH  11  12
ENDBRANCH   8  11
ENDBRANCH   1   9
BRANCH   4  19
ATOM     19  C   UNL     1       3.795   3.249  17.959  0.00  0.00    +0.000 C 
ATOM     20  O   UNL     1       3.855   2.303  17.176  0.00  0.00    +0.000 OA
BRANCH  19  21
ATOM     21  C   UNL     1       2.921   3.133  19.154  0.00  0.00    +0.000 A 
ATOM     22  C   UNL     1       1.557   3.404  19.014  0.00  0.00    +0.000 A 
ATOM     23  C   UNL     1       0.703   3.272  20.111  0.00  0.00    +0.000 A 
ATOM     24  C   UNL     1       1.213   2.878  21.346  0.00  0.00    +0.000 A 
ATOM     25  C   UNL     1       2.577   2.640  21.497  0.00  0.00    +0.000 A 
ATOM     26  C   UNL     1       3.436   2.783  20.408  0.00  0.00    +0.000 A 
ENDBRANCH  19  21
ENDBRANCH   4  19
TORSDOF 6
ENDMDL
MODEL 4
REMARK VINA RESULT:      -8.1      5.154      7.995
REMARK  Name = 
REMARK  6 active torsions:
REMARK  status: ('A' for Active; 'I' for Inactive)
REMARK    1  A    between atoms: C_2  and  C_3
REMARK    2  A    between atoms: C_3  and  C_4
REMARK    3  A    between atoms: C_4  and  C_5
REMARK    4  A    between atoms: N_11  and  C_12
REMARK    5  A    between atoms: C_15  and  C_16
REMARK    6  A    between atoms: C_16  and  C_18
REMARK                            x       y       z     vdW  Elec       q    Type
REMARK                         _______ _______ _______ _____ _____    ______ ____
ROOT
ATOM      1  C   UNL     1       2.308   7.611  19.344  0.00  0.00    +0.000 A 
ATOM      2  C   UNL     1       2.232   8.317  18.140  0.00  0.00    +0.000 A 
ATOM      3  C   UNL     1       1.408   9.442  18.023  0.00  0.00    +0.000 A 
ATOM      4  C   UNL     1       0.655   9.888  19.113  0.00  0.00    +0.000 A 
ATOM      5  C   UNL     1       0.720   9.180  20.318  0.00  0.00    +0.000 A 
ATOM      6  C   UNL     1       1.546   8.052  20.432  0.00  0.00    +0.000 A 
ENDROOT
BRANCH   1   9
ATOM      7  O   UNL     1       1.924   4.948  18.144  0.00  0.00    +0.000 OA
ATOM      8  C   UNL     1       2.809   5.194  18.956  0.00  0.00    +0.000 C 
ATOM      9  N   UNL     1       3.077   6.437  19.509  0.00  0.00    +0.000 N 
ATOM     10  H   UNL     1       3.938   6.535  20.032  0.00  0.00    +0.000 HD
BRANCH   8  11
ATOM     11  C   UNL     1       3.720   4.098  19.487  0.00  0.00    +0.000 C 
BRANCH  11  12
ATOM     12  C   UNL     1       4.414   3.369  18.336  0.00  0.00    +0.000 C 
BRANCH  12  13
ATOM     13  C   UNL     1       5.372   4.255  17.582  0.00  0.00    +0.000 A 
ATOM     14  C   UNL     1       6.448   4.858  18.239  0.00  0.00    +0.000 A 
ATOM     15  C   UNL     1       7.311   5.659  17.505  0.00  0.00    +0.000 A 
ATOM     16  N   UNL     1       7.172   5.903  16.185  0.00  0.00    +0.000 NA
ATOM     17  C   UNL     1       6.125   5.311  15.571  0.00  0.00    +0.000 A 
ATOM     18  C   UNL     1       5.210   4.494  16.215  0.00  0.00    +0.000 A 
ENDBRANCH  12  13
ENDBRANCH  11  12
ENDBRANCH   8  11
ENDBRANCH   1   9
BRANCH   4  19
ATOM     19  C   UNL     1      -0.239  11.065  18.920  0.00  0.00    +0.000 C 
ATOM     20  O   UNL     1       0.170  12.185  19.222  0.00  0.00    +0.000 OA
BRANCH  19  21
ATOM     21  C   UNL     1      -1.603  10.933  18.350  0.00  0.00    +0.000 A 
ATOM     22  C   UNL     1      -2.613  11.771  18.832  0.00  0.00    +0.000 A 
ATOM     23  C   UNL     1      -3.900  11.694  18.295  0.00  0.00    +0.000 A 
ATOM     24  C   UNL     1      -4.177  10.777  17.283  0.00  0.00    +0.000 A 
ATOM     25  C   UNL     1      -3.182   9.917  16.825  0.00  0.00    +0.000 A 
ATOM     26  C   UNL     1      -1.899   9.982  17.367  0.00  0.00    +0.000 A 
ENDBRANCH  19  21
ENDBRANCH   4  19
TORSDOF 6
ENDMDL
MODEL 5
REMARK VINA RESULT:      -8.0      0.648      1.145
REMARK  Name = 
REMARK  6 active torsions:
REMARK  status: ('A' for Active; 'I' for Inactive)
REMARK    1  A    between atoms: C_2  and  C_3
REMARK    2  A    between atoms: C_3  and  C_4
REMARK    3  A    between atoms: C_4  and  C_5
REMARK    4  A    between atoms: N_11  and  C_12
REMARK    5  A    between atoms: C_15  and  C_16
REMARK    6  A    between atoms: C_16  and  C_18
REMARK                            x       y       z     vdW  Elec       q    Type
REMARK                         _______ _______ _______ _____ _____    ______ ____
ROOT
ATOM      1  C   UNL     1       6.023   6.886  17.348  0.00  0.00    +0.000 A 
ATOM      2  C   UNL     1       4.645   7.046  17.509  0.00  0.00    +0.000 A 
ATOM      3  C   UNL     1       3.813   5.935  17.694  0.00  0.00    +0.000 A 
ATOM      4  C   UNL     1       4.349   4.645  17.733  0.00  0.00    +0.000 A 
ATOM      5  C   UNL     1       5.728   4.477  17.563  0.00  0.00    +0.000 A 
ATOM      6  C   UNL     1       6.558   5.593  17.376  0.00  0.00    +0.000 A 
ENDROOT
BRANCH   1   9
ATOM      7  O   UNL     1       8.450   7.675  18.820  0.00  0.00    +0.000 OA
ATOM      8  C   UNL     1       8.008   8.312  17.871  0.00  0.00    +0.000 C 
ATOM      9  N   UNL     1       6.908   7.961  17.103  0.00  0.00    +0.000 N 
ATOM     10  H   UNL     1       6.753   8.481  16.249  0.00  0.00    +0.000 HD
BRANCH   8  11
ATOM     11  C   UNL     1       8.631   9.632  17.446  0.00  0.00    +0.000 C 
BRANCH  11  12
ATOM     12  C   UNL     1       9.219  10.364  18.653  0.00  0.00    +0.000 C 
BRANCH  12  13
ATOM     13  C   UNL     1       9.886  11.661  18.275  0.00  0.00    +0.000 A 
ATOM     14  C   UNL     1      11.244  11.693  17.947  0.00  0.00    +0.000 A 
ATOM     15  C   UNL     1      11.816  12.907  17.596  0.00  0.00    +0.000 A 
ATOM     16  N   UNL     1      11.140  14.074  17.558  0.00  0.00    +0.000 NA
ATOM     17  C   UNL     1       9.829  14.022  17.879  0.00  0.00    +0.000 A 
ATOM     18  C   UNL     1       9.167  12.859  18.242  0.00  0.00    +0.000 A 
ENDBRANCH  12  13
ENDBRANCH  11  12
ENDBRANCH   8  11
ENDBRANCH   1   9
BRANCH   4  19
ATOM     19  C   UNL     1       3.414   3.495  17.889  0.00  0.00    +0.000 C 
ATOM     20  O   UNL     1       3.239   2.730  16.942  0.00  0.00    +0.000 OA
BRANCH  19  21
ATOM     21  C   UNL     1       2.701   3.227  19.164  0.00  0.00    +0.000 A 
ATOM     22  C   UNL     1       1.317   3.413  19.208  0.00  0.00    +0.000 A 
ATOM     23  C   UNL     1       0.612   3.140  20.382  0.00  0.00    +0.000 A 
ATOM     24  C   UNL     1       1.292   2.687  21.511  0.00  0.00    +0.000 A 
ATOM     25  C   UNL     1       2.675   2.533  21.481  0.00  0.00    +0.000 A 
ATOM     26  C   UNL     1       3.385   2.817  20.314  0.00  0.00    +0.000 A 
ENDBRANCH  19  21
ENDBRANCH   4  19
TORSDOF 6
ENDMDL
MODEL 6
REMARK VINA RESULT:      -8.0      4.985      8.038
REMARK  Name = 
REMARK  6 active torsions:
REMARK  status: ('A' for Active; 'I' for Inactive)
REMARK    1  A    between atoms: C_2  and  C_3
REMARK    2  A    between atoms: C_3  and  C_4
REMARK    3  A    between atoms: C_4  and  C_5
REMARK    4  A    between atoms: N_11  and  C_12
REMARK    5  A    between atoms: C_15  and  C_16
REMARK    6  A    between atoms: C_16  and  C_18
REMARK                            x       y       z     vdW  Elec       q    Type
REMARK                         _______ _______ _______ _____ _____    ______ ____
ROOT
ATOM      1  C   UNL     1       2.461   7.277  19.081  0.00  0.00    +0.000 A 
ATOM      2  C   UNL     1       1.764   7.719  20.209  0.00  0.00    +0.000 A 
ATOM      3  C   UNL     1       1.105   8.954  20.203  0.00  0.00    +0.000 A 
ATOM      4  C   UNL     1       1.121   9.763  19.063  0.00  0.00    +0.000 A 
ATOM      5  C   UNL     1       1.825   9.330  17.934  0.00  0.00    +0.000 A 
ATOM      6  C   UNL     1       2.486   8.092  17.944  0.00  0.00    +0.000 A 
ENDROOT
BRANCH   1   9
ATOM      7  O   UNL     1       1.714   4.685  17.896  0.00  0.00    +0.000 OA
ATOM      8  C   UNL     1       2.757   4.861  18.515  0.00  0.00    +0.000 C 
ATOM      9  N   UNL     1       3.191   6.068  19.043  0.00  0.00    +0.000 N 
ATOM     10  H   UNL     1       4.144   6.110  19.380  0.00  0.00    +0.000 HD
BRANCH   8  11
ATOM     11  C   UNL     1       3.705   3.709  18.808  0.00  0.00    +0.000 C 
BRANCH  11  12
ATOM     12  C   UNL     1       4.264   3.127  17.509  0.00  0.00    +0.000 C 
BRANCH  12  13
ATOM     13  C   UNL     1       5.339   3.992  16.902  0.00  0.00    +0.000 A 
ATOM     14  C   UNL     1       5.383   4.209  15.522  0.00  0.00    +0.000 A 
ATOM     15  C   UNL     1       6.384   5.019  15.007  0.00  0.00    +0.000 A 
ATOM     16  N   UNL     1       7.334   5.612  15.760  0.00  0.00    +0.000 NA
ATOM     17  C   UNL     1       7.274   5.390  17.090  0.00  0.00    +0.000 A 
ATOM     18  C   UNL     1       6.313   4.598  17.700  0.00  0.00    +0.000 A 
ENDBRANCH  12  13
ENDBRANCH  11  12
ENDBRANCH   8  11
ENDBRANCH   1   9
BRANCH   4  19
ATOM     19  C   UNL     1       0.440  11.087  19.126  0.00  0.00    +0.000 C 
ATOM     20  O   UNL     1       1.099  12.090  19.395  0.00  0.00    +0.000 OA
BRANCH  19  21
ATOM     21  C   UNL     1      -1.010  11.240  18.848  0.00  0.00    +0.000 A 
ATOM     22  C   UNL     1      -1.580  10.475  17.826  0.00  0.00    +0.000 A 
ATOM     23  C   UNL     1      -2.948  10.572  17.560  0.00  0.00    +0.000 A 
ATOM     24  C   UNL     1      -3.742  11.438  18.311  0.00  0.00    +0.000 A 
ATOM     25  C   UNL     1      -3.171  12.227  19.306  0.00  0.00    +0.000 A 
ATOM     26  C   UNL     1      -1.803  12.143  19.566  0.00  0.00    +0.000 A 
ENDBRANCH  19  21
ENDBRANCH   4  19
TORSDOF 6
ENDMDL
MODEL 7
REMARK VINA RESULT:      -8.0      5.129      7.988
REMARK  Name = 
REMARK  6 active torsions:
REMARK  status: ('A' for Active; 'I' for Inactive)
REMARK    1  A    between atoms: C_2  and  C_3
REMARK    2  A    between atoms: C_3  and  C_4
REMARK    3  A    between atoms: C_4  and  C_5
REMARK    4  A    between atoms: N_11  and  C_12
REMARK    5  A    between atoms: C_15  and  C_16
REMARK    6  A    between atoms: C_16  and  C_18
REMARK                            x       y       z     vdW  Elec       q    Type
REMARK                         _______ _______ _______ _____ _____    ______ ____
ROOT
ATOM      1  C   UNL     1       2.306   7.453  19.432  0.00  0.00    +0.000 A 
ATOM      2  C   UNL     1       1.566   8.004  20.481  0.00  0.00    +0.000 A 
ATOM      3  C   UNL     1       0.788   9.150  20.281  0.00  0.00    +0.000 A 
ATOM      4  C   UNL     1       0.726   9.757  19.024  0.00  0.00    +0.000 A 
ATOM      5  C   UNL     1       1.472   9.216  17.972  0.00  0.00    +0.000 A 
ATOM      6  C   UNL     1       2.253   8.068  18.175  0.00  0.00    +0.000 A 
ENDROOT
BRANCH   1   9
ATOM      7  O   UNL     1       1.809   4.634  18.735  0.00  0.00    +0.000 OA
ATOM      8  C   UNL     1       2.837   5.015  19.283  0.00  0.00    +0.000 C 
ATOM      9  N   UNL     1       3.154   6.332  19.582  0.00  0.00    +0.000 N 
ATOM     10  H   UNL     1       4.102   6.525  19.879  0.00  0.00    +0.000 HD
BRANCH   8  11
ATOM     11  C   UNL     1       3.899   4.030  19.744  0.00  0.00    +0.000 C 
BRANCH  11  12
ATOM     12  C   UNL     1       4.536   3.325  18.545  0.00  0.00    +0.000 C 
BRANCH  12  13
ATOM     13  C   UNL     1       5.334   4.264  17.678  0.00  0.00    +0.000 A 
ATOM     14  C   UNL     1       4.982   4.471  16.342  0.00  0.00    +0.000 A 
ATOM     15  C   UNL     1       5.738   5.351  15.582  0.00  0.00    +0.000 A 
ATOM     16  N   UNL     1       6.810   6.022  16.053  0.00  0.00    +0.000 NA
ATOM     17  C   UNL     1       7.134   5.808  17.346  0.00  0.00    +0.000 A 
ATOM     18  C   UNL     1       6.441   4.950  18.186  0.00  0.00    +0.000 A 
ENDBRANCH  12  13
ENDBRANCH  11  12
ENDBRANCH   8  11
ENDBRANCH   1   9
BRANCH   4  19
ATOM     19  C   UNL     1      -0.084  11.000  18.879  0.00  0.00    +0.000 C 
ATOM     20  O   UNL     1       0.450  12.091  19.069  0.00  0.00    +0.000 OA
BRANCH  19  21
ATOM     21  C   UNL     1      -1.516  10.965  18.485  0.00  0.00    +0.000 A 
ATOM     22  C   UNL     1      -2.398  11.863  19.093  0.00  0.00    +0.000 A 
ATOM     23  C   UNL     1      -3.745  11.878  18.723  0.00  0.00    +0.000 A 
ATOM     24  C   UNL     1      -4.208  10.992  17.752  0.00  0.00    +0.000 A 
ATOM     25  C   UNL     1      -3.339  10.072  17.170  0.00  0.00    +0.000 A 
ATOM     26  C   UNL     1      -1.996  10.045  17.546  0.00  0.00    +0.000 A 
ENDBRANCH  19  21
ENDBRANCH   4  19
TORSDOF 6
ENDMDL
MODEL 8
REMARK VINA RESULT:      -7.8      0.674      1.535
REMARK  Name = 
REMARK  6 active torsions:
REMARK  status: ('A' for Active; 'I' for Inactive)
REMARK    1  A    between atoms: C_2  and  C_3
REMARK    2  A    between atoms: C_3  and  C_4
REMARK    3  A    between atoms: C_4  and  C_5
REMARK    4  A    between atoms: N_11  and  C_12
REMARK    5  A    between atoms: C_15  and  C_16
REMARK    6  A    between atoms: C_16  and  C_18
REMARK                            x       y       z     vdW  Elec       q    Type
REMARK                         _______ _______ _______ _____ _____    ______ ____
ROOT
ATOM      1  C   UNL     1       5.916   6.779  17.182  0.00  0.00    +0.000 A 
ATOM      2  C   UNL     1       4.817   6.933  18.032  0.00  0.00    +0.000 A 
ATOM      3  C   UNL     1       3.870   5.912  18.168  0.00  0.00    +0.000 A 
ATOM      4  C   UNL     1       4.012   4.712  17.466  0.00  0.00    +0.000 A 
ATOM      5  C   UNL     1       5.105   4.555  16.607  0.00  0.00    +0.000 A 
ATOM      6  C   UNL     1       6.052   5.581  16.471  0.00  0.00    +0.000 A 
ENDROOT
BRANCH   1   9
ATOM      7  O   UNL     1       8.349   7.412  18.717  0.00  0.00    +0.000 OA
ATOM      8  C   UNL     1       7.975   8.073  17.756  0.00  0.00    +0.000 C 
ATOM      9  N   UNL     1       6.875   7.792  16.959  0.00  0.00    +0.000 N 
ATOM     10  H   UNL     1       6.778   8.319  16.100  0.00  0.00    +0.000 HD
BRANCH   8  11
ATOM     11  C   UNL     1       8.695   9.348  17.345  0.00  0.00    +0.000 C 
BRANCH  11  12
ATOM     12  C   UNL     1       8.571  10.412  18.437  0.00  0.00    +0.000 C 
BRANCH  12  13
ATOM     13  C   UNL     1       9.648  11.462  18.346  0.00  0.00    +0.000 A 
ATOM     14  C   UNL     1      10.900  11.249  18.931  0.00  0.00    +0.000 A 
ATOM     15  C   UNL     1      11.865  12.237  18.816  0.00  0.00    +0.000 A 
ATOM     16  N   UNL     1      11.670  13.409  18.176  0.00  0.00    +0.000 NA
ATOM     17  C   UNL     1      10.455  13.595  17.619  0.00  0.00    +0.000 A 
ATOM     18  C   UNL     1       9.425  12.669  17.678  0.00  0.00    +0.000 A 
ENDBRANCH  12  13
ENDBRANCH  11  12
ENDBRANCH   8  11
ENDBRANCH   1   9
BRANCH   4  19
ATOM     19  C   UNL     1       2.952   3.675  17.615  0.00  0.00    +0.000 C 
ATOM     20  O   UNL     1       2.547   3.082  16.617  0.00  0.00    +0.000 OA
BRANCH  19  21
ATOM     21  C   UNL     1       2.383   3.315  18.938  0.00  0.00    +0.000 A 
ATOM     22  C   UNL     1       3.253   2.894  19.948  0.00  0.00    +0.000 A 
ATOM     23  C   UNL     1       2.754   2.578  21.214  0.00  0.00    +0.000 A 
ATOM     24  C   UNL     1       1.387   2.678  21.466  0.00  0.00    +0.000 A 
ATOM     25  C   UNL     1       0.514   3.064  20.453  0.00  0.00    +0.000 A 
ATOM     26  C   UNL     1       1.006   3.368  19.184  0.00  0.00    +0.000 A 
ENDBRANCH  19  21
ENDBRANCH   4  19
TORSDOF 6
ENDMDL
MODEL 9
REMARK VINA RESULT:      -7.7      6.366      7.061
REMARK  Name = 
REMARK  6 active torsions:
REMARK  status: ('A' for Active; 'I' for Inactive)
REMARK    1  A    between atoms: C_2  and  C_3
REMARK    2  A    between atoms: C_3  and  C_4
REMARK    3  A    between atoms: C_4  and  C_5
REMARK    4  A    between atoms: N_11  and  C_12
REMARK    5  A    between atoms: C_15  and  C_16
REMARK    6  A    between atoms: C_16  and  C_18
REMARK                            x       y       z     vdW  Elec       q    Type
REMARK                         _______ _______ _______ _____ _____    ______ ____
ROOT
ATOM      1  C   UNL     1       1.140   9.892  18.705  0.00  0.00    +0.000 A 
ATOM      2  C   UNL     1       1.020   9.227  19.928  0.00  0.00    +0.000 A 
ATOM      3  C   UNL     1       1.656   7.997  20.138  0.00  0.00    +0.000 A 
ATOM      4  C   UNL     1       2.434   7.418  19.131  0.00  0.00    +0.000 A 
ATOM      5  C   UNL     1       2.550   8.075  17.902  0.00  0.00    +0.000 A 
ATOM      6  C   UNL     1       1.910   9.306  17.694  0.00  0.00    +0.000 A 
ENDROOT
BRANCH   1   9
ATOM      7  O   UNL     1       1.688  12.603  19.719  0.00  0.00    +0.000 OA
ATOM      8  C   UNL     1       0.753  12.347  18.969  0.00  0.00    +0.000 C 
ATOM      9  N   UNL     1       0.479  11.106  18.412  0.00  0.00    +0.000 N 
ATOM     10  H   UNL     1      -0.218  11.071  17.680  0.00  0.00    +0.000 HD
BRANCH   8  11
ATOM     11  C   UNL     1      -0.267  13.407  18.586  0.00  0.00    +0.000 C 
BRANCH  11  12
ATOM     12  C   UNL     1      -0.134  14.634  19.490  0.00  0.00    +0.000 C 
BRANCH  12  13
ATOM     13  C   UNL     1       0.447  15.823  18.769  0.00  0.00    +0.000 A 
ATOM     14  C   UNL     1       1.827  15.933  18.575  0.00  0.00    +0.000 A 
ATOM     15  C   UNL     1       2.318  17.039  17.898  0.00  0.00    +0.000 A 
ATOM     16  N   UNL     1       1.542  18.033  17.417  0.00  0.00    +0.000 NA
ATOM     17  C   UNL     1       0.213  17.908  17.616  0.00  0.00    +0.000 A 
ATOM     18  C   UNL     1      -0.374  16.841  18.279  0.00  0.00    +0.000 A 
ENDBRANCH  12  13
ENDBRANCH  11  12
ENDBRANCH   8  11
ENDBRANCH   1   9
BRANCH   4  19
ATOM     19  C   UNL     1       3.052   6.088  19.393  0.00  0.00    +0.000 C 
ATOM     20  O   UNL     1       4.271   6.010  19.540  0.00  0.00    +0.000 OA
BRANCH  19  21
ATOM     21  C   UNL     1       2.240   4.850  19.508  0.00  0.00    +0.000 A 
ATOM     22  C   UNL     1       1.845   4.198  18.337  0.00  0.00    +0.000 A 
ATOM     23  C   UNL     1       1.107   3.015  18.410  0.00  0.00    +0.000 A 
ATOM     24  C   UNL     1       0.759   2.489  19.653  0.00  0.00    +0.000 A 
ATOM     25  C   UNL     1       1.121   3.155  20.822  0.00  0.00    +0.000 A 
ATOM     26  C   UNL     1       1.847   4.344  20.753  0.00  0.00    +0.000 A 
ENDBRANCH  19  21
ENDBRANCH   4  19
TORSDOF 6
ENDMDL
