MODEL 1
REMARK VINA RESULT:      -8.0      0.000      0.000
REMARK  Name = 
REMARK  8 active torsions:
REMARK  status: ('A' for Active; 'I' for Inactive)
REMARK    1  A    between atoms: C_1  and  O_2
REMARK    2  A    between atoms: O_2  and  C_3
REMARK    3  A    between atoms: C_5  and  C_6
REMARK    4  A    between atoms: C_6  and  C_7
REMARK    5  A    between atoms: C_6  and  C_11
REMARK    6  A    between atoms: C_7  and  N_8
REMARK    7  A    between atoms: C_12  and  C_13
REMARK    8  A    between atoms: C_23  and  O_24
REMARK                            x       y       z     vdW  Elec       q    Type
REMARK                         _______ _______ _______ _____ _____    ______ ____
ROOT
ATOM      1  C   UNL     1       2.867   5.487  19.815  0.00  0.00    +0.000 C 
ENDROOT
BRANCH   1   2
ATOM      2  C   UNL     1       3.628   4.857  18.638  0.00  0.00    +0.000 A 
ATOM      3  C   UNL     1       3.140   4.119  17.555  0.00  0.00    +0.000 A 
ATOM      4  C   UNL     1       1.741   3.729  17.226  0.00  0.00    +0.000 C 
ATOM      5  C   UNL     1       4.248   3.777  16.737  0.00  0.00    +0.000 A 
ATOM      6  C   UNL     1       5.375   4.306  17.309  0.00  0.00    +0.000 A 
ATOM      7  C   UNL     1       6.746   4.305  16.922  0.00  0.00    +0.000 A 
ATOM      8  C   UNL     1       7.659   4.901  17.708  0.00  0.00    +0.000 A 
ATOM      9  C   UNL     1       7.277   5.540  18.953  0.00  0.00    +0.000 A 
ATOM     10  C   UNL     1       5.981   5.553  19.312  0.00  0.00    +0.000 A 
ATOM     11  N   UNL     1       5.018   4.949  18.492  0.00  0.00    +0.000 N 
ENDBRANCH   1   2
BRANCH   1  14
ATOM     12  C   UNL     1       1.208   8.995  20.023  0.00  0.00    +0.000 A 
ATOM     13  C   UNL     1       1.633   7.698  20.356  0.00  0.00    +0.000 A 
ATOM     14  C   UNL     1       2.316   6.872  19.449  0.00  0.00    +0.000 A 
ATOM     15  C   UNL     1       2.543   7.384  18.160  0.00  0.00    +0.000 A 
ATOM     16  C   UNL     1       2.113   8.667  17.806  0.00  0.00    +0.000 A 
ATOM     17  C   UNL     1       1.455   9.475  18.737  0.00  0.00    +0.000 A 
BRANCH  12  19
ATOM     18  C   UNL     1       0.979   9.274  22.391  0.00  0.00    +0.000 C 
ATOM     19  O   UNL     1       0.591   9.621  21.071  0.00  0.00    +0.000 OA
ENDBRANCH  12  19
BRANCH  17  20
ATOM     20  O   UNL     1       1.073  10.731  18.356  0.00  0.00    +0.000 OA
ATOM     21  H   UNL     1       1.833  11.330  18.428  0.00  0.00    +0.000 HD
ENDBRANCH  17  20
ENDBRANCH   1  14
BRANCH   1  22
ATOM     22  C   UNL     1       1.869   4.448  20.362  0.00  0.00    +0.000 C 
BRANCH  22  23
ATOM     23  N   UNL     1       2.553   3.378  21.168  0.00  0.00    +0.000 N 
ATOM     24  O   UNL     1       2.330   3.324  22.382  0.00  0.00    +0.000 OA
ATOM     25  O   UNL     1       3.336   2.641  20.549  0.00  0.00    +0.000 OA
ENDBRANCH  22  23
ENDBRANCH   1  22
TORSDOF 6
ENDMDL
MODEL 2
REMARK VINA RESULT:      -7.5      3.581      6.554
REMARK  Name = 
REMARK  8 active torsions:
REMARK  status: ('A' for Active; 'I' for Inactive)
REMARK    1  A    between atoms: C_1  and  O_2
REMARK    2  A    between atoms: O_2  and  C_3
REMARK    3  A    between atoms: C_5  and  C_6
REMARK    4  A    between atoms: C_6  and  C_7
REMARK    5  A    between atoms: C_6  and  C_11
REMARK    6  A    between atoms: C_7  and  N_8
REMARK    7  A    between atoms: C_12  and  C_13
REMARK    8  A    between atoms: C_23  and  O_24
REMARK                            x       y       z     vdW  Elec       q    Type
REMARK                         _______ _______ _______ _____ _____    ______ ____
ROOT
ATOM      1  C   UNL     1       5.696   4.881  18.220  0.00  0.00    +0.000 C 
ENDROOT
BRANCH   1   2
ATOM      2  C   UNL     1       4.246   5.239  18.585  0.00  0.00    +0.000 A 
ATOM      3  C   UNL     1       3.475   6.338  18.192  0.00  0.00    +0.000 A 
ATOM      4  C   UNL     1       3.833   7.480  17.305  0.00  0.00    +0.000 C 
ATOM      5  C   UNL     1       2.196   6.197  18.791  0.00  0.00    +0.000 A 
ATOM      6  C   UNL     1       2.194   5.036  19.517  0.00  0.00    +0.000 A 
ATOM      7  C   UNL     1       1.193   4.384  20.293  0.00  0.00    +0.000 A 
ATOM      8  C   UNL     1       1.487   3.236  20.929  0.00  0.00    +0.000 A 
ATOM      9  C   UNL     1       2.812   2.652  20.850  0.00  0.00    +0.000 A 
ATOM     10  C   UNL     1       3.755   3.261  20.107  0.00  0.00    +0.000 A 
ATOM     11  N   UNL     1       3.454   4.448  19.426  0.00  0.00    +0.000 N 
ENDBRANCH   1   2
BRANCH   1  14
ATOM     12  C   UNL     1       7.089   4.872  14.592  0.00  0.00    +0.000 A 
ATOM     13  C   UNL     1       6.923   5.161  15.957  0.00  0.00    +0.000 A 
ATOM     14  C   UNL     1       5.852   4.651  16.710  0.00  0.00    +0.000 A 
ATOM     15  C   UNL     1       4.918   3.848  16.036  0.00  0.00    +0.000 A 
ATOM     16  C   UNL     1       5.059   3.563  14.674  0.00  0.00    +0.000 A 
ATOM     17  C   UNL     1       6.147   4.066  13.955  0.00  0.00    +0.000 A 
BRANCH  12  19
ATOM     18  C   UNL     1       8.223   5.817  12.706  0.00  0.00    +0.000 C 
ATOM     19  O   UNL     1       8.215   5.453  14.077  0.00  0.00    +0.000 OA
ENDBRANCH  12  19
BRANCH  17  20
ATOM     20  O   UNL     1       6.259   3.743  12.631  0.00  0.00    +0.000 OA
ATOM     21  H   UNL     1       5.580   3.088  12.405  0.00  0.00    +0.000 HD
ENDBRANCH  17  20
ENDBRANCH   1  14
BRANCH   1  22
ATOM     22  C   UNL     1       6.633   5.907  18.884  0.00  0.00    +0.000 C 
BRANCH  22  23
ATOM     23  N   UNL     1       7.807   5.249  19.555  0.00  0.00    +0.000 N 
ATOM     24  O   UNL     1       7.964   5.422  20.769  0.00  0.00    +0.000 OA
ATOM     25  O   UNL     1       8.567   4.601  18.819  0.00  0.00    +0.000 OA
ENDBRANCH  22  23
ENDBRANCH   1  22
TORSDOF 6
ENDMDL
MODEL 3
REMARK VINA RESULT:      -7.4      3.747      6.782
REMARK  Name = 
REMARK  8 active torsions:
REMARK  status: ('A' for Active; 'I' for Inactive)
REMARK    1  A    between atoms: C_1  and  O_2
REMARK    2  A    between atoms: O_2  and  C_3
REMARK    3  A    between atoms: C_5  and  C_6
REMARK    4  A    between atoms: C_6  and  C_7
REMARK    5  A    between atoms: C_6  and  C_11
REMARK    6  A    between atoms: C_7  and  N_8
REMARK    7  A    between atoms: C_12  and  C_13
REMARK    8  A    between atoms: C_23  and  O_24
REMARK                            x       y       z     vdW  Elec       q    Type
REMARK                         _______ _______ _______ _____ _____    ______ ____
ROOT
ATOM      1  C   UNL     1       5.688   4.725  17.575  0.00  0.00    +0.000 C 
ENDROOT
BRANCH   1   2
ATOM      2  C   UNL     1       4.189   4.920  17.851  0.00  0.00    +0.000 A 
ATOM      3  C   UNL     1       3.414   6.082  17.775  0.00  0.00    +0.000 A 
ATOM      4  C   UNL     1       3.814   7.467  17.402  0.00  0.00    +0.000 C 
ATOM      5  C   UNL     1       2.081   5.729  18.114  0.00  0.00    +0.000 A 
ATOM      6  C   UNL     1       2.054   4.386  18.378  0.00  0.00    +0.000 A 
ATOM      7  C   UNL     1       1.003   3.494  18.736  0.00  0.00    +0.000 A 
ATOM      8  C   UNL     1       1.278   2.196  18.959  0.00  0.00    +0.000 A 
ATOM      9  C   UNL     1       2.632   1.687  18.852  0.00  0.00    +0.000 A 
ATOM     10  C   UNL     1       3.623   2.526  18.500  0.00  0.00    +0.000 A 
ATOM     11  N   UNL     1       3.344   3.877  18.249  0.00  0.00    +0.000 N 
ENDBRANCH   1   2
BRANCH   1  14
ATOM     12  C   UNL     1       7.356   4.935  14.071  0.00  0.00    +0.000 A 
ATOM     13  C   UNL     1       7.078   5.147  15.432  0.00  0.00    +0.000 A 
ATOM     14  C   UNL     1       5.965   4.579  16.072  0.00  0.00    +0.000 A 
ATOM     15  C   UNL     1       5.103   3.795  15.286  0.00  0.00    +0.000 A 
ATOM     16  C   UNL     1       5.356   3.585  13.926  0.00  0.00    +0.000 A 
ATOM     17  C   UNL     1       6.484   4.146  13.321  0.00  0.00    +0.000 A 
BRANCH  12  19
ATOM     18  C   UNL     1       8.540   6.167  12.393  0.00  0.00    +0.000 C 
ATOM     19  O   UNL     1       8.505   5.562  13.675  0.00  0.00    +0.000 OA
ENDBRANCH  12  19
BRANCH  17  20
ATOM     20  O   UNL     1       6.705   3.896  11.996  0.00  0.00    +0.000 OA
ATOM     21  H   UNL     1       7.647   4.017  11.802  0.00  0.00    +0.000 HD
ENDBRANCH  17  20
ENDBRANCH   1  14
BRANCH   1  22
ATOM     22  C   UNL     1       6.470   5.810  18.340  0.00  0.00    +0.000 C 
BRANCH  22  23
ATOM     23  N   UNL     1       7.616   5.232  19.124  0.00  0.00    +0.000 N 
ATOM     24  O   UNL     1       8.403   4.476  18.543  0.00  0.00    +0.000 OA
ATOM     25  O   UNL     1       7.664   5.531  20.326  0.00  0.00    +0.000 OA
ENDBRANCH  22  23
ENDBRANCH   1  22
TORSDOF 6
ENDMDL
MODEL 4
REMARK VINA RESULT:      -7.4      4.379      7.049
REMARK  Name = 
REMARK  8 active torsions:
REMARK  status: ('A' for Active; 'I' for Inactive)
REMARK    1  A    between atoms: C_1  and  O_2
REMARK    2  A    between atoms: O_2  and  C_3
REMARK    3  A    between atoms: C_5  and  C_6
REMARK    4  A    between atoms: C_6  and  C_7
REMARK    5  A    between atoms: C_6  and  C_11
REMARK    6  A    between atoms: C_7  and  N_8
REMARK    7  A    between atoms: C_12  and  C_13
REMARK    8  A    between atoms: C_23  and  O_24
REMARK                            x       y       z     vdW  Elec       q    Type
REMARK                         _______ _______ _______ _____ _____    ______ ____
ROOT
ATOM      1  C   UNL     1       0.188  11.426  19.348  0.00  0.00    +0.000 C 
ENDROOT
BRANCH   1   2
ATOM      2  C   UNL     1       0.611  10.108  20.014  0.00  0.00    +0.000 A 
ATOM      3  C   UNL     1       0.335   9.630  21.299  0.00  0.00    +0.000 A 
ATOM      4  C   UNL     1      -0.452  10.259  22.397  0.00  0.00    +0.000 C 
ATOM      5  C   UNL     1       0.943   8.353  21.420  0.00  0.00    +0.000 A 
ATOM      6  C   UNL     1       1.561   8.065  20.232  0.00  0.00    +0.000 A 
ATOM      7  C   UNL     1       2.293   6.932  19.775  0.00  0.00    +0.000 A 
ATOM      8  C   UNL     1       2.816   6.934  18.536  0.00  0.00    +0.000 A 
ATOM      9  C   UNL     1       2.660   8.076  17.657  0.00  0.00    +0.000 A 
ATOM     10  C   UNL     1       1.957   9.141  18.083  0.00  0.00    +0.000 A 
ATOM     11  N   UNL     1       1.393   9.143  19.366  0.00  0.00    +0.000 N 
ENDBRANCH   1   2
BRANCH   1  14
ATOM     12  C   UNL     1      -2.934  10.440  17.254  0.00  0.00    +0.000 A 
ATOM     13  C   UNL     1      -1.604  10.565  17.689  0.00  0.00    +0.000 A 
ATOM     14  C   UNL     1      -1.244  11.343  18.802  0.00  0.00    +0.000 A 
ATOM     15  C   UNL     1      -2.275  12.029  19.466  0.00  0.00    +0.000 A 
ATOM     16  C   UNL     1      -3.603  11.928  19.038  0.00  0.00    +0.000 A 
ATOM     17  C   UNL     1      -3.934  11.129  17.940  0.00  0.00    +0.000 A 
BRANCH  12  19
ATOM     18  C   UNL     1      -3.055  10.186  14.876  0.00  0.00    +0.000 C 
ATOM     19  O   UNL     1      -3.047   9.612  16.172  0.00  0.00    +0.000 OA
ENDBRANCH  12  19
BRANCH  17  20
ATOM     20  O   UNL     1      -5.247  11.040  17.571  0.00  0.00    +0.000 OA
ATOM     21  H   UNL     1      -5.722  10.488  18.212  0.00  0.00    +0.000 HD
ENDBRANCH  17  20
ENDBRANCH   1  14
BRANCH   1  22
ATOM     22  C   UNL     1       0.514  12.585  20.311  0.00  0.00    +0.000 C 
BRANCH  22  23
ATOM     23  N   UNL     1       1.967  12.970  20.257  0.00  0.00    +0.000 N 
ATOM     24  O   UNL     1       2.534  12.972  19.159  0.00  0.00    +0.000 OA
ATOM     25  O   UNL     1       2.508  13.224  21.344  0.00  0.00    +0.000 OA
ENDBRANCH  22  23
ENDBRANCH   1  22
TORSDOF 6
ENDMDL
MODEL 5
REMARK VINA RESULT:      -7.3      2.629      6.270
REMARK  Name = 
REMARK  8 active torsions:
REMARK  status: ('A' for Active; 'I' for Inactive)
REMARK    1  A    between atoms: C_1  and  O_2
REMARK    2  A    between atoms: O_2  and  C_3
REMARK    3  A    between atoms: C_5  and  C_6
REMARK    4  A    between atoms: C_6  and  C_7
REMARK    5  A    between atoms: C_6  and  C_11
REMARK    6  A    between atoms: C_7  and  N_8
REMARK    7  A    between atoms: C_12  and  C_13
REMARK    8  A    between atoms: C_23  and  O_24
REMARK                            x       y       z     vdW  Elec       q    Type
REMARK                         _______ _______ _______ _____ _____    ______ ____
ROOT
ATOM      1  C   UNL     1       3.431   6.972  18.337  0.00  0.00    +0.000 C 
ENDROOT
BRANCH   1   2
ATOM      2  C   UNL     1       2.486   6.117  19.195  0.00  0.00    +0.000 A 
ATOM      3  C   UNL     1       1.784   6.458  20.355  0.00  0.00    +0.000 A 
ATOM      4  C   UNL     1       1.745   7.750  21.096  0.00  0.00    +0.000 C 
ATOM      5  C   UNL     1       1.040   5.317  20.755  0.00  0.00    +0.000 A 
ATOM      6  C   UNL     1       1.281   4.317  19.851  0.00  0.00    +0.000 A 
ATOM      7  C   UNL     1       0.795   2.983  19.734  0.00  0.00    +0.000 A 
ATOM      8  C   UNL     1       1.232   2.202  18.731  0.00  0.00    +0.000 A 
ATOM      9  C   UNL     1       2.201   2.687  17.768  0.00  0.00    +0.000 A 
ATOM     10  C   UNL     1       2.651   3.951  17.870  0.00  0.00    +0.000 A 
ATOM     11  N   UNL     1       2.190   4.780  18.902  0.00  0.00    +0.000 N 
ENDBRANCH   1   2
BRANCH   1  14
ATOM     12  C   UNL     1       6.298   5.408  16.229  0.00  0.00    +0.000 A 
ATOM     13  C   UNL     1       5.112   6.073  16.584  0.00  0.00    +0.000 A 
ATOM     14  C   UNL     1       4.676   6.179  17.914  0.00  0.00    +0.000 A 
ATOM     15  C   UNL     1       5.467   5.564  18.900  0.00  0.00    +0.000 A 
ATOM     16  C   UNL     1       6.643   4.885  18.564  0.00  0.00    +0.000 A 
ATOM     17  C   UNL     1       7.063   4.815  17.233  0.00  0.00    +0.000 A 
BRANCH  12  19
ATOM     18  C   UNL     1       6.320   4.285  14.114  0.00  0.00    +0.000 C 
ATOM     19  O   UNL     1       6.534   5.458  14.883  0.00  0.00    +0.000 OA
ENDBRANCH  12  19
BRANCH  17  20
ATOM     20  O   UNL     1       8.231   4.162  16.952  0.00  0.00    +0.000 OA
ATOM     21  H   UNL     1       8.574   3.759  17.764  0.00  0.00    +0.000 HD
ENDBRANCH  17  20
ENDBRANCH   1  14
BRANCH   1  22
ATOM     22  C   UNL     1       2.605   7.642  17.222  0.00  0.00    +0.000 C 
BRANCH  22  23
ATOM     23  N   UNL     1       1.977   8.929  17.682  0.00  0.00    +0.000 N 
ATOM     24  O   UNL     1       2.720   9.860  18.013  0.00  0.00    +0.000 OA
ATOM     25  O   UNL     1       0.738   8.948  17.733  0.00  0.00    +0.000 OA
ENDBRANCH  22  23
ENDBRANCH   1  22
TORSDOF 6
ENDMDL
MODEL 6
REMARK VINA RESULT:      -7.3      2.513      5.859
REMARK  Name = 
REMARK  8 active torsions:
REMARK  status: ('A' for Active; 'I' for Inactive)
REMARK    1  A    between atoms: C_1  and  O_2
REMARK    2  A    between atoms: O_2  and  C_3
REMARK    3  A    between atoms: C_5  and  C_6
REMARK    4  A    between atoms: C_6  and  C_7
REMARK    5  A    between atoms: C_6  and  C_11
REMARK    6  A    between atoms: C_7  and  N_8
REMARK    7  A    between atoms: C_12  and  C_13
REMARK    8  A    between atoms: C_23  and  O_24
REMARK                            x       y       z     vdW  Elec       q    Type
REMARK                         _______ _______ _______ _____ _____    ______ ____
ROOT
ATOM      1  C   UNL     1       3.240   7.244  18.270  0.00  0.00    +0.000 C 
ENDROOT
BRANCH   1   2
ATOM      2  C   UNL     1       2.486   6.221  19.133  0.00  0.00    +0.000 A 
ATOM      3  C   UNL     1       1.873   6.387  20.380  0.00  0.00    +0.000 A 
ATOM      4  C   UNL     1       1.773   7.604  21.233  0.00  0.00    +0.000 C 
ATOM      5  C   UNL     1       1.301   5.140  20.744  0.00  0.00    +0.000 A 
ATOM      6  C   UNL     1       1.554   4.248  19.736  0.00  0.00    +0.000 A 
ATOM      7  C   UNL     1       1.204   2.881  19.547  0.00  0.00    +0.000 A 
ATOM      8  C   UNL     1       1.617   2.235  18.442  0.00  0.00    +0.000 A 
ATOM      9  C   UNL     1       2.424   2.903  17.440  0.00  0.00    +0.000 A 
ATOM     10  C   UNL     1       2.745   4.198  17.611  0.00  0.00    +0.000 A 
ATOM     11  N   UNL     1       2.305   4.886  18.751  0.00  0.00    +0.000 N 
ENDBRANCH   1   2
BRANCH   1  14
ATOM     12  C   UNL     1       6.589   5.357  17.696  0.00  0.00    +0.000 A 
ATOM     13  C   UNL     1       5.508   5.996  18.327  0.00  0.00    +0.000 A 
ATOM     14  C   UNL     1       4.474   6.615  17.607  0.00  0.00    +0.000 A 
ATOM     15  C   UNL     1       4.568   6.598  16.205  0.00  0.00    +0.000 A 
ATOM     16  C   UNL     1       5.644   5.980  15.560  0.00  0.00    +0.000 A 
ATOM     17  C   UNL     1       6.648   5.352  16.302  0.00  0.00    +0.000 A 
BRANCH  12  19
ATOM     18  C   UNL     1       7.947   5.610  19.652  0.00  0.00    +0.000 C 
ATOM     19  O   UNL     1       7.456   4.801  18.596  0.00  0.00    +0.000 OA
ENDBRANCH  12  19
BRANCH  17  20
ATOM     20  O   UNL     1       7.669   4.740  15.631  0.00  0.00    +0.000 OA
ATOM     21  H   UNL     1       7.513   4.814  14.677  0.00  0.00    +0.000 HD
ENDBRANCH  17  20
ENDBRANCH   1  14
BRANCH   1  22
ATOM     22  C   UNL     1       2.224   7.951  17.352  0.00  0.00    +0.000 C 
BRANCH  22  23
ATOM     23  N   UNL     1       1.829   9.301  17.883  0.00  0.00    +0.000 N 
ATOM     24  O   UNL     1       0.793   9.390  18.551  0.00  0.00    +0.000 OA
ATOM     25  O   UNL     1       2.566  10.250  17.572  0.00  0.00    +0.000 OA
ENDBRANCH  22  23
ENDBRANCH   1  22
TORSDOF 6
ENDMDL
MODEL 7
REMARK VINA RESULT:      -7.3      0.815      1.855
REMARK  Name = 
REMARK  8 active torsions:
REMARK  status: ('A' for Active; 'I' for Inactive)
REMARK    1  A    between atoms: C_1  and  O_2
REMARK    2  A    between atoms: O_2  and  C_3
REMARK    3  A    between atoms: C_5  and  C_6
REMARK    4  A    between atoms: C_6  and  C_7
REMARK    5  A    between atoms: C_6  and  C_11
REMARK    6  A    between atoms: C_7  and  N_8
REMARK    7  A    between atoms: C_12  and  C_13
REMARK    8  A    between atoms: C_23  and  O_24
REMARK                            x       y       z     vdW  Elec       q    Type
REMARK                         _______ _______ _______ _____ _____    ______ ____
ROOT
ATOM      1  C   UNL     1       2.784   5.137  20.088  0.00  0.00    +0.000 C 
ENDROOT
BRANCH   1   2
ATOM      2  C   UNL     1       3.471   4.747  18.769  0.00  0.00    +0.000 A 
ATOM      3  C   UNL     1       2.917   4.212  17.602  0.00  0.00    +0.000 A 
ATOM      4  C   UNL     1       1.501   3.865  17.295  0.00  0.00    +0.000 C 
ATOM      5  C   UNL     1       3.972   4.044  16.667  0.00  0.00    +0.000 A 
ATOM      6  C   UNL     1       5.130   4.477  17.255  0.00  0.00    +0.000 A 
ATOM      7  C   UNL     1       6.474   4.569  16.789  0.00  0.00    +0.000 A 
ATOM      8  C   UNL     1       7.433   5.026  17.613  0.00  0.00    +0.000 A 
ATOM      9  C   UNL     1       7.129   5.418  18.976  0.00  0.00    +0.000 A 
ATOM     10  C   UNL     1       5.859   5.345  19.412  0.00  0.00    +0.000 A 
ATOM     11  N   UNL     1       4.848   4.886  18.556  0.00  0.00    +0.000 N 
ENDBRANCH   1   2
BRANCH   1  14
ATOM     12  C   UNL     1       1.814   8.693  18.857  0.00  0.00    +0.000 A 
ATOM     13  C   UNL     1       2.397   7.416  18.922  0.00  0.00    +0.000 A 
ATOM     14  C   UNL     1       2.231   6.568  20.028  0.00  0.00    +0.000 A 
ATOM     15  C   UNL     1       1.469   7.056  21.104  0.00  0.00    +0.000 A 
ATOM     16  C   UNL     1       0.894   8.330  21.063  0.00  0.00    +0.000 A 
ATOM     17  C   UNL     1       1.058   9.144  19.939  0.00  0.00    +0.000 A 
BRANCH  12  19
ATOM     18  C   UNL     1       2.460  10.693  17.708  0.00  0.00    +0.000 C 
ATOM     19  O   UNL     1       2.088   9.325  17.676  0.00  0.00    +0.000 OA
ENDBRANCH  12  19
BRANCH  17  20
ATOM     20  O   UNL     1       0.459  10.373  19.931  0.00  0.00    +0.000 OA
ATOM     21  H   UNL     1       0.318  10.664  20.845  0.00  0.00    +0.000 HD
ENDBRANCH  17  20
ENDBRANCH   1  14
BRANCH   1  22
ATOM     22  C   UNL     1       1.806   4.013  20.479  0.00  0.00    +0.000 C 
BRANCH  22  23
ATOM     23  N   UNL     1       2.421   3.041  21.448  0.00  0.00    +0.000 N 
ATOM     24  O   UNL     1       3.570   2.641  21.230  0.00  0.00    +0.000 OA
ATOM     25  O   UNL     1       1.701   2.676  22.390  0.00  0.00    +0.000 OA
ENDBRANCH  22  23
ENDBRANCH   1  22
TORSDOF 6
ENDMDL
MODEL 8
REMARK VINA RESULT:      -7.2      4.414      7.069
REMARK  Name = 
REMARK  8 active torsions:
REMARK  status: ('A' for Active; 'I' for Inactive)
REMARK    1  A    between atoms: C_1  and  O_2
REMARK    2  A    between atoms: O_2  and  C_3
REMARK    3  A    between atoms: C_5  and  C_6
REMARK    4  A    between atoms: C_6  and  C_7
REMARK    5  A    between atoms: C_6  and  C_11
REMARK    6  A    between atoms: C_7  and  N_8
REMARK    7  A    between atoms: C_12  and  C_13
REMARK    8  A    between atoms: C_23  and  O_24
REMARK                            x       y       z     vdW  Elec       q    Type
REMARK                         _______ _______ _______ _____ _____    ______ ____
ROOT
ATOM      1  C   UNL     1      -0.163  11.454  19.168  0.00  0.00    +0.000 C 
ENDROOT
BRANCH   1   2
ATOM      2  C   UNL     1       0.357  10.223  19.927  0.00  0.00    +0.000 A 
ATOM      3  C   UNL     1       0.134   9.834  21.252  0.00  0.00    +0.000 A 
ATOM      4  C   UNL     1      -0.674  10.498  22.313  0.00  0.00    +0.000 C 
ATOM      5  C   UNL     1       0.827   8.613  21.461  0.00  0.00    +0.000 A 
ATOM      6  C   UNL     1       1.443   8.271  20.287  0.00  0.00    +0.000 A 
ATOM      7  C   UNL     1       2.241   7.154  19.905  0.00  0.00    +0.000 A 
ATOM      8  C   UNL     1       2.743   7.090  18.659  0.00  0.00    +0.000 A 
ATOM      9  C   UNL     1       2.496   8.145  17.695  0.00  0.00    +0.000 A 
ATOM     10  C   UNL     1       1.732   9.193  18.050  0.00  0.00    +0.000 A 
ATOM     11  N   UNL     1       1.190   9.262  19.341  0.00  0.00    +0.000 N 
ENDBRANCH   1   2
BRANCH   1  14
ATOM     12  C   UNL     1      -4.008  11.975  18.940  0.00  0.00    +0.000 A 
ATOM     13  C   UNL     1      -2.669  12.081  19.352  0.00  0.00    +0.000 A 
ATOM     14  C   UNL     1      -1.645  11.297  18.797  0.00  0.00    +0.000 A 
ATOM     15  C   UNL     1      -2.012  10.364  17.812  0.00  0.00    +0.000 A 
ATOM     16  C   UNL     1      -3.342  10.235  17.400  0.00  0.00    +0.000 A 
ATOM     17  C   UNL     1      -4.337  11.044  17.955  0.00  0.00    +0.000 A 
BRANCH  12  19
ATOM     18  C   UNL     1      -5.512  12.407  20.753  0.00  0.00    +0.000 C 
ATOM     19  O   UNL     1      -4.821  12.855  19.598  0.00  0.00    +0.000 OA
ENDBRANCH  12  19
BRANCH  17  20
ATOM     20  O   UNL     1      -5.620  10.901  17.506  0.00  0.00    +0.000 OA
ATOM     21  H   UNL     1      -5.613  10.827  16.539  0.00  0.00    +0.000 HD
ENDBRANCH  17  20
ENDBRANCH   1  14
BRANCH   1  22
ATOM     22  C   UNL     1       0.243  12.717  19.951  0.00  0.00    +0.000 C 
BRANCH  22  23
ATOM     23  N   UNL     1       1.736  12.846  20.080  0.00  0.00    +0.000 N 
ATOM     24  O   UNL     1       2.221  12.942  21.213  0.00  0.00    +0.000 OA
ATOM     25  O   UNL     1       2.376  12.886  19.019  0.00  0.00    +0.000 OA
ENDBRANCH  22  23
ENDBRANCH   1  22
TORSDOF 6
ENDMDL
MODEL 9
REMARK VINA RESULT:      -7.2      2.472      4.189
REMARK  Name = 
REMARK  8 active torsions:
REMARK  status: ('A' for Active; 'I' for Inactive)
REMARK    1  A    between atoms: C_1  and  O_2
REMARK    2  A    between atoms: O_2  and  C_3
REMARK    3  A    between atoms: C_5  and  C_6
REMARK    4  A    between atoms: C_6  and  C_7
REMARK    5  A    between atoms: C_6  and  C_11
REMARK    6  A    between atoms: C_7  and  N_8
REMARK    7  A    between atoms: C_12  and  C_13
REMARK    8  A    between atoms: C_23  and  O_24
REMARK                            x       y       z     vdW  Elec       q    Type
REMARK                         _______ _______ _______ _____ _____    ______ ____
ROOT
ATOM      1  C   UNL     1       3.909   6.519  17.597  0.00  0.00    +0.000 C 
ENDROOT
BRANCH   1   2
ATOM      2  C   UNL     1       4.029   5.229  18.423  0.00  0.00    +0.000 A 
ATOM      3  C   UNL     1       5.097   4.763  19.196  0.00  0.00    +0.000 A 
ATOM      4  C   UNL     1       6.429   5.381  19.446  0.00  0.00    +0.000 C 
ATOM      5  C   UNL     1       4.701   3.526  19.770  0.00  0.00    +0.000 A 
ATOM      6  C   UNL     1       3.422   3.260  19.360  0.00  0.00    +0.000 A 
ATOM      7  C   UNL     1       2.521   2.192  19.639  0.00  0.00    +0.000 A 
ATOM      8  C   UNL     1       1.304   2.182  19.066  0.00  0.00    +0.000 A 
ATOM      9  C   UNL     1       0.893   3.235  18.158  0.00  0.00    +0.000 A 
ATOM     10  C   UNL     1       1.738   4.251  17.905  0.00  0.00    +0.000 A 
ATOM     11  N   UNL     1       3.002   4.281  18.509  0.00  0.00    +0.000 N 
ENDBRANCH   1   2
BRANCH   1  14
ATOM     12  C   UNL     1       1.525   8.311  20.089  0.00  0.00    +0.000 A 
ATOM     13  C   UNL     1       2.406   7.373  19.524  0.00  0.00    +0.000 A 
ATOM     14  C   UNL     1       2.880   7.481  18.208  0.00  0.00    +0.000 A 
ATOM     15  C   UNL     1       2.417   8.567  17.445  0.00  0.00    +0.000 A 
ATOM     16  C   UNL     1       1.528   9.502  17.985  0.00  0.00    +0.000 A 
ATOM     17  C   UNL     1       1.090   9.381  19.307  0.00  0.00    +0.000 A 
BRANCH  12  19
ATOM     18  C   UNL     1       1.385   9.030  22.369  0.00  0.00    +0.000 C 
ATOM     19  O   UNL     1       1.223   8.017  21.390  0.00  0.00    +0.000 OA
ENDBRANCH  12  19
BRANCH  17  20
ATOM     20  O   UNL     1       0.240  10.330  19.802  0.00  0.00    +0.000 OA
ATOM     21  H   UNL     1       0.488  10.532  20.718  0.00  0.00    +0.000 HD
ENDBRANCH  17  20
ENDBRANCH   1  14
BRANCH   1  22
ATOM     22  C   UNL     1       5.326   7.065  17.338  0.00  0.00    +0.000 C 
BRANCH  22  23
ATOM     23  N   UNL     1       5.936   6.483  16.093  0.00  0.00    +0.000 N 
ATOM     24  O   UNL     1       7.118   6.121  16.131  0.00  0.00    +0.000 OA
ATOM     25  O   UNL     1       5.207   6.446  15.090  0.00  0.00    +0.000 OA
ENDBRANCH  22  23
ENDBRANCH   1  22
TORSDOF 6
ENDMDL
