MODEL 1
REMARK VINA RESULT:      -7.8      0.000      0.000
REMARK  Name = 
REMARK  6 active torsions:
REMARK  status: ('A' for Active; 'I' for Inactive)
REMARK    1  A    between atoms: C_1  and  C_2
REMARK    2  A    between atoms: C_2  and  S_3
REMARK    3  A    between atoms: S_3  and  C_4
REMARK    4  A    between atoms: C_6  and  C_7
REMARK    5  A    between atoms: C_14  and  S_15
REMARK    6  A    between atoms: S_15  and  C_18
REMARK                            x       y       z     vdW  Elec       q    Type
REMARK                         _______ _______ _______ _____ _____    ______ ____
ROOT
ATOM      1  C   UNL     1       5.529   4.653  17.778  0.00  0.00    +0.000 A 
ATOM      2  O   UNL     1       6.325   4.683  16.658  0.00  0.00    +0.000 OA
ATOM      3  C   UNL     1       5.530   4.253  15.632  0.00  0.00    +0.000 A 
ATOM      4  N   UNL     1       4.309   3.930  16.002  0.00  0.00    +0.000 NA
ATOM      5  C   UNL     1       4.301   4.163  17.374  0.00  0.00    +0.000 A 
ENDROOT
BRANCH   3   6
ATOM      6  C   UNL     1       6.119   4.264  14.292  0.00  0.00    +0.000 A 
ATOM      7  C   UNL     1       5.615   3.465  13.253  0.00  0.00    +0.000 A 
ATOM      8  C   UNL     1       6.212   3.473  11.989  0.00  0.00    +0.000 A 
ATOM      9  C   UNL     1       7.321   4.279  11.746  0.00  0.00    +0.000 A 
ATOM     10  C   UNL     1       7.833   5.080  12.763  0.00  0.00    +0.000 A 
ATOM     11  C   UNL     1       7.235   5.073  14.027  0.00  0.00    +0.000 A 
ENDBRANCH   3   6
BRANCH   5  12
ATOM     12  S   UNL     1       2.891   3.937  18.349  0.00  0.00    +0.000 S 
ATOM     13  O   UNL     1       1.851   3.500  17.436  0.00  0.00    +0.000 OA
ATOM     14  O   UNL     1       3.303   3.112  19.466  0.00  0.00    +0.000 OA
BRANCH  12  15
ATOM     15  C   UNL     1       2.458   5.550  18.937  0.00  0.00    +0.000 A 
ATOM     16  C   UNL     1       1.993   5.695  20.249  0.00  0.00    +0.000 A 
ATOM     17  C   UNL     1       1.663   6.964  20.724  0.00  0.00    +0.000 A 
ATOM     18  C   UNL     1       1.809   8.080  19.897  0.00  0.00    +0.000 A 
ATOM     19  C   UNL     1       2.293   7.932  18.596  0.00  0.00    +0.000 A 
ATOM     20  C   UNL     1       2.623   6.665  18.111  0.00  0.00    +0.000 A 
ENDBRANCH  12  15
ENDBRANCH   5  12
BRANCH   1  21
ATOM     21  S   UNL     1       6.124   5.265  19.295  0.00  0.00    +0.000 S 
BRANCH  21  23
ATOM     22  C   UNL     1       7.950   7.087  18.402  0.00  0.00    +0.000 C 
ATOM     23  C   UNL     1       7.849   5.641  18.861  0.00  0.00    +0.000 C 
ENDBRANCH  21  23
ENDBRANCH   1  21
TORSDOF 5
ENDMDL
MODEL 2
REMARK VINA RESULT:      -7.8      0.066      1.007
REMARK  Name = 
REMARK  6 active torsions:
REMARK  status: ('A' for Active; 'I' for Inactive)
REMARK    1  A    between atoms: C_1  and  C_2
REMARK    2  A    between atoms: C_2  and  S_3
REMARK    3  A    between atoms: S_3  and  C_4
REMARK    4  A    between atoms: C_6  and  C_7
REMARK    5  A    between atoms: C_14  and  S_15
REMARK    6  A    between atoms: S_15  and  C_18
REMARK                            x       y       z     vdW  Elec       q    Type
REMARK                         _______ _______ _______ _____ _____    ______ ____
ROOT
ATOM      1  C   UNL     1       5.532   4.705  17.808  0.00  0.00    +0.000 A 
ATOM      2  O   UNL     1       6.347   4.724  16.700  0.00  0.00    +0.000 OA
ATOM      3  C   UNL     1       5.569   4.282  15.666  0.00  0.00    +0.000 A 
ATOM      4  N   UNL     1       4.342   3.963  16.019  0.00  0.00    +0.000 NA
ATOM      5  C   UNL     1       4.312   4.210  17.388  0.00  0.00    +0.000 A 
ENDROOT
BRANCH   3   6
ATOM      6  C   UNL     1       6.179   4.280  14.336  0.00  0.00    +0.000 A 
ATOM      7  C   UNL     1       7.272   5.102  14.020  0.00  0.00    +0.000 A 
ATOM      8  C   UNL     1       7.821   5.101  12.734  0.00  0.00    +0.000 A 
ATOM      9  C   UNL     1       7.285   4.279  11.746  0.00  0.00    +0.000 A 
ATOM     10  C   UNL     1       6.203   3.454  12.042  0.00  0.00    +0.000 A 
ATOM     11  C   UNL     1       5.655   3.454  13.329  0.00  0.00    +0.000 A 
ENDBRANCH   3   6
BRANCH   5  12
ATOM     12  S   UNL     1       2.886   3.994  18.343  0.00  0.00    +0.000 S 
ATOM     13  O   UNL     1       1.858   3.559  17.416  0.00  0.00    +0.000 OA
ATOM     14  O   UNL     1       3.277   3.171  19.469  0.00  0.00    +0.000 OA
BRANCH  12  15
ATOM     15  C   UNL     1       2.452   5.611  18.919  0.00  0.00    +0.000 A 
ATOM     16  C   UNL     1       2.024   5.771  20.242  0.00  0.00    +0.000 A 
ATOM     17  C   UNL     1       1.693   7.044  20.708  0.00  0.00    +0.000 A 
ATOM     18  C   UNL     1       1.801   8.147  19.860  0.00  0.00    +0.000 A 
ATOM     19  C   UNL     1       2.247   7.985  18.547  0.00  0.00    +0.000 A 
ATOM     20  C   UNL     1       2.578   6.715  18.071  0.00  0.00    +0.000 A 
ENDBRANCH  12  15
ENDBRANCH   5  12
BRANCH   1  21
ATOM     21  S   UNL     1       6.103   5.333  19.328  0.00  0.00    +0.000 S 
BRANCH  21  23
ATOM     22  C   UNL     1       7.951   7.111  18.393  0.00  0.00    +0.000 C 
ATOM     23  C   UNL     1       7.839   5.690  18.922  0.00  0.00    +0.000 C 
ENDBRANCH  21  23
ENDBRANCH   1  21
TORSDOF 5
ENDMDL
MODEL 3
REMARK VINA RESULT:      -7.8      0.068      1.428
REMARK  Name = 
REMARK  6 active torsions:
REMARK  status: ('A' for Active; 'I' for Inactive)
REMARK    1  A    between atoms: C_1  and  C_2
REMARK    2  A    between atoms: C_2  and  S_3
REMARK    3  A    between atoms: S_3  and  C_4
REMARK    4  A    between atoms: C_6  and  C_7
REMARK    5  A    between atoms: C_14  and  S_15
REMARK    6  A    between atoms: S_15  and  C_18
REMARK                            x       y       z     vdW  Elec       q    Type
REMARK                         _______ _______ _______ _____ _____    ______ ____
ROOT
ATOM      1  C   UNL     1       5.536   4.701  17.797  0.00  0.00    +0.000 A 
ATOM      2  O   UNL     1       6.347   4.723  16.687  0.00  0.00    +0.000 OA
ATOM      3  C   UNL     1       5.567   4.275  15.655  0.00  0.00    +0.000 A 
ATOM      4  N   UNL     1       4.343   3.950  16.014  0.00  0.00    +0.000 NA
ATOM      5  C   UNL     1       4.317   4.199  17.383  0.00  0.00    +0.000 A 
ENDROOT
BRANCH   3   6
ATOM      6  C   UNL     1       6.173   4.274  14.324  0.00  0.00    +0.000 A 
ATOM      7  C   UNL     1       7.280   5.079  14.012  0.00  0.00    +0.000 A 
ATOM      8  C   UNL     1       7.825   5.080  12.724  0.00  0.00    +0.000 A 
ATOM      9  C   UNL     1       7.270   4.278  11.730  0.00  0.00    +0.000 A 
ATOM     10  C   UNL     1       6.174   3.471  12.022  0.00  0.00    +0.000 A 
ATOM     11  C   UNL     1       5.630   3.469  13.311  0.00  0.00    +0.000 A 
ENDBRANCH   3   6
BRANCH   5  12
ATOM     12  S   UNL     1       2.895   3.977  18.342  0.00  0.00    +0.000 S 
ATOM     13  O   UNL     1       1.857   3.570  17.414  0.00  0.00    +0.000 OA
ATOM     14  O   UNL     1       3.286   3.128  19.449  0.00  0.00    +0.000 OA
BRANCH  12  15
ATOM     15  C   UNL     1       2.480   5.586  18.954  0.00  0.00    +0.000 A 
ATOM     16  C   UNL     1       2.613   6.692  18.106  0.00  0.00    +0.000 A 
ATOM     17  C   UNL     1       2.276   7.962  18.576  0.00  0.00    +0.000 A 
ATOM     18  C   UNL     1       1.799   8.120  19.879  0.00  0.00    +0.000 A 
ATOM     19  C   UNL     1       1.649   7.011  20.713  0.00  0.00    +0.000 A 
ATOM     20  C   UNL     1       1.987   5.737  20.253  0.00  0.00    +0.000 A 
ENDBRANCH  12  15
ENDBRANCH   5  12
BRANCH   1  21
ATOM     21  S   UNL     1       6.109   5.333  19.314  0.00  0.00    +0.000 S 
BRANCH  21  23
ATOM     22  C   UNL     1       7.855   7.133  18.235  0.00  0.00    +0.000 C 
ATOM     23  C   UNL     1       7.823   5.758  18.884  0.00  0.00    +0.000 C 
ENDBRANCH  21  23
ENDBRANCH   1  21
TORSDOF 5
ENDMDL
MODEL 4
REMARK VINA RESULT:      -7.8      3.037      7.174
REMARK  Name = 
REMARK  6 active torsions:
REMARK  status: ('A' for Active; 'I' for Inactive)
REMARK    1  A    between atoms: C_1  and  C_2
REMARK    2  A    between atoms: C_2  and  S_3
REMARK    3  A    between atoms: S_3  and  C_4
REMARK    4  A    between atoms: C_6  and  C_7
REMARK    5  A    between atoms: C_14  and  S_15
REMARK    6  A    between atoms: S_15  and  C_18
REMARK                            x       y       z     vdW  Elec       q    Type
REMARK                         _______ _______ _______ _____ _____    ______ ____
ROOT
ATOM      1  C   UNL     1       2.518   4.592  20.530  0.00  0.00    +0.000 A 
ATOM      2  O   UNL     1       1.721   5.645  20.912  0.00  0.00    +0.000 OA
ATOM      3  C   UNL     1       2.145   6.712  20.168  0.00  0.00    +0.000 A 
ATOM      4  N   UNL     1       3.153   6.438  19.366  0.00  0.00    +0.000 NA
ATOM      5  C   UNL     1       3.412   5.091  19.603  0.00  0.00    +0.000 A 
ENDROOT
BRANCH   3   6
ATOM      6  C   UNL     1       1.401   7.963  20.325  0.00  0.00    +0.000 A 
ATOM      7  C   UNL     1       0.645   8.236  21.475  0.00  0.00    +0.000 A 
ATOM      8  C   UNL     1      -0.080   9.426  21.590  0.00  0.00    +0.000 A 
ATOM      9  C   UNL     1      -0.059  10.360  20.556  0.00  0.00    +0.000 A 
ATOM     10  C   UNL     1       0.689  10.106  19.409  0.00  0.00    +0.000 A 
ATOM     11  C   UNL     1       1.414   8.917  19.295  0.00  0.00    +0.000 A 
ENDBRANCH   3   6
BRANCH   5  12
ATOM     12  S   UNL     1       4.636   4.215  18.750  0.00  0.00    +0.000 S 
ATOM     13  O   UNL     1       5.181   3.272  19.708  0.00  0.00    +0.000 OA
ATOM     14  O   UNL     1       4.020   3.763  17.519  0.00  0.00    +0.000 OA
BRANCH  12  15
ATOM     15  C   UNL     1       5.895   5.403  18.376  0.00  0.00    +0.000 A 
ATOM     16  C   UNL     1       5.722   6.256  17.280  0.00  0.00    +0.000 A 
ATOM     17  C   UNL     1       6.704   7.203  16.987  0.00  0.00    +0.000 A 
ATOM     18  C   UNL     1       7.841   7.303  17.791  0.00  0.00    +0.000 A 
ATOM     19  C   UNL     1       7.998   6.463  18.895  0.00  0.00    +0.000 A 
ATOM     20  C   UNL     1       7.023   5.510  19.194  0.00  0.00    +0.000 A 
ENDBRANCH  12  15
ENDBRANCH   5  12
BRANCH   1  21
ATOM     21  S   UNL     1       2.212   2.992  21.146  0.00  0.00    +0.000 S 
BRANCH  21  23
ATOM     22  C   UNL     1       0.630   2.792  18.930  0.00  0.00    +0.000 C 
ATOM     23  C   UNL     1       1.804   2.107  19.611  0.00  0.00    +0.000 C 
ENDBRANCH  21  23
ENDBRANCH   1  21
TORSDOF 5
ENDMDL
MODEL 5
REMARK VINA RESULT:      -7.7      2.128      3.065
REMARK  Name = 
REMARK  6 active torsions:
REMARK  status: ('A' for Active; 'I' for Inactive)
REMARK    1  A    between atoms: C_1  and  C_2
REMARK    2  A    between atoms: C_2  and  S_3
REMARK    3  A    between atoms: S_3  and  C_4
REMARK    4  A    between atoms: C_6  and  C_7
REMARK    5  A    between atoms: C_14  and  S_15
REMARK    6  A    between atoms: S_15  and  C_18
REMARK                            x       y       z     vdW  Elec       q    Type
REMARK                         _______ _______ _______ _____ _____    ______ ____
ROOT
ATOM      1  C   UNL     1       6.889   5.927  17.278  0.00  0.00    +0.000 A 
ATOM      2  O   UNL     1       7.356   5.579  16.032  0.00  0.00    +0.000 OA
ATOM      3  C   UNL     1       6.309   4.954  15.411  0.00  0.00    +0.000 A 
ATOM      4  N   UNL     1       5.229   4.853  16.157  0.00  0.00    +0.000 NA
ATOM      5  C   UNL     1       5.594   5.453  17.358  0.00  0.00    +0.000 A 
ENDROOT
BRANCH   3   6
ATOM      6  C   UNL     1       6.516   4.545  14.021  0.00  0.00    +0.000 A 
ATOM      7  C   UNL     1       7.523   5.112  13.224  0.00  0.00    +0.000 A 
ATOM      8  C   UNL     1       7.683   4.724  11.890  0.00  0.00    +0.000 A 
ATOM      9  C   UNL     1       6.839   3.765  11.335  0.00  0.00    +0.000 A 
ATOM     10  C   UNL     1       5.837   3.191  12.112  0.00  0.00    +0.000 A 
ATOM     11  C   UNL     1       5.678   3.577  13.446  0.00  0.00    +0.000 A 
ENDBRANCH   3   6
BRANCH   5  12
ATOM     12  S   UNL     1       4.495   5.627  18.683  0.00  0.00    +0.000 S 
ATOM     13  O   UNL     1       5.300   5.478  19.881  0.00  0.00    +0.000 OA
ATOM     14  O   UNL     1       3.749   6.842  18.428  0.00  0.00    +0.000 OA
BRANCH  12  15
ATOM     15  C   UNL     1       3.406   4.236  18.581  0.00  0.00    +0.000 A 
ATOM     16  C   UNL     1       3.913   2.954  18.825  0.00  0.00    +0.000 A 
ATOM     17  C   UNL     1       3.058   1.853  18.759  0.00  0.00    +0.000 A 
ATOM     18  C   UNL     1       1.706   2.036  18.464  0.00  0.00    +0.000 A 
ATOM     19  C   UNL     1       1.201   3.319  18.241  0.00  0.00    +0.000 A 
ATOM     20  C   UNL     1       2.050   4.425  18.301  0.00  0.00    +0.000 A 
ENDBRANCH  12  15
ENDBRANCH   5  12
BRANCH   1  21
ATOM     21  S   UNL     1       7.877   6.878  18.350  0.00  0.00    +0.000 S 
BRANCH  21  23
ATOM     22  C   UNL     1       8.594   9.512  18.339  0.00  0.00    +0.000 C 
ATOM     23  C   UNL     1       7.672   8.534  17.628  0.00  0.00    +0.000 C 
ENDBRANCH  21  23
ENDBRANCH   1  21
TORSDOF 5
ENDMDL
MODEL 6
REMARK VINA RESULT:      -7.7      2.127      3.115
REMARK  Name = 
REMARK  6 active torsions:
REMARK  status: ('A' for Active; 'I' for Inactive)
REMARK    1  A    between atoms: C_1  and  C_2
REMARK    2  A    between atoms: C_2  and  S_3
REMARK    3  A    between atoms: S_3  and  C_4
REMARK    4  A    between atoms: C_6  and  C_7
REMARK    5  A    between atoms: C_14  and  S_15
REMARK    6  A    between atoms: S_15  and  C_18
REMARK                            x       y       z     vdW  Elec       q    Type
REMARK                         _______ _______ _______ _____ _____    ______ ____
ROOT
ATOM      1  C   UNL     1       6.898   5.917  17.304  0.00  0.00    +0.000 A 
ATOM      2  O   UNL     1       7.363   5.577  16.055  0.00  0.00    +0.000 OA
ATOM      3  C   UNL     1       6.320   4.943  15.436  0.00  0.00    +0.000 A 
ATOM      4  N   UNL     1       5.244   4.829  16.186  0.00  0.00    +0.000 NA
ATOM      5  C   UNL     1       5.607   5.429  17.387  0.00  0.00    +0.000 A 
ENDROOT
BRANCH   3   6
ATOM      6  C   UNL     1       6.526   4.541  14.044  0.00  0.00    +0.000 A 
ATOM      7  C   UNL     1       7.521   5.123  13.243  0.00  0.00    +0.000 A 
ATOM      8  C   UNL     1       7.681   4.742  11.908  0.00  0.00    +0.000 A 
ATOM      9  C   UNL     1       6.848   3.772  11.354  0.00  0.00    +0.000 A 
ATOM     10  C   UNL     1       5.857   3.182  12.135  0.00  0.00    +0.000 A 
ATOM     11  C   UNL     1       5.699   3.563  13.470  0.00  0.00    +0.000 A 
ENDBRANCH   3   6
BRANCH   5  12
ATOM     12  S   UNL     1       4.512   5.588  18.717  0.00  0.00    +0.000 S 
ATOM     13  O   UNL     1       5.325   5.454  19.911  0.00  0.00    +0.000 OA
ATOM     14  O   UNL     1       3.745   6.790  18.463  0.00  0.00    +0.000 OA
BRANCH  12  15
ATOM     15  C   UNL     1       3.444   4.179  18.621  0.00  0.00    +0.000 A 
ATOM     16  C   UNL     1       2.080   4.373  18.378  0.00  0.00    +0.000 A 
ATOM     17  C   UNL     1       1.234   3.267  18.289  0.00  0.00    +0.000 A 
ATOM     18  C   UNL     1       1.752   1.979  18.429  0.00  0.00    +0.000 A 
ATOM     19  C   UNL     1       3.118   1.790  18.651  0.00  0.00    +0.000 A 
ATOM     20  C   UNL     1       3.971   2.890  18.745  0.00  0.00    +0.000 A 
ENDBRANCH  12  15
ENDBRANCH   5  12
BRANCH   1  21
ATOM     21  S   UNL     1       7.880   6.874  18.375  0.00  0.00    +0.000 S 
BRANCH  21  23
ATOM     22  C   UNL     1       8.632   9.497  18.320  0.00  0.00    +0.000 C 
ATOM     23  C   UNL     1       7.684   8.524  17.638  0.00  0.00    +0.000 C 
ENDBRANCH  21  23
ENDBRANCH   1  21
TORSDOF 5
ENDMDL
MODEL 7
REMARK VINA RESULT:      -7.7      2.974      7.145
REMARK  Name = 
REMARK  6 active torsions:
REMARK  status: ('A' for Active; 'I' for Inactive)
REMARK    1  A    between atoms: C_1  and  C_2
REMARK    2  A    between atoms: C_2  and  S_3
REMARK    3  A    between atoms: S_3  and  C_4
REMARK    4  A    between atoms: C_6  and  C_7
REMARK    5  A    between atoms: C_14  and  S_15
REMARK    6  A    between atoms: S_15  and  C_18
REMARK                            x       y       z     vdW  Elec       q    Type
REMARK                         _______ _______ _______ _____ _____    ______ ____
ROOT
ATOM      1  C   UNL     1       2.499   4.582  20.587  0.00  0.00    +0.000 A 
ATOM      2  O   UNL     1       1.705   5.638  20.966  0.00  0.00    +0.000 OA
ATOM      3  C   UNL     1       2.123   6.700  20.211  0.00  0.00    +0.000 A 
ATOM      4  N   UNL     1       3.124   6.419  19.404  0.00  0.00    +0.000 NA
ATOM      5  C   UNL     1       3.387   5.075  19.649  0.00  0.00    +0.000 A 
ENDROOT
BRANCH   3   6
ATOM      6  C   UNL     1       1.380   7.951  20.363  0.00  0.00    +0.000 A 
ATOM      7  C   UNL     1       0.630   8.232  21.516  0.00  0.00    +0.000 A 
ATOM      8  C   UNL     1      -0.094   9.423  21.627  0.00  0.00    +0.000 A 
ATOM      9  C   UNL     1      -0.079  10.349  20.587  0.00  0.00    +0.000 A 
ATOM     10  C   UNL     1       0.662  10.088  19.438  0.00  0.00    +0.000 A 
ATOM     11  C   UNL     1       1.387   8.898  19.327  0.00  0.00    +0.000 A 
ENDBRANCH   3   6
BRANCH   5  12
ATOM     12  S   UNL     1       4.603   4.192  18.793  0.00  0.00    +0.000 S 
ATOM     13  O   UNL     1       5.178   3.278  19.762  0.00  0.00    +0.000 OA
ATOM     14  O   UNL     1       3.970   3.703  17.586  0.00  0.00    +0.000 OA
BRANCH  12  15
ATOM     15  C   UNL     1       5.841   5.384  18.367  0.00  0.00    +0.000 A 
ATOM     16  C   UNL     1       6.964   5.524  19.191  0.00  0.00    +0.000 A 
ATOM     17  C   UNL     1       7.951   6.452  18.855  0.00  0.00    +0.000 A 
ATOM     18  C   UNL     1       7.819   7.223  17.699  0.00  0.00    +0.000 A 
ATOM     19  C   UNL     1       6.706   7.065  16.870  0.00  0.00    +0.000 A 
ATOM     20  C   UNL     1       5.714   6.141  17.200  0.00  0.00    +0.000 A 
ENDBRANCH  12  15
ENDBRANCH   5  12
BRANCH   1  21
ATOM     21  S   UNL     1       2.199   2.988  21.218  0.00  0.00    +0.000 S 
BRANCH  21  23
ATOM     22  C   UNL     1       0.632   2.848  18.987  0.00  0.00    +0.000 C 
ATOM     23  C   UNL     1       1.747   2.097  19.698  0.00  0.00    +0.000 C 
ENDBRANCH  21  23
ENDBRANCH   1  21
TORSDOF 5
ENDMDL
MODEL 8
REMARK VINA RESULT:      -7.7      2.123      2.890
REMARK  Name = 
REMARK  6 active torsions:
REMARK  status: ('A' for Active; 'I' for Inactive)
REMARK    1  A    between atoms: C_1  and  C_2
REMARK    2  A    between atoms: C_2  and  S_3
REMARK    3  A    between atoms: S_3  and  C_4
REMARK    4  A    between atoms: C_6  and  C_7
REMARK    5  A    between atoms: C_14  and  S_15
REMARK    6  A    between atoms: S_15  and  C_18
REMARK                            x       y       z     vdW  Elec       q    Type
REMARK                         _______ _______ _______ _____ _____    ______ ____
ROOT
ATOM      1  C   UNL     1       6.900   5.895  17.307  0.00  0.00    +0.000 A 
ATOM      2  O   UNL     1       7.340   5.559  16.049  0.00  0.00    +0.000 OA
ATOM      3  C   UNL     1       6.284   4.930  15.448  0.00  0.00    +0.000 A 
ATOM      4  N   UNL     1       5.222   4.816  16.217  0.00  0.00    +0.000 NA
ATOM      5  C   UNL     1       5.610   5.412  17.414  0.00  0.00    +0.000 A 
ENDROOT
BRANCH   3   6
ATOM      6  C   UNL     1       6.462   4.532  14.051  0.00  0.00    +0.000 A 
ATOM      7  C   UNL     1       5.644   3.566  13.445  0.00  0.00    +0.000 A 
ATOM      8  C   UNL     1       5.852   3.183  12.116  0.00  0.00    +0.000 A 
ATOM      9  C   UNL     1       6.880   3.761  11.375  0.00  0.00    +0.000 A 
ATOM     10  C   UNL     1       7.698   4.724  11.959  0.00  0.00    +0.000 A 
ATOM     11  C   UNL     1       7.490   5.107  13.287  0.00  0.00    +0.000 A 
ENDBRANCH   3   6
BRANCH   5  12
ATOM     12  S   UNL     1       4.540   5.570  18.764  0.00  0.00    +0.000 S 
ATOM     13  O   UNL     1       5.363   5.360  19.940  0.00  0.00    +0.000 OA
ATOM     14  O   UNL     1       3.821   6.811  18.563  0.00  0.00    +0.000 OA
BRANCH  12  15
ATOM     15  C   UNL     1       3.413   4.210  18.637  0.00  0.00    +0.000 A 
ATOM     16  C   UNL     1       3.863   2.921  18.948  0.00  0.00    +0.000 A 
ATOM     17  C   UNL     1       2.977   1.846  18.863  0.00  0.00    +0.000 A 
ATOM     18  C   UNL     1       1.652   2.062  18.482  0.00  0.00    +0.000 A 
ATOM     19  C   UNL     1       1.204   3.352  18.193  0.00  0.00    +0.000 A 
ATOM     20  C   UNL     1       2.083   4.433  18.272  0.00  0.00    +0.000 A 
ENDBRANCH  12  15
ENDBRANCH   5  12
BRANCH   1  21
ATOM     21  S   UNL     1       7.905   6.846  18.363  0.00  0.00    +0.000 S 
BRANCH  21  23
ATOM     22  C   UNL     1       8.600   9.485  18.369  0.00  0.00    +0.000 C 
ATOM     23  C   UNL     1       7.808   8.472  17.557  0.00  0.00    +0.000 C 
ENDBRANCH  21  23
ENDBRANCH   1  21
TORSDOF 5
ENDMDL
MODEL 9
REMARK VINA RESULT:      -7.7      0.178      1.027
REMARK  Name = 
REMARK  6 active torsions:
REMARK  status: ('A' for Active; 'I' for Inactive)
REMARK    1  A    between atoms: C_1  and  C_2
REMARK    2  A    between atoms: C_2  and  S_3
REMARK    3  A    between atoms: S_3  and  C_4
REMARK    4  A    between atoms: C_6  and  C_7
REMARK    5  A    between atoms: C_14  and  S_15
REMARK    6  A    between atoms: S_15  and  C_18
REMARK                            x       y       z     vdW  Elec       q    Type
REMARK                         _______ _______ _______ _____ _____    ______ ____
ROOT
ATOM      1  C   UNL     1       5.638   4.610  17.789  0.00  0.00    +0.000 A 
ATOM      2  O   UNL     1       6.416   4.649  16.656  0.00  0.00    +0.000 OA
ATOM      3  C   UNL     1       5.602   4.232  15.639  0.00  0.00    +0.000 A 
ATOM      4  N   UNL     1       4.386   3.910  16.026  0.00  0.00    +0.000 NA
ATOM      5  C   UNL     1       4.402   4.129  17.400  0.00  0.00    +0.000 A 
ENDROOT
BRANCH   3   6
ATOM      6  C   UNL     1       6.168   4.254  14.290  0.00  0.00    +0.000 A 
ATOM      7  C   UNL     1       5.665   3.443  13.260  0.00  0.00    +0.000 A 
ATOM      8  C   UNL     1       6.242   3.463  11.987  0.00  0.00    +0.000 A 
ATOM      9  C   UNL     1       7.328   4.294  11.724  0.00  0.00    +0.000 A 
ATOM     10  C   UNL     1       7.838   5.107  12.732  0.00  0.00    +0.000 A 
ATOM     11  C   UNL     1       7.261   5.088  14.006  0.00  0.00    +0.000 A 
ENDBRANCH   3   6
BRANCH   5  12
ATOM     12  S   UNL     1       3.007   3.899  18.396  0.00  0.00    +0.000 S 
ATOM     13  O   UNL     1       1.962   3.435  17.504  0.00  0.00    +0.000 OA
ATOM     14  O   UNL     1       3.444   3.096  19.520  0.00  0.00    +0.000 OA
BRANCH  12  15
ATOM     15  C   UNL     1       2.561   5.514  18.967  0.00  0.00    +0.000 A 
ATOM     16  C   UNL     1       2.712   6.607  18.105  0.00  0.00    +0.000 A 
ATOM     17  C   UNL     1       2.350   7.881  18.542  0.00  0.00    +0.000 A 
ATOM     18  C   UNL     1       1.831   8.058  19.826  0.00  0.00    +0.000 A 
ATOM     19  C   UNL     1       1.663   6.961  20.674  0.00  0.00    +0.000 A 
ATOM     20  C   UNL     1       2.025   5.684  20.246  0.00  0.00    +0.000 A 
ENDBRANCH  12  15
ENDBRANCH   5  12
BRANCH   1  21
ATOM     21  S   UNL     1       6.261   5.203  19.302  0.00  0.00    +0.000 S 
BRANCH  21  23
ATOM     22  C   UNL     1       7.523   7.185  17.912  0.00  0.00    +0.000 C 
ATOM     23  C   UNL     1       7.823   5.958  18.758  0.00  0.00    +0.000 C 
ENDBRANCH  21  23
ENDBRANCH   1  21
TORSDOF 5
ENDMDL
