MODEL 1
REMARK VINA RESULT:      -8.6      0.000      0.000
REMARK  Name = 
REMARK  4 active torsions:
REMARK  status: ('A' for Active; 'I' for Inactive)
REMARK    1  A    between atoms: C_5  and  C_6
REMARK    2  A    between atoms: N_14  and  C_15
REMARK    3  A    between atoms: C_15  and  C_16
REMARK    4  A    between atoms: C_18  and  O_19
REMARK                            x       y       z     vdW  Elec       q    Type
REMARK                         _______ _______ _______ _____ _____    ______ ____
ROOT
ATOM      1  N   UNL     1       5.012   2.448  19.593  0.00  0.00    +0.000 NA
ATOM      2  C   UNL     1       4.377   3.574  19.457  0.00  0.00    +0.000 A 
ATOM      3  C   UNL     1       2.998   3.675  20.004  0.00  0.00    +0.000 A 
ATOM      4  C   UNL     1       2.379   4.852  19.895  0.00  0.00    +0.000 A 
ATOM      5  C   UNL     1       3.104   5.995  19.264  0.00  0.00    +0.000 A 
ATOM      6  N   UNL     1       4.292   5.914  18.742  0.00  0.00    +0.000 NA
ATOM      7  N   UNL     1       4.921   4.682  18.825  0.00  0.00    +0.000 N 
ATOM      8  H   UNL     1       4.434   1.754  20.071  0.00  0.00    +0.000 HD
ENDROOT
BRANCH   5   9
ATOM      9  C   UNL     1       2.368   7.296  19.225  0.00  0.00    +0.000 A 
ATOM     10  C   UNL     1       1.792   7.850  20.380  0.00  0.00    +0.000 A 
ATOM     11  C   UNL     1       1.069   9.043  20.307  0.00  0.00    +0.000 A 
ATOM     12  C   UNL     1       0.938   9.700  19.087  0.00  0.00    +0.000 A 
ATOM     13 CL   UNL     1       0.039  11.163  19.002  0.00  0.00    +0.000 Cl
ATOM     14  C   UNL     1       1.534   9.179  17.938  0.00  0.00    +0.000 A 
ATOM     15  C   UNL     1       2.250   7.979  18.009  0.00  0.00    +0.000 A 
ENDBRANCH   5   9
BRANCH   7  16
ATOM     16  C   UNL     1       6.316   4.667  18.353  0.00  0.00    +0.000 C 
BRANCH  16  17
ATOM     17  C   UNL     1       6.456   4.647  16.871  0.00  0.00    +0.000 A 
ATOM     18  C   UNL     1       5.774   4.008  15.862  0.00  0.00    +0.000 A 
ATOM     19  C   UNL     1       6.535   4.303  14.729  0.00  0.00    +0.000 A 
ATOM     20  N   UNL     1       7.542   5.136  14.967  0.00  0.00    +0.000 NA
ATOM     21  O   UNL     1       7.497   5.353  16.341  0.00  0.00    +0.000 OA
BRANCH  19  22
ATOM     22  O   UNL     1       6.408   3.824  13.487  0.00  0.00    +0.000 OA
ATOM     23  H   UNL     1       7.257   3.462  13.196  0.00  0.00    +0.000 HD
ENDBRANCH  19  22
ENDBRANCH  16  17
ENDBRANCH   7  16
TORSDOF 4
ENDMDL
MODEL 2
REMARK VINA RESULT:      -8.6      0.185      1.065
REMARK  Name = 
REMARK  4 active torsions:
REMARK  status: ('A' for Active; 'I' for Inactive)
REMARK    1  A    between atoms: C_5  and  C_6
REMARK    2  A    between atoms: N_14  and  C_15
REMARK    3  A    between atoms: C_15  and  C_16
REMARK    4  A    between atoms: C_18  and  O_19
REMARK                            x       y       z     vdW  Elec       q    Type
REMARK                         _______ _______ _______ _____ _____    ______ ____
ROOT
ATOM      1  N   UNL     1       4.894   2.422  19.596  0.00  0.00    +0.000 NA
ATOM      2  C   UNL     1       4.295   3.563  19.429  0.00  0.00    +0.000 A 
ATOM      3  C   UNL     1       2.925   3.727  19.983  0.00  0.00    +0.000 A 
ATOM      4  C   UNL     1       2.344   4.919  19.841  0.00  0.00    +0.000 A 
ATOM      5  C   UNL     1       3.100   6.018  19.170  0.00  0.00    +0.000 A 
ATOM      6  N   UNL     1       4.282   5.882  18.642  0.00  0.00    +0.000 NA
ATOM      7  N   UNL     1       4.869   4.632  18.759  0.00  0.00    +0.000 N 
ATOM      8  H   UNL     1       4.297   1.763  20.101  0.00  0.00    +0.000 HD
ENDROOT
BRANCH   5   9
ATOM      9  C   UNL     1       2.408   7.341  19.094  0.00  0.00    +0.000 A 
ATOM     10  C   UNL     1       2.453   8.128  17.932  0.00  0.00    +0.000 A 
ATOM     11  C   UNL     1       1.838   9.382  17.903  0.00  0.00    +0.000 A 
ATOM     12  C   UNL     1       1.156   9.844  19.025  0.00  0.00    +0.000 A 
ATOM     13 CL   UNL     1       0.409  11.393  18.986  0.00  0.00    +0.000 Cl
ATOM     14  C   UNL     1       1.074   9.058  20.174  0.00  0.00    +0.000 A 
ATOM     15  C   UNL     1       1.699   7.807  20.207  0.00  0.00    +0.000 A 
ENDBRANCH   5   9
BRANCH   7  16
ATOM     16  C   UNL     1       6.259   4.556  18.278  0.00  0.00    +0.000 C 
BRANCH  16  17
ATOM     17  C   UNL     1       6.392   4.587  16.796  0.00  0.00    +0.000 A 
ATOM     18  C   UNL     1       5.730   3.955  15.770  0.00  0.00    +0.000 A 
ATOM     19  C   UNL     1       6.473   4.313  14.643  0.00  0.00    +0.000 A 
ATOM     20  N   UNL     1       7.449   5.177  14.903  0.00  0.00    +0.000 NA
ATOM     21  O   UNL     1       7.402   5.349  16.284  0.00  0.00    +0.000 OA
BRANCH  19  22
ATOM     22  O   UNL     1       6.357   3.869  13.388  0.00  0.00    +0.000 OA
ATOM     23  H   UNL     1       6.785   3.003  13.315  0.00  0.00    +0.000 HD
ENDBRANCH  19  22
ENDBRANCH  16  17
ENDBRANCH   7  16
TORSDOF 4
ENDMDL
MODEL 3
REMARK VINA RESULT:      -8.3      1.495      2.305
REMARK  Name = 
REMARK  4 active torsions:
REMARK  status: ('A' for Active; 'I' for Inactive)
REMARK    1  A    between atoms: C_5  and  C_6
REMARK    2  A    between atoms: N_14  and  C_15
REMARK    3  A    between atoms: C_15  and  C_16
REMARK    4  A    between atoms: C_18  and  O_19
REMARK                            x       y       z     vdW  Elec       q    Type
REMARK                         _______ _______ _______ _____ _____    ______ ____
ROOT
ATOM      1  N   UNL     1       4.906   2.442  19.399  0.00  0.00    +0.000 NA
ATOM      2  C   UNL     1       4.283   3.578  19.298  0.00  0.00    +0.000 A 
ATOM      3  C   UNL     1       3.065   3.789  20.125  0.00  0.00    +0.000 A 
ATOM      4  C   UNL     1       2.465   4.977  20.042  0.00  0.00    +0.000 A 
ATOM      5  C   UNL     1       3.056   6.027  19.159  0.00  0.00    +0.000 A 
ATOM      6  N   UNL     1       4.095   5.847  18.397  0.00  0.00    +0.000 NA
ATOM      7  N   UNL     1       4.696   4.600  18.457  0.00  0.00    +0.000 N 
ATOM      8  H   UNL     1       4.434   1.820  20.058  0.00  0.00    +0.000 HD
ENDROOT
BRANCH   5   9
ATOM      9  C   UNL     1       2.360   7.351  19.157  0.00  0.00    +0.000 A 
ATOM     10  C   UNL     1       1.735   7.853  20.310  0.00  0.00    +0.000 A 
ATOM     11  C   UNL     1       1.051   9.071  20.270  0.00  0.00    +0.000 A 
ATOM     12  C   UNL     1       1.009   9.802  19.086  0.00  0.00    +0.000 A 
ATOM     13 CL   UNL     1       0.157  11.295  19.040  0.00  0.00    +0.000 Cl
ATOM     14  C   UNL     1       1.655   9.331  17.943  0.00  0.00    +0.000 A 
ATOM     15  C   UNL     1       2.331   8.107  17.980  0.00  0.00    +0.000 A 
ENDBRANCH   5   9
BRANCH   7  16
ATOM     16  C   UNL     1       5.949   4.481  17.692  0.00  0.00    +0.000 C 
BRANCH  16  17
ATOM     17  C   UNL     1       6.833   5.675  17.784  0.00  0.00    +0.000 A 
ATOM     18  C   UNL     1       7.639   6.186  18.774  0.00  0.00    +0.000 A 
ATOM     19  C   UNL     1       8.049   7.413  18.249  0.00  0.00    +0.000 A 
ATOM     20  N   UNL     1       7.637   7.622  17.003  0.00  0.00    +0.000 NA
ATOM     21  O   UNL     1       6.852   6.512  16.705  0.00  0.00    +0.000 OA
BRANCH  19  22
ATOM     22  O   UNL     1       8.739   8.390  18.846  0.00  0.00    +0.000 OA
ATOM     23  H   UNL     1       8.249   8.698  19.622  0.00  0.00    +0.000 HD
ENDBRANCH  19  22
ENDBRANCH  16  17
ENDBRANCH   7  16
TORSDOF 4
ENDMDL
MODEL 4
REMARK VINA RESULT:      -8.0      2.832      4.443
REMARK  Name = 
REMARK  4 active torsions:
REMARK  status: ('A' for Active; 'I' for Inactive)
REMARK    1  A    between atoms: C_5  and  C_6
REMARK    2  A    between atoms: N_14  and  C_15
REMARK    3  A    between atoms: C_15  and  C_16
REMARK    4  A    between atoms: C_18  and  O_19
REMARK                            x       y       z     vdW  Elec       q    Type
REMARK                         _______ _______ _______ _____ _____    ______ ____
ROOT
ATOM      1  N   UNL     1       5.784   3.520  16.070  0.00  0.00    +0.000 NA
ATOM      2  C   UNL     1       5.085   4.435  16.672  0.00  0.00    +0.000 A 
ATOM      3  C   UNL     1       5.333   5.858  16.318  0.00  0.00    +0.000 A 
ATOM      4  C   UNL     1       4.575   6.780  16.915  0.00  0.00    +0.000 A 
ATOM      5  C   UNL     1       3.514   6.338  17.868  0.00  0.00    +0.000 A 
ATOM      6  N   UNL     1       3.310   5.103  18.221  0.00  0.00    +0.000 NA
ATOM      7  N   UNL     1       4.123   4.149  17.629  0.00  0.00    +0.000 N 
ATOM      8  H   UNL     1       6.448   3.936  15.414  0.00  0.00    +0.000 HD
ENDROOT
BRANCH   5   9
ATOM      9  C   UNL     1       2.668   7.422  18.457  0.00  0.00    +0.000 A 
ATOM     10  C   UNL     1       2.218   7.362  19.786  0.00  0.00    +0.000 A 
ATOM     11  C   UNL     1       1.389   8.364  20.297  0.00  0.00    +0.000 A 
ATOM     12  C   UNL     1       1.026   9.440  19.492  0.00  0.00    +0.000 A 
ATOM     13 CL   UNL     1      -0.003  10.664  20.124  0.00  0.00    +0.000 Cl
ATOM     14  C   UNL     1       1.493   9.529  18.181  0.00  0.00    +0.000 A 
ATOM     15  C   UNL     1       2.315   8.521  17.665  0.00  0.00    +0.000 A 
ENDBRANCH   5   9
BRANCH   7  16
ATOM     16  C   UNL     1       3.769   2.755  17.943  0.00  0.00    +0.000 C 
BRANCH  16  17
ATOM     17  C   UNL     1       3.100   2.580  19.261  0.00  0.00    +0.000 A 
ATOM     18  C   UNL     1       1.783   2.529  19.657  0.00  0.00    +0.000 A 
ATOM     19  C   UNL     1       1.872   2.513  21.051  0.00  0.00    +0.000 A 
ATOM     20  N   UNL     1       3.120   2.450  21.504  0.00  0.00    +0.000 NA
ATOM     21  O   UNL     1       3.908   2.499  20.357  0.00  0.00    +0.000 OA
BRANCH  19  22
ATOM     22  O   UNL     1       0.889   2.602  21.953  0.00  0.00    +0.000 OA
ATOM     23  H   UNL     1       0.134   3.061  21.557  0.00  0.00    +0.000 HD
ENDBRANCH  19  22
ENDBRANCH  16  17
ENDBRANCH   7  16
TORSDOF 4
ENDMDL
MODEL 5
REMARK VINA RESULT:      -8.0      2.842      4.573
REMARK  Name = 
REMARK  4 active torsions:
REMARK  status: ('A' for Active; 'I' for Inactive)
REMARK    1  A    between atoms: C_5  and  C_6
REMARK    2  A    between atoms: N_14  and  C_15
REMARK    3  A    between atoms: C_15  and  C_16
REMARK    4  A    between atoms: C_18  and  O_19
REMARK                            x       y       z     vdW  Elec       q    Type
REMARK                         _______ _______ _______ _____ _____    ______ ____
ROOT
ATOM      1  N   UNL     1       5.663   3.604  16.253  0.00  0.00    +0.000 NA
ATOM      2  C   UNL     1       4.947   4.525  16.826  0.00  0.00    +0.000 A 
ATOM      3  C   UNL     1       5.250   5.947  16.516  0.00  0.00    +0.000 A 
ATOM      4  C   UNL     1       4.475   6.876  17.079  0.00  0.00    +0.000 A 
ATOM      5  C   UNL     1       3.345   6.444  17.954  0.00  0.00    +0.000 A 
ATOM      6  N   UNL     1       3.091   5.208  18.270  0.00  0.00    +0.000 NA
ATOM      7  N   UNL     1       3.919   4.246  17.713  0.00  0.00    +0.000 N 
ATOM      8  H   UNL     1       6.378   4.015  15.650  0.00  0.00    +0.000 HD
ENDROOT
BRANCH   5   9
ATOM      9  C   UNL     1       2.487   7.538  18.506  0.00  0.00    +0.000 A 
ATOM     10  C   UNL     1       2.073   8.619  17.711  0.00  0.00    +0.000 A 
ATOM     11  C   UNL     1       1.312   9.651  18.263  0.00  0.00    +0.000 A 
ATOM     12  C   UNL     1       0.942   9.598  19.604  0.00  0.00    +0.000 A 
ATOM     13 CL   UNL     1       0.013  10.877  20.281  0.00  0.00    +0.000 Cl
ATOM     14  C   UNL     1       1.317   8.513  20.397  0.00  0.00    +0.000 A 
ATOM     15  C   UNL     1       2.088   7.483  19.846  0.00  0.00    +0.000 A 
ENDBRANCH   5   9
BRANCH   7  16
ATOM     16  C   UNL     1       3.514   2.855  17.979  0.00  0.00    +0.000 C 
BRANCH  16  17
ATOM     17  C   UNL     1       3.018   2.620  19.362  0.00  0.00    +0.000 A 
ATOM     18  C   UNL     1       1.763   2.552  19.921  0.00  0.00    +0.000 A 
ATOM     19  C   UNL     1       2.029   2.471  21.290  0.00  0.00    +0.000 A 
ATOM     20  N   UNL     1       3.324   2.385  21.575  0.00  0.00    +0.000 NA
ATOM     21  O   UNL     1       3.960   2.487  20.341  0.00  0.00    +0.000 OA
BRANCH  19  22
ATOM     22  O   UNL     1       1.171   2.519  22.314  0.00  0.00    +0.000 OA
ATOM     23  H   UNL     1       0.288   2.273  22.001  0.00  0.00    +0.000 HD
ENDBRANCH  19  22
ENDBRANCH  16  17
ENDBRANCH   7  16
TORSDOF 4
ENDMDL
MODEL 6
REMARK VINA RESULT:      -7.9      1.183      1.647
REMARK  Name = 
REMARK  4 active torsions:
REMARK  status: ('A' for Active; 'I' for Inactive)
REMARK    1  A    between atoms: C_5  and  C_6
REMARK    2  A    between atoms: N_14  and  C_15
REMARK    3  A    between atoms: C_15  and  C_16
REMARK    4  A    between atoms: C_18  and  O_19
REMARK                            x       y       z     vdW  Elec       q    Type
REMARK                         _______ _______ _______ _____ _____    ______ ____
ROOT
ATOM      1  N   UNL     1       4.252   2.101  19.196  0.00  0.00    +0.000 NA
ATOM      2  C   UNL     1       3.720   3.286  19.147  0.00  0.00    +0.000 A 
ATOM      3  C   UNL     1       3.263   3.905  20.419  0.00  0.00    +0.000 A 
ATOM      4  C   UNL     1       2.760   5.139  20.354  0.00  0.00    +0.000 A 
ATOM      5  C   UNL     1       2.711   5.833  19.033  0.00  0.00    +0.000 A 
ATOM      6  N   UNL     1       3.067   5.292  17.905  0.00  0.00    +0.000 NA
ATOM      7  N   UNL     1       3.555   3.996  17.968  0.00  0.00    +0.000 N 
ATOM      8  H   UNL     1       4.268   1.743  20.153  0.00  0.00    +0.000 HD
ENDROOT
BRANCH   5   9
ATOM      9  C   UNL     1       2.185   7.233  19.045  0.00  0.00    +0.000 A 
ATOM     10  C   UNL     1       2.219   8.040  17.896  0.00  0.00    +0.000 A 
ATOM     11  C   UNL     1       1.765   9.360  17.946  0.00  0.00    +0.000 A 
ATOM     12  C   UNL     1       1.255   9.872  19.137  0.00  0.00    +0.000 A 
ATOM     13 CL   UNL     1       0.708  11.501  19.194  0.00  0.00    +0.000 Cl
ATOM     14  C   UNL     1       1.185   9.071  20.276  0.00  0.00    +0.000 A 
ATOM     15  C   UNL     1       1.648   7.752  20.229  0.00  0.00    +0.000 A 
ENDBRANCH   5   9
BRANCH   7  16
ATOM     16  C   UNL     1       4.080   3.471  16.696  0.00  0.00    +0.000 C 
BRANCH  16  17
ATOM     17  C   UNL     1       5.307   4.160  16.214  0.00  0.00    +0.000 A 
ATOM     18  C   UNL     1       5.658   4.749  15.021  0.00  0.00    +0.000 A 
ATOM     19  C   UNL     1       7.009   5.051  15.202  0.00  0.00    +0.000 A 
ATOM     20  N   UNL     1       7.455   4.785  16.426  0.00  0.00    +0.000 NA
ATOM     21  O   UNL     1       6.366   4.208  17.073  0.00  0.00    +0.000 OA
BRANCH  19  22
ATOM     22  O   UNL     1       7.891   5.513  14.309  0.00  0.00    +0.000 OA
ATOM     23  H   UNL     1       7.444   6.126  13.707  0.00  0.00    +0.000 HD
ENDBRANCH  19  22
ENDBRANCH  16  17
ENDBRANCH   7  16
TORSDOF 4
ENDMDL
MODEL 7
REMARK VINA RESULT:      -7.8      1.560      2.539
REMARK  Name = 
REMARK  4 active torsions:
REMARK  status: ('A' for Active; 'I' for Inactive)
REMARK    1  A    between atoms: C_5  and  C_6
REMARK    2  A    between atoms: N_14  and  C_15
REMARK    3  A    between atoms: C_15  and  C_16
REMARK    4  A    between atoms: C_18  and  O_19
REMARK                            x       y       z     vdW  Elec       q    Type
REMARK                         _______ _______ _______ _____ _____    ______ ____
ROOT
ATOM      1  N   UNL     1       4.349   2.560  18.374  0.00  0.00    +0.000 NA
ATOM      2  C   UNL     1       3.792   3.729  18.486  0.00  0.00    +0.000 A 
ATOM      3  C   UNL     1       2.635   3.872  19.409  0.00  0.00    +0.000 A 
ATOM      4  C   UNL     1       2.105   5.089  19.544  0.00  0.00    +0.000 A 
ATOM      5  C   UNL     1       2.711   6.231  18.796  0.00  0.00    +0.000 A 
ATOM      6  N   UNL     1       3.696   6.117  17.953  0.00  0.00    +0.000 NA
ATOM      7  N   UNL     1       4.222   4.846  17.786  0.00  0.00    +0.000 N 
ATOM      8  H   UNL     1       3.876   1.869  18.959  0.00  0.00    +0.000 HD
ENDROOT
BRANCH   5   9
ATOM      9  C   UNL     1       2.100   7.573  19.038  0.00  0.00    +0.000 A 
ATOM     10  C   UNL     1       2.025   8.540  18.022  0.00  0.00    +0.000 A 
ATOM     11  C   UNL     1       1.492   9.804  18.287  0.00  0.00    +0.000 A 
ATOM     12  C   UNL     1       1.010  10.099  19.560  0.00  0.00    +0.000 A 
ATOM     13 CL   UNL     1       0.365  11.660  19.882  0.00  0.00    +0.000 Cl
ATOM     14  C   UNL     1       1.047   9.137  20.568  0.00  0.00    +0.000 A 
ATOM     15  C   UNL     1       1.590   7.874  20.306  0.00  0.00    +0.000 A 
ENDBRANCH   5   9
BRANCH   7  16
ATOM     16  C   UNL     1       5.423   4.782  16.936  0.00  0.00    +0.000 C 
BRANCH  16  17
ATOM     17  C   UNL     1       6.479   5.765  17.300  0.00  0.00    +0.000 A 
ATOM     18  C   UNL     1       7.251   5.956  18.423  0.00  0.00    +0.000 A 
ATOM     19  C   UNL     1       7.913   7.155  18.152  0.00  0.00    +0.000 A 
ATOM     20  N   UNL     1       7.675   7.631  16.934  0.00  0.00    +0.000 NA
ATOM     21  O   UNL     1       6.751   6.744  16.389  0.00  0.00    +0.000 OA
BRANCH  19  22
ATOM     22  O   UNL     1       8.690   7.884  18.960  0.00  0.00    +0.000 OA
ATOM     23  H   UNL     1       8.756   8.785  18.612  0.00  0.00    +0.000 HD
ENDBRANCH  19  22
ENDBRANCH  16  17
ENDBRANCH   7  16
TORSDOF 4
ENDMDL
MODEL 8
REMARK VINA RESULT:      -7.8      1.029      1.131
REMARK  Name = 
REMARK  4 active torsions:
REMARK  status: ('A' for Active; 'I' for Inactive)
REMARK    1  A    between atoms: C_5  and  C_6
REMARK    2  A    between atoms: N_14  and  C_15
REMARK    3  A    between atoms: C_15  and  C_16
REMARK    4  A    between atoms: C_18  and  O_19
REMARK                            x       y       z     vdW  Elec       q    Type
REMARK                         _______ _______ _______ _____ _____    ______ ____
ROOT
ATOM      1  N   UNL     1       4.105   2.319  20.004  0.00  0.00    +0.000 NA
ATOM      2  C   UNL     1       3.634   3.514  19.803  0.00  0.00    +0.000 A 
ATOM      3  C   UNL     1       2.210   3.776  20.144  0.00  0.00    +0.000 A 
ATOM      4  C   UNL     1       1.758   5.020  19.973  0.00  0.00    +0.000 A 
ATOM      5  C   UNL     1       2.697   6.072  19.483  0.00  0.00    +0.000 A 
ATOM      6  N   UNL     1       3.933   5.852  19.140  0.00  0.00    +0.000 NA
ATOM      7  N   UNL     1       4.392   4.553  19.284  0.00  0.00    +0.000 N 
ATOM      8  H   UNL     1       3.384   1.697  20.375  0.00  0.00    +0.000 HD
ENDROOT
BRANCH   5   9
ATOM      9  C   UNL     1       2.134   7.452  19.367  0.00  0.00    +0.000 A 
ATOM     10  C   UNL     1       1.528   8.092  20.460  0.00  0.00    +0.000 A 
ATOM     11  C   UNL     1       0.967   9.363  20.313  0.00  0.00    +0.000 A 
ATOM     12  C   UNL     1       1.030  10.009  19.082  0.00  0.00    +0.000 A 
ATOM     13 CL   UNL     1       0.328  11.569  18.905  0.00  0.00    +0.000 Cl
ATOM     14  C   UNL     1       1.659   9.399  17.997  0.00  0.00    +0.000 A 
ATOM     15  C   UNL     1       2.212   8.122  18.141  0.00  0.00    +0.000 A 
ENDBRANCH   5   9
BRANCH   7  16
ATOM     16  C   UNL     1       5.830   4.373  19.022  0.00  0.00    +0.000 C 
BRANCH  16  17
ATOM     17  C   UNL     1       6.199   4.445  17.583  0.00  0.00    +0.000 A 
ATOM     18  C   UNL     1       7.306   4.906  16.908  0.00  0.00    +0.000 A 
ATOM     19  C   UNL     1       6.919   4.825  15.569  0.00  0.00    +0.000 A 
ATOM     20  N   UNL     1       5.726   4.267  15.394  0.00  0.00    +0.000 NA
ATOM     21  O   UNL     1       5.260   4.028  16.684  0.00  0.00    +0.000 OA
BRANCH  19  22
ATOM     22  O   UNL     1       7.559   5.272  14.484  0.00  0.00    +0.000 OA
ATOM     23  H   UNL     1       7.894   6.164  14.657  0.00  0.00    +0.000 HD
ENDBRANCH  19  22
ENDBRANCH  16  17
ENDBRANCH   7  16
TORSDOF 4
ENDMDL
MODEL 9
REMARK VINA RESULT:      -7.7      1.258      1.311
REMARK  Name = 
REMARK  4 active torsions:
REMARK  status: ('A' for Active; 'I' for Inactive)
REMARK    1  A    between atoms: C_5  and  C_6
REMARK    2  A    between atoms: N_14  and  C_15
REMARK    3  A    between atoms: C_15  and  C_16
REMARK    4  A    between atoms: C_18  and  O_19
REMARK                            x       y       z     vdW  Elec       q    Type
REMARK                         _______ _______ _______ _____ _____    ______ ____
ROOT
ATOM      1  N   UNL     1       3.992   2.132  17.866  0.00  0.00    +0.000 NA
ATOM      2  C   UNL     1       3.561   3.344  18.055  0.00  0.00    +0.000 A 
ATOM      3  C   UNL     1       2.100   3.550  18.242  0.00  0.00    +0.000 A 
ATOM      4  C   UNL     1       1.682   4.795  18.479  0.00  0.00    +0.000 A 
ATOM      5  C   UNL     1       2.691   5.892  18.572  0.00  0.00    +0.000 A 
ATOM      6  N   UNL     1       3.966   5.738  18.370  0.00  0.00    +0.000 NA
ATOM      7  N   UNL     1       4.395   4.450  18.088  0.00  0.00    +0.000 N 
ATOM      8  H   UNL     1       3.219   1.463  17.860  0.00  0.00    +0.000 HD
ENDROOT
BRANCH   5   9
ATOM      9  C   UNL     1       2.155   7.251  18.893  0.00  0.00    +0.000 A 
ATOM     10  C   UNL     1       1.774   7.600  20.200  0.00  0.00    +0.000 A 
ATOM     11  C   UNL     1       1.232   8.860  20.465  0.00  0.00    +0.000 A 
ATOM     12  C   UNL     1       1.089   9.783  19.433  0.00  0.00    +0.000 A 
ATOM     13 CL   UNL     1       0.411  11.328  19.764  0.00  0.00    +0.000 Cl
ATOM     14  C   UNL     1       1.494   9.462  18.138  0.00  0.00    +0.000 A 
ATOM     15  C   UNL     1       2.028   8.196  17.870  0.00  0.00    +0.000 A 
ENDBRANCH   5   9
BRANCH   7  16
ATOM     16  C   UNL     1       5.857   4.290  18.007  0.00  0.00    +0.000 C 
BRANCH  16  17
ATOM     17  C   UNL     1       6.406   4.414  16.630  0.00  0.00    +0.000 A 
ATOM     18  C   UNL     1       7.325   5.255  16.046  0.00  0.00    +0.000 A 
ATOM     19  C   UNL     1       7.243   4.925  14.692  0.00  0.00    +0.000 A 
ATOM     20  N   UNL     1       6.434   3.901  14.442  0.00  0.00    +0.000 NA
ATOM     21  O   UNL     1       5.892   3.576  15.683  0.00  0.00    +0.000 OA
BRANCH  19  22
ATOM     22  O   UNL     1       7.821   5.527  13.647  0.00  0.00    +0.000 OA
ATOM     23  H   UNL     1       7.681   4.991  12.853  0.00  0.00    +0.000 HD
ENDBRANCH  19  22
ENDBRANCH  16  17
ENDBRANCH   7  16
TORSDOF 4
ENDMDL
