MODEL 1
REMARK VINA RESULT:      -8.5      0.000      0.000
REMARK  Name = 
REMARK  7 active torsions:
REMARK  status: ('A' for Active; 'I' for Inactive)
REMARK    1  A    between atoms: C_2  and  C_12
REMARK    2  A    between atoms: N_3  and  C_4
REMARK    3  A    between atoms: C_4  and  C_5
REMARK    4  A    between atoms: C_5  and  C_6
REMARK    5  A    between atoms: N_14  and  C_15
REMARK    6  A    between atoms: C_23  and  C_24
REMARK    7  A    between atoms: C_24  and  O_25
REMARK                            x       y       z     vdW  Elec       q    Type
REMARK                         _______ _______ _______ _____ _____    ______ ____
ROOT
ATOM      1  C   UNL     1       6.375   5.327  18.079  0.00  0.00    +0.000 A 
ATOM      2  N   UNL     1       5.322   5.017  18.853  0.00  0.00    +0.000 NA
ATOM      3  N   UNL     1       4.545   4.246  18.043  0.00  0.00    +0.000 N 
ATOM      4  N   UNL     1       5.059   4.019  16.794  0.00  0.00    +0.000 NA
ATOM      5  C   UNL     1       6.201   4.719  16.814  0.00  0.00    +0.000 A 
ENDROOT
BRANCH   3   6
ATOM      6  C   UNL     1       3.303   3.651  18.428  0.00  0.00    +0.000 A 
ATOM      7  C   UNL     1       2.126   4.092  17.772  0.00  0.00    +0.000 A 
ATOM      8  C   UNL     1       0.879   3.534  18.063  0.00  0.00    +0.000 A 
ATOM      9  C   UNL     1       0.776   2.531  19.016  0.00  0.00    +0.000 A 
ATOM     10  C   UNL     1       1.921   2.098  19.686  0.00  0.00    +0.000 A 
ATOM     11  C   UNL     1       3.185   2.651  19.406  0.00  0.00    +0.000 A 
ATOM     12 CL   UNL     1       4.482   2.006  20.351  0.00  0.00    +0.000 Cl
ENDBRANCH   3   6
BRANCH   1  14
ATOM     13  O   UNL     1       8.329   5.740  19.328  0.00  0.00    +0.000 OA
ATOM     14  C   UNL     1       7.514   6.153  18.505  0.00  0.00    +0.000 C 
ATOM     15  N   UNL     1       7.611   7.420  17.956  0.00  0.00    +0.000 N 
ATOM     16  H   UNL     1       6.810   7.765  17.432  0.00  0.00    +0.000 HD
BRANCH  15  17
ATOM     17  C   UNL     1       8.648   8.318  18.440  0.00  0.00    +0.000 C 
BRANCH  17  18
ATOM     18  C   UNL     1       8.398   9.812  18.223  0.00  0.00    +0.000 C 
BRANCH  18  19
ATOM     19  C   UNL     1       9.486  10.713  18.751  0.00  0.00    +0.000 A 
ATOM     20  C   UNL     1       9.588  11.009  20.119  0.00  0.00    +0.000 A 
ATOM     21  C   UNL     1      10.593  11.862  20.584  0.00  0.00    +0.000 A 
ATOM     22  C   UNL     1      11.508  12.415  19.692  0.00  0.00    +0.000 A 
ATOM     23  C   UNL     1      11.431  12.106  18.336  0.00  0.00    +0.000 A 
ATOM     24  C   UNL     1      10.428  11.256  17.869  0.00  0.00    +0.000 A 
ENDBRANCH  18  19
ENDBRANCH  17  18
ENDBRANCH  15  17
ENDBRANCH   1  14
BRANCH   5  25
ATOM     25  C   UNL     1       7.117   4.745  15.631  0.00  0.00    +0.000 C 
BRANCH  25  26
ATOM     26  O   UNL     1       6.707   5.686  14.636  0.00  0.00    +0.000 OA
ATOM     27  H   UNL     1       7.534   6.094  14.317  0.00  0.00    +0.000 HD
ENDBRANCH  25  26
ENDBRANCH   5  25
TORSDOF 7
ENDMDL
MODEL 2
REMARK VINA RESULT:      -8.5      3.566      6.960
REMARK  Name = 
REMARK  7 active torsions:
REMARK  status: ('A' for Active; 'I' for Inactive)
REMARK    1  A    between atoms: C_2  and  C_12
REMARK    2  A    between atoms: N_3  and  C_4
REMARK    3  A    between atoms: C_4  and  C_5
REMARK    4  A    between atoms: C_5  and  C_6
REMARK    5  A    between atoms: N_14  and  C_15
REMARK    6  A    between atoms: C_23  and  C_24
REMARK    7  A    between atoms: C_24  and  O_25
REMARK                            x       y       z     vdW  Elec       q    Type
REMARK                         _______ _______ _______ _____ _____    ______ ____
ROOT
ATOM      1  C   UNL     1       6.185   5.136  17.566  0.00  0.00    +0.000 A 
ATOM      2  N   UNL     1       4.933   4.650  17.548  0.00  0.00    +0.000 NA
ATOM      3  N   UNL     1       4.622   4.517  18.867  0.00  0.00    +0.000 N 
ATOM      4  N   UNL     1       5.601   4.919  19.736  0.00  0.00    +0.000 NA
ATOM      5  C   UNL     1       6.591   5.289  18.912  0.00  0.00    +0.000 A 
ENDROOT
BRANCH   3   6
ATOM      6  C   UNL     1       3.368   4.044  19.367  0.00  0.00    +0.000 A 
ATOM      7  C   UNL     1       2.605   4.923  20.179  0.00  0.00    +0.000 A 
ATOM      8  C   UNL     1       1.354   4.551  20.674  0.00  0.00    +0.000 A 
ATOM      9  C   UNL     1       0.837   3.298  20.379  0.00  0.00    +0.000 A 
ATOM     10  C   UNL     1       1.582   2.413  19.598  0.00  0.00    +0.000 A 
ATOM     11  C   UNL     1       2.846   2.770  19.092  0.00  0.00    +0.000 A 
ATOM     12 CL   UNL     1       3.630   1.537  18.166  0.00  0.00    +0.000 Cl
ENDBRANCH   3   6
BRANCH   1  14
ATOM     13  O   UNL     1       7.604   6.513  16.287  0.00  0.00    +0.000 OA
ATOM     14  C   UNL     1       6.975   5.460  16.371  0.00  0.00    +0.000 C 
ATOM     15  N   UNL     1       6.959   4.538  15.339  0.00  0.00    +0.000 N 
ATOM     16  H   UNL     1       6.277   3.785  15.395  0.00  0.00    +0.000 HD
BRANCH  15  17
ATOM     17  C   UNL     1       7.624   4.870  14.088  0.00  0.00    +0.000 C 
BRANCH  17  18
ATOM     18  C   UNL     1       6.727   4.957  12.852  0.00  0.00    +0.000 C 
BRANCH  18  19
ATOM     19  C   UNL     1       6.480   3.640  12.161  0.00  0.00    +0.000 A 
ATOM     20  C   UNL     1       5.179   3.159  11.948  0.00  0.00    +0.000 A 
ATOM     21  C   UNL     1       4.974   1.928  11.322  0.00  0.00    +0.000 A 
ATOM     22  C   UNL     1       6.063   1.171  10.895  0.00  0.00    +0.000 A 
ATOM     23  C   UNL     1       7.358   1.651  11.078  0.00  0.00    +0.000 A 
ATOM     24  C   UNL     1       7.565   2.881  11.704  0.00  0.00    +0.000 A 
ENDBRANCH  18  19
ENDBRANCH  17  18
ENDBRANCH  15  17
ENDBRANCH   1  14
BRANCH   5  25
ATOM     25  C   UNL     1       7.883   5.824  19.444  0.00  0.00    +0.000 C 
BRANCH  25  26
ATOM     26  O   UNL     1       8.248   5.242  20.698  0.00  0.00    +0.000 OA
ATOM     27  H   UNL     1       8.405   4.299  20.504  0.00  0.00    +0.000 HD
ENDBRANCH  25  26
ENDBRANCH   5  25
TORSDOF 7
ENDMDL
MODEL 3
REMARK VINA RESULT:      -8.4      1.424      1.741
REMARK  Name = 
REMARK  7 active torsions:
REMARK  status: ('A' for Active; 'I' for Inactive)
REMARK    1  A    between atoms: C_2  and  C_12
REMARK    2  A    between atoms: N_3  and  C_4
REMARK    3  A    between atoms: C_4  and  C_5
REMARK    4  A    between atoms: C_5  and  C_6
REMARK    5  A    between atoms: N_14  and  C_15
REMARK    6  A    between atoms: C_23  and  C_24
REMARK    7  A    between atoms: C_24  and  O_25
REMARK                            x       y       z     vdW  Elec       q    Type
REMARK                         _______ _______ _______ _____ _____    ______ ____
ROOT
ATOM      1  C   UNL     1       6.104   5.481  18.235  0.00  0.00    +0.000 A 
ATOM      2  N   UNL     1       5.241   5.306  19.250  0.00  0.00    +0.000 NA
ATOM      3  N   UNL     1       4.348   4.403  18.758  0.00  0.00    +0.000 N 
ATOM      4  N   UNL     1       4.607   3.965  17.487  0.00  0.00    +0.000 NA
ATOM      5  C   UNL     1       5.702   4.662  17.154  0.00  0.00    +0.000 A 
ENDROOT
BRANCH   3   6
ATOM      6  C   UNL     1       3.234   3.879  19.485  0.00  0.00    +0.000 A 
ATOM      7  C   UNL     1       3.492   3.240  20.725  0.00  0.00    +0.000 A 
ATOM      8  C   UNL     1       2.455   2.736  21.513  0.00  0.00    +0.000 A 
ATOM      9  C   UNL     1       1.142   2.850  21.082  0.00  0.00    +0.000 A 
ATOM     10  C   UNL     1       0.870   3.457  19.856  0.00  0.00    +0.000 A 
ATOM     11  C   UNL     1       1.902   3.970  19.048  0.00  0.00    +0.000 A 
ATOM     12 CL   UNL     1       1.376   4.664  17.555  0.00  0.00    +0.000 Cl
ENDBRANCH   3   6
BRANCH   1  14
ATOM     13  O   UNL     1       8.210   6.163  19.040  0.00  0.00    +0.000 OA
ATOM     14  C   UNL     1       7.272   6.371  18.272  0.00  0.00    +0.000 C 
ATOM     15  N   UNL     1       7.256   7.463  17.422  0.00  0.00    +0.000 N 
ATOM     16  H   UNL     1       6.379   7.680  16.954  0.00  0.00    +0.000 HD
BRANCH  15  17
ATOM     17  C   UNL     1       8.331   8.440  17.512  0.00  0.00    +0.000 C 
BRANCH  17  18
ATOM     18  C   UNL     1       7.977   9.770  18.180  0.00  0.00    +0.000 C 
BRANCH  18  19
ATOM     19  C   UNL     1       9.161  10.543  18.704  0.00  0.00    +0.000 A 
ATOM     20  C   UNL     1       9.310  10.810  20.074  0.00  0.00    +0.000 A 
ATOM     21  C   UNL     1      10.405  11.544  20.535  0.00  0.00    +0.000 A 
ATOM     22  C   UNL     1      11.364  12.009  19.637  0.00  0.00    +0.000 A 
ATOM     23  C   UNL     1      11.238  11.727  18.279  0.00  0.00    +0.000 A 
ATOM     24  C   UNL     1      10.145  10.995  17.815  0.00  0.00    +0.000 A 
ENDBRANCH  18  19
ENDBRANCH  17  18
ENDBRANCH  15  17
ENDBRANCH   1  14
BRANCH   5  25
ATOM     25  C   UNL     1       6.358   4.485  15.821  0.00  0.00    +0.000 C 
BRANCH  25  26
ATOM     26  O   UNL     1       6.223   3.156  15.310  0.00  0.00    +0.000 OA
ATOM     27  H   UNL     1       6.199   2.583  16.098  0.00  0.00    +0.000 HD
ENDBRANCH  25  26
ENDBRANCH   5  25
TORSDOF 7
ENDMDL
MODEL 4
REMARK VINA RESULT:      -8.4      1.406      1.550
REMARK  Name = 
REMARK  7 active torsions:
REMARK  status: ('A' for Active; 'I' for Inactive)
REMARK    1  A    between atoms: C_2  and  C_12
REMARK    2  A    between atoms: N_3  and  C_4
REMARK    3  A    between atoms: C_4  and  C_5
REMARK    4  A    between atoms: C_5  and  C_6
REMARK    5  A    between atoms: N_14  and  C_15
REMARK    6  A    between atoms: C_23  and  C_24
REMARK    7  A    between atoms: C_24  and  O_25
REMARK                            x       y       z     vdW  Elec       q    Type
REMARK                         _______ _______ _______ _____ _____    ______ ____
ROOT
ATOM      1  C   UNL     1       6.021   5.855  17.908  0.00  0.00    +0.000 A 
ATOM      2  N   UNL     1       5.180   5.561  18.914  0.00  0.00    +0.000 NA
ATOM      3  N   UNL     1       4.219   4.804  18.317  0.00  0.00    +0.000 N 
ATOM      4  N   UNL     1       4.413   4.570  16.982  0.00  0.00    +0.000 NA
ATOM      5  C   UNL     1       5.538   5.250  16.724  0.00  0.00    +0.000 A 
ENDROOT
BRANCH   3   6
ATOM      6  C   UNL     1       3.097   4.229  18.992  0.00  0.00    +0.000 A 
ATOM      7  C   UNL     1       2.907   2.827  18.885  0.00  0.00    +0.000 A 
ATOM      8  C   UNL     1       1.857   2.185  19.545  0.00  0.00    +0.000 A 
ATOM      9  C   UNL     1       0.972   2.921  20.318  0.00  0.00    +0.000 A 
ATOM     10  C   UNL     1       1.132   4.304  20.418  0.00  0.00    +0.000 A 
ATOM     11  C   UNL     1       2.183   4.969  19.759  0.00  0.00    +0.000 A 
ATOM     12 CL   UNL     1       2.206   6.684  19.981  0.00  0.00    +0.000 Cl
ENDBRANCH   3   6
BRANCH   1  14
ATOM     13  O   UNL     1       8.156   6.314  18.790  0.00  0.00    +0.000 OA
ATOM     14  C   UNL     1       7.242   6.660  18.044  0.00  0.00    +0.000 C 
ATOM     15  N   UNL     1       7.305   7.834  17.314  0.00  0.00    +0.000 N 
ATOM     16  H   UNL     1       6.448   8.153  16.867  0.00  0.00    +0.000 HD
BRANCH  15  17
ATOM     17  C   UNL     1       8.438   8.726  17.510  0.00  0.00    +0.000 C 
BRANCH  17  18
ATOM     18  C   UNL     1       8.135  10.055  18.205  0.00  0.00    +0.000 C 
BRANCH  18  19
ATOM     19  C   UNL     1       9.346  10.770  18.748  0.00  0.00    +0.000 A 
ATOM     20  C   UNL     1       9.502  11.001  20.123  0.00  0.00    +0.000 A 
ATOM     21  C   UNL     1      10.624  11.682  20.602  0.00  0.00    +0.000 A 
ATOM     22  C   UNL     1      11.603  12.128  19.716  0.00  0.00    +0.000 A 
ATOM     23  C   UNL     1      11.469  11.880  18.352  0.00  0.00    +0.000 A 
ATOM     24  C   UNL     1      10.349  11.202  17.871  0.00  0.00    +0.000 A 
ENDBRANCH  18  19
ENDBRANCH  17  18
ENDBRANCH  15  17
ENDBRANCH   1  14
BRANCH   5  25
ATOM     25  C   UNL     1       6.141   5.262  15.355  0.00  0.00    +0.000 C 
BRANCH  25  26
ATOM     26  O   UNL     1       7.469   4.732  15.332  0.00  0.00    +0.000 OA
ATOM     27  H   UNL     1       7.957   5.241  16.006  0.00  0.00    +0.000 HD
ENDBRANCH  25  26
ENDBRANCH   5  25
TORSDOF 7
ENDMDL
MODEL 5
REMARK VINA RESULT:      -8.4      1.254      1.273
REMARK  Name = 
REMARK  7 active torsions:
REMARK  status: ('A' for Active; 'I' for Inactive)
REMARK    1  A    between atoms: C_2  and  C_12
REMARK    2  A    between atoms: N_3  and  C_4
REMARK    3  A    between atoms: C_4  and  C_5
REMARK    4  A    between atoms: C_5  and  C_6
REMARK    5  A    between atoms: N_14  and  C_15
REMARK    6  A    between atoms: C_23  and  C_24
REMARK    7  A    between atoms: C_24  and  O_25
REMARK                            x       y       z     vdW  Elec       q    Type
REMARK                         _______ _______ _______ _____ _____    ______ ____
ROOT
ATOM      1  C   UNL     1       5.874   5.388  17.518  0.00  0.00    +0.000 A 
ATOM      2  N   UNL     1       5.102   5.426  18.617  0.00  0.00    +0.000 NA
ATOM      3  N   UNL     1       4.280   4.351  18.468  0.00  0.00    +0.000 N 
ATOM      4  N   UNL     1       4.501   3.605  17.341  0.00  0.00    +0.000 NA
ATOM      5  C   UNL     1       5.492   4.273  16.736  0.00  0.00    +0.000 A 
ENDROOT
BRANCH   3   6
ATOM      6  C   UNL     1       3.276   3.955  19.407  0.00  0.00    +0.000 A 
ATOM      7  C   UNL     1       2.072   4.703  19.444  0.00  0.00    +0.000 A 
ATOM      8  C   UNL     1       1.029   4.358  20.306  0.00  0.00    +0.000 A 
ATOM      9  C   UNL     1       1.163   3.266  21.151  0.00  0.00    +0.000 A 
ATOM     10  C   UNL     1       2.349   2.530  21.142  0.00  0.00    +0.000 A 
ATOM     11  C   UNL     1       3.411   2.865  20.282  0.00  0.00    +0.000 A 
ATOM     12 CL   UNL     1       4.807   1.855  20.428  0.00  0.00    +0.000 Cl
ENDBRANCH   3   6
BRANCH   1  14
ATOM     13  O   UNL     1       7.509   6.346  16.119  0.00  0.00    +0.000 OA
ATOM     14  C   UNL     1       6.941   6.350  17.209  0.00  0.00    +0.000 C 
ATOM     15  N   UNL     1       7.290   7.241  18.209  0.00  0.00    +0.000 N 
ATOM     16  H   UNL     1       6.916   7.071  19.140  0.00  0.00    +0.000 HD
BRANCH  15  17
ATOM     17  C   UNL     1       8.423   8.129  17.995  0.00  0.00    +0.000 C 
BRANCH  17  18
ATOM     18  C   UNL     1       8.116   9.628  18.016  0.00  0.00    +0.000 C 
BRANCH  18  19
ATOM     19  C   UNL     1       9.190  10.480  18.643  0.00  0.00    +0.000 A 
ATOM     20  C   UNL     1       9.264  10.655  20.033  0.00  0.00    +0.000 A 
ATOM     21  C   UNL     1      10.257  11.464  20.592  0.00  0.00    +0.000 A 
ATOM     22  C   UNL     1      11.188  12.095  19.770  0.00  0.00    +0.000 A 
ATOM     23  C   UNL     1      11.139  11.907  18.391  0.00  0.00    +0.000 A 
ATOM     24  C   UNL     1      10.147  11.100  17.831  0.00  0.00    +0.000 A 
ENDBRANCH  18  19
ENDBRANCH  17  18
ENDBRANCH  15  17
ENDBRANCH   1  14
BRANCH   5  25
ATOM     25  C   UNL     1       6.075   3.793  15.444  0.00  0.00    +0.000 C 
BRANCH  25  26
ATOM     26  O   UNL     1       5.757   4.648  14.343  0.00  0.00    +0.000 OA
ATOM     27  H   UNL     1       6.601   5.071  14.098  0.00  0.00    +0.000 HD
ENDBRANCH  25  26
ENDBRANCH   5  25
TORSDOF 7
ENDMDL
MODEL 6
REMARK VINA RESULT:      -8.4      0.999      1.402
REMARK  Name = 
REMARK  7 active torsions:
REMARK  status: ('A' for Active; 'I' for Inactive)
REMARK    1  A    between atoms: C_2  and  C_12
REMARK    2  A    between atoms: N_3  and  C_4
REMARK    3  A    between atoms: C_4  and  C_5
REMARK    4  A    between atoms: C_5  and  C_6
REMARK    5  A    between atoms: N_14  and  C_15
REMARK    6  A    between atoms: C_23  and  C_24
REMARK    7  A    between atoms: C_24  and  O_25
REMARK                            x       y       z     vdW  Elec       q    Type
REMARK                         _______ _______ _______ _____ _____    ______ ____
ROOT
ATOM      1  C   UNL     1       6.072   5.587  18.186  0.00  0.00    +0.000 A 
ATOM      2  N   UNL     1       5.226   5.215  19.161  0.00  0.00    +0.000 NA
ATOM      3  N   UNL     1       4.225   4.581  18.491  0.00  0.00    +0.000 N 
ATOM      4  N   UNL     1       4.396   4.500  17.135  0.00  0.00    +0.000 NA
ATOM      5  C   UNL     1       5.550   5.153  16.945  0.00  0.00    +0.000 A 
ENDROOT
BRANCH   3   6
ATOM      6  C   UNL     1       3.082   3.982  19.108  0.00  0.00    +0.000 A 
ATOM      7  C   UNL     1       2.212   4.822  19.849  0.00  0.00    +0.000 A 
ATOM      8  C   UNL     1       1.055   4.321  20.449  0.00  0.00    +0.000 A 
ATOM      9  C   UNL     1       0.741   2.976  20.331  0.00  0.00    +0.000 A 
ATOM     10  C   UNL     1       1.596   2.130  19.622  0.00  0.00    +0.000 A 
ATOM     11  C   UNL     1       2.767   2.616  19.013  0.00  0.00    +0.000 A 
ATOM     12 CL   UNL     1       3.712   1.418  18.199  0.00  0.00    +0.000 Cl
ENDBRANCH   3   6
BRANCH   1  14
ATOM     13  O   UNL     1       8.266   5.802  19.016  0.00  0.00    +0.000 OA
ATOM     14  C   UNL     1       7.331   6.313  18.402  0.00  0.00    +0.000 C 
ATOM     15  N   UNL     1       7.406   7.602  17.902  0.00  0.00    +0.000 N 
ATOM     16  H   UNL     1       6.543   8.027  17.573  0.00  0.00    +0.000 HD
BRANCH  15  17
ATOM     17  C   UNL     1       8.584   8.403  18.198  0.00  0.00    +0.000 C 
BRANCH  17  18
ATOM     18  C   UNL     1       8.467   9.901  17.912  0.00  0.00    +0.000 C 
BRANCH  18  19
ATOM     19  C   UNL     1       9.479  10.758  18.630  0.00  0.00    +0.000 A 
ATOM     20  C   UNL     1      10.469  11.462  17.928  0.00  0.00    +0.000 A 
ATOM     21  C   UNL     1      11.408  12.236  18.615  0.00  0.00    +0.000 A 
ATOM     22  C   UNL     1      11.359  12.322  20.005  0.00  0.00    +0.000 A 
ATOM     23  C   UNL     1      10.364  11.648  20.709  0.00  0.00    +0.000 A 
ATOM     24  C   UNL     1       9.426  10.874  20.025  0.00  0.00    +0.000 A 
ENDBRANCH  18  19
ENDBRANCH  17  18
ENDBRANCH  15  17
ENDBRANCH   1  14
BRANCH   5  25
ATOM     25  C   UNL     1       6.143   5.301  15.579  0.00  0.00    +0.000 C 
BRANCH  25  26
ATOM     26  O   UNL     1       7.458   4.747  15.484  0.00  0.00    +0.000 OA
ATOM     27  H   UNL     1       7.813   4.780  16.392  0.00  0.00    +0.000 HD
ENDBRANCH  25  26
ENDBRANCH   5  25
TORSDOF 7
ENDMDL
MODEL 7
REMARK VINA RESULT:      -8.3      1.246      1.666
REMARK  Name = 
REMARK  7 active torsions:
REMARK  status: ('A' for Active; 'I' for Inactive)
REMARK    1  A    between atoms: C_2  and  C_12
REMARK    2  A    between atoms: N_3  and  C_4
REMARK    3  A    between atoms: C_4  and  C_5
REMARK    4  A    between atoms: C_5  and  C_6
REMARK    5  A    between atoms: N_14  and  C_15
REMARK    6  A    between atoms: C_23  and  C_24
REMARK    7  A    between atoms: C_24  and  O_25
REMARK                            x       y       z     vdW  Elec       q    Type
REMARK                         _______ _______ _______ _____ _____    ______ ____
ROOT
ATOM      1  C   UNL     1       6.092   5.520  18.041  0.00  0.00    +0.000 A 
ATOM      2  N   UNL     1       5.119   5.232  18.922  0.00  0.00    +0.000 NA
ATOM      3  N   UNL     1       4.220   4.524  18.185  0.00  0.00    +0.000 N 
ATOM      4  N   UNL     1       4.577   4.315  16.880  0.00  0.00    +0.000 NA
ATOM      5  C   UNL     1       5.747   4.962  16.789  0.00  0.00    +0.000 A 
ENDROOT
BRANCH   3   6
ATOM      6  C   UNL     1       3.002   3.973  18.694  0.00  0.00    +0.000 A 
ATOM      7  C   UNL     1       2.687   2.633  18.350  0.00  0.00    +0.000 A 
ATOM      8  C   UNL     1       1.536   2.010  18.837  0.00  0.00    +0.000 A 
ATOM      9  C   UNL     1       0.672   2.706  19.669  0.00  0.00    +0.000 A 
ATOM     10  C   UNL     1       0.955   4.031  20.001  0.00  0.00    +0.000 A 
ATOM     11  C   UNL     1       2.109   4.676  19.518  0.00  0.00    +0.000 A 
ATOM     12 CL   UNL     1       2.280   6.323  20.016  0.00  0.00    +0.000 Cl
ENDBRANCH   3   6
BRANCH   1  14
ATOM     13  O   UNL     1       8.199   5.798  19.056  0.00  0.00    +0.000 OA
ATOM     14  C   UNL     1       7.310   6.279  18.357  0.00  0.00    +0.000 C 
ATOM     15  N   UNL     1       7.398   7.564  17.849  0.00  0.00    +0.000 N 
ATOM     16  H   UNL     1       6.557   7.964  17.441  0.00  0.00    +0.000 HD
BRANCH  15  17
ATOM     17  C   UNL     1       8.526   8.397  18.237  0.00  0.00    +0.000 C 
BRANCH  17  18
ATOM     18  C   UNL     1       8.327   9.907  18.093  0.00  0.00    +0.000 C 
BRANCH  18  19
ATOM     19  C   UNL     1       9.438  10.744  18.675  0.00  0.00    +0.000 A 
ATOM     20  C   UNL     1      10.418  11.328  17.858  0.00  0.00    +0.000 A 
ATOM     21  C   UNL     1      11.448  12.085  18.420  0.00  0.00    +0.000 A 
ATOM     22  C   UNL     1      11.503  12.275  19.800  0.00  0.00    +0.000 A 
ATOM     23  C   UNL     1      10.521  11.721  20.617  0.00  0.00    +0.000 A 
ATOM     24  C   UNL     1       9.491  10.964  20.057  0.00  0.00    +0.000 A 
ENDBRANCH  18  19
ENDBRANCH  17  18
ENDBRANCH  15  17
ENDBRANCH   1  14
BRANCH   5  25
ATOM     25  C   UNL     1       6.522   4.985  15.509  0.00  0.00    +0.000 C 
BRANCH  25  26
ATOM     26  O   UNL     1       6.354   3.792  14.739  0.00  0.00    +0.000 OA
ATOM     27  H   UNL     1       6.387   3.064  15.388  0.00  0.00    +0.000 HD
ENDBRANCH  25  26
ENDBRANCH   5  25
TORSDOF 7
ENDMDL
MODEL 8
REMARK VINA RESULT:      -8.3      1.372      1.740
REMARK  Name = 
REMARK  7 active torsions:
REMARK  status: ('A' for Active; 'I' for Inactive)
REMARK    1  A    between atoms: C_2  and  C_12
REMARK    2  A    between atoms: N_3  and  C_4
REMARK    3  A    between atoms: C_4  and  C_5
REMARK    4  A    between atoms: C_5  and  C_6
REMARK    5  A    between atoms: N_14  and  C_15
REMARK    6  A    between atoms: C_23  and  C_24
REMARK    7  A    between atoms: C_24  and  O_25
REMARK                            x       y       z     vdW  Elec       q    Type
REMARK                         _______ _______ _______ _____ _____    ______ ____
ROOT
ATOM      1  C   UNL     1       5.650   5.726  17.172  0.00  0.00    +0.000 A 
ATOM      2  N   UNL     1       4.981   5.559  18.326  0.00  0.00    +0.000 NA
ATOM      3  N   UNL     1       4.018   4.651  18.009  0.00  0.00    +0.000 N 
ATOM      4  N   UNL     1       4.050   4.201  16.716  0.00  0.00    +0.000 NA
ATOM      5  C   UNL     1       5.066   4.896  16.188  0.00  0.00    +0.000 A 
ENDROOT
BRANCH   3   6
ATOM      6  C   UNL     1       3.052   4.133  18.927  0.00  0.00    +0.000 A 
ATOM      7  C   UNL     1       2.304   5.061  19.696  0.00  0.00    +0.000 A 
ATOM      8  C   UNL     1       1.316   4.636  20.587  0.00  0.00    +0.000 A 
ATOM      9  C   UNL     1       1.054   3.282  20.735  0.00  0.00    +0.000 A 
ATOM     10  C   UNL     1       1.793   2.354  20.001  0.00  0.00    +0.000 A 
ATOM     11  C   UNL     1       2.794   2.763  19.101  0.00  0.00    +0.000 A 
ATOM     12 CL   UNL     1       3.619   1.472  18.299  0.00  0.00    +0.000 Cl
ENDBRANCH   3   6
BRANCH   1  14
ATOM     13  O   UNL     1       7.808   6.251  16.387  0.00  0.00    +0.000 OA
ATOM     14  C   UNL     1       6.804   6.618  16.994  0.00  0.00    +0.000 C 
ATOM     15  N   UNL     1       6.715   7.879  17.559  0.00  0.00    +0.000 N 
ATOM     16  H   UNL     1       5.944   8.051  18.201  0.00  0.00    +0.000 HD
BRANCH  15  17
ATOM     17  C   UNL     1       7.878   8.752  17.516  0.00  0.00    +0.000 C 
BRANCH  17  18
ATOM     18  C   UNL     1       8.643   8.919  18.831  0.00  0.00    +0.000 C 
BRANCH  18  19
ATOM     19  C   UNL     1       9.316  10.257  19.000  0.00  0.00    +0.000 A 
ATOM     20  C   UNL     1       9.646  11.053  17.893  0.00  0.00    +0.000 A 
ATOM     21  C   UNL     1      10.287  12.282  18.072  0.00  0.00    +0.000 A 
ATOM     22  C   UNL     1      10.593  12.731  19.355  0.00  0.00    +0.000 A 
ATOM     23  C   UNL     1      10.245  11.960  20.462  0.00  0.00    +0.000 A 
ATOM     24  C   UNL     1       9.607  10.732  20.285  0.00  0.00    +0.000 A 
ENDBRANCH  18  19
ENDBRANCH  17  18
ENDBRANCH  15  17
ENDBRANCH   1  14
BRANCH   5  25
ATOM     25  C   UNL     1       5.476   4.707  14.761  0.00  0.00    +0.000 C 
BRANCH  25  26
ATOM     26  O   UNL     1       6.732   4.036  14.631  0.00  0.00    +0.000 OA
ATOM     27  H   UNL     1       6.505   3.105  14.453  0.00  0.00    +0.000 HD
ENDBRANCH  25  26
ENDBRANCH   5  25
TORSDOF 7
ENDMDL
MODEL 9
REMARK VINA RESULT:      -8.2      3.761      7.001
REMARK  Name = 
REMARK  7 active torsions:
REMARK  status: ('A' for Active; 'I' for Inactive)
REMARK    1  A    between atoms: C_2  and  C_12
REMARK    2  A    between atoms: N_3  and  C_4
REMARK    3  A    between atoms: C_4  and  C_5
REMARK    4  A    between atoms: C_5  and  C_6
REMARK    5  A    between atoms: N_14  and  C_15
REMARK    6  A    between atoms: C_23  and  C_24
REMARK    7  A    between atoms: C_24  and  O_25
REMARK                            x       y       z     vdW  Elec       q    Type
REMARK                         _______ _______ _______ _____ _____    ______ ____
ROOT
ATOM      1  C   UNL     1       6.200   5.143  17.508  0.00  0.00    +0.000 A 
ATOM      2  N   UNL     1       4.924   4.722  17.476  0.00  0.00    +0.000 NA
ATOM      3  N   UNL     1       4.620   4.522  18.788  0.00  0.00    +0.000 N 
ATOM      4  N   UNL     1       5.626   4.819  19.667  0.00  0.00    +0.000 NA
ATOM      5  C   UNL     1       6.626   5.190  18.856  0.00  0.00    +0.000 A 
ENDROOT
BRANCH   3   6
ATOM      6  C   UNL     1       3.348   4.083  19.273  0.00  0.00    +0.000 A 
ATOM      7  C   UNL     1       3.071   2.692  19.240  0.00  0.00    +0.000 A 
ATOM      8  C   UNL     1       1.868   2.179  19.730  0.00  0.00    +0.000 A 
ATOM      9  C   UNL     1       0.914   3.038  20.257  0.00  0.00    +0.000 A 
ATOM     10  C   UNL     1       1.161   4.411  20.279  0.00  0.00    +0.000 A 
ATOM     11  C   UNL     1       2.367   4.945  19.788  0.00  0.00    +0.000 A 
ATOM     12 CL   UNL     1       2.485   6.668  19.877  0.00  0.00    +0.000 Cl
ENDBRANCH   3   6
BRANCH   1  14
ATOM     13  O   UNL     1       7.525   6.605  16.223  0.00  0.00    +0.000 OA
ATOM     14  C   UNL     1       6.994   5.501  16.325  0.00  0.00    +0.000 C 
ATOM     15  N   UNL     1       7.096   4.549  15.325  0.00  0.00    +0.000 N 
ATOM     16  H   UNL     1       6.485   3.737  15.388  0.00  0.00    +0.000 HD
BRANCH  15  17
ATOM     17  C   UNL     1       7.766   4.902  14.084  0.00  0.00    +0.000 C 
BRANCH  17  18
ATOM     18  C   UNL     1       6.871   5.028  12.849  0.00  0.00    +0.000 C 
BRANCH  18  19
ATOM     19  C   UNL     1       6.528   3.719  12.186  0.00  0.00    +0.000 A 
ATOM     20  C   UNL     1       5.195   3.325  11.992  0.00  0.00    +0.000 A 
ATOM     21  C   UNL     1       4.901   2.098  11.392  0.00  0.00    +0.000 A 
ATOM     22  C   UNL     1       5.932   1.261  10.970  0.00  0.00    +0.000 A 
ATOM     23  C   UNL     1       7.257   1.654  11.135  0.00  0.00    +0.000 A 
ATOM     24  C   UNL     1       7.554   2.878  11.735  0.00  0.00    +0.000 A 
ENDBRANCH  18  19
ENDBRANCH  17  18
ENDBRANCH  15  17
ENDBRANCH   1  14
BRANCH   5  25
ATOM     25  C   UNL     1       7.949   5.624  19.403  0.00  0.00    +0.000 C 
BRANCH  25  26
ATOM     26  O   UNL     1       8.062   5.408  20.812  0.00  0.00    +0.000 OA
ATOM     27  H   UNL     1       8.450   6.231  21.165  0.00  0.00    +0.000 HD
ENDBRANCH  25  26
ENDBRANCH   5  25
TORSDOF 7
ENDMDL
