MODEL 1
REMARK VINA RESULT:      -6.8      0.000      0.000
REMARK  Name = 
REMARK  3 active torsions:
REMARK  status: ('A' for Active; 'I' for Inactive)
REMARK    1  A    between atoms: C_1  and  C_2
REMARK    2  A    between atoms: C_9  and  O_10
REMARK    3  A    between atoms: N_13  and  O_14
REMARK                            x       y       z     vdW  Elec       q    Type
REMARK                         _______ _______ _______ _____ _____    ______ ____
ROOT
ATOM      1  C   UNL     1       1.972   4.961  20.831  0.00  0.00    +0.000 C 
ATOM      2  C   UNL     1       2.873   5.222  19.661  0.00  0.00    +0.000 A 
ATOM      3  C   UNL     1       2.439   5.974  18.564  0.00  0.00    +0.000 A 
ATOM      4  C   UNL     1       3.295   6.232  17.489  0.00  0.00    +0.000 A 
ATOM      5  C   UNL     1       4.592   5.720  17.495  0.00  0.00    +0.000 A 
ATOM      6  C   UNL     1       5.030   4.956  18.583  0.00  0.00    +0.000 A 
ATOM      7  C   UNL     1       4.180   4.711  19.660  0.00  0.00    +0.000 A 
ATOM      8  O   UNL     1       6.309   4.465  18.697  0.00  0.00    +0.000 OA
ATOM      9  C   UNL     1       6.981   4.345  17.453  0.00  0.00    +0.000 C 
ATOM     10  C   UNL     1       6.790   5.521  16.459  0.00  0.00    +0.000 C 
ATOM     11  O   UNL     1       7.667   5.951  15.708  0.00  0.00    +0.000 OA
ATOM     12  N   UNL     1       5.502   6.001  16.464  0.00  0.00    +0.000 N 
ENDROOT
BRANCH   9  13
ATOM     13  O   UNL     1       8.349   4.042  17.695  0.00  0.00    +0.000 OA
ATOM     14  H   UNL     1       8.861   4.744  17.258  0.00  0.00    +0.000 HD
ENDBRANCH   9  13
BRANCH  12  15
ATOM     15  O   UNL     1       5.149   6.982  15.519  0.00  0.00    +0.000 OA
ATOM     16  H   UNL     1       5.794   6.812  14.800  0.00  0.00    +0.000 HD
ENDBRANCH  12  15
TORSDOF 2
ENDMDL
MODEL 2
REMARK VINA RESULT:      -6.7      2.549      4.232
REMARK  Name = 
REMARK  3 active torsions:
REMARK  status: ('A' for Active; 'I' for Inactive)
REMARK    1  A    between atoms: C_1  and  C_2
REMARK    2  A    between atoms: C_9  and  O_10
REMARK    3  A    between atoms: N_13  and  O_14
REMARK                            x       y       z     vdW  Elec       q    Type
REMARK                         _______ _______ _______ _____ _____    ______ ____
ROOT
ATOM      1  C   UNL     1       1.904   8.755  18.364  0.00  0.00    +0.000 C 
ATOM      2  C   UNL     1       2.615   7.444  18.518  0.00  0.00    +0.000 A 
ATOM      3  C   UNL     1       3.639   7.067  17.641  0.00  0.00    +0.000 A 
ATOM      4  C   UNL     1       4.312   5.853  17.807  0.00  0.00    +0.000 A 
ATOM      5  C   UNL     1       3.952   4.994  18.844  0.00  0.00    +0.000 A 
ATOM      6  C   UNL     1       2.920   5.358  19.718  0.00  0.00    +0.000 A 
ATOM      7  C   UNL     1       2.258   6.575  19.560  0.00  0.00    +0.000 A 
ATOM      8  O   UNL     1       2.542   4.600  20.800  0.00  0.00    +0.000 OA
ATOM      9  C   UNL     1       2.898   3.231  20.683  0.00  0.00    +0.000 C 
ATOM     10  C   UNL     1       4.310   2.941  20.109  0.00  0.00    +0.000 C 
ATOM     11  O   UNL     1       5.042   2.023  20.484  0.00  0.00    +0.000 OA
ATOM     12  N   UNL     1       4.638   3.793  19.082  0.00  0.00    +0.000 N 
ENDROOT
BRANCH   9  13
ATOM     13  O   UNL     1       2.664   2.585  21.928  0.00  0.00    +0.000 OA
ATOM     14  H   UNL     1       3.342   1.892  22.003  0.00  0.00    +0.000 HD
ENDBRANCH   9  13
BRANCH  12  15
ATOM     15  O   UNL     1       5.836   3.565  18.378  0.00  0.00    +0.000 OA
ATOM     16  H   UNL     1       5.788   2.601  18.205  0.00  0.00    +0.000 HD
ENDBRANCH  12  15
TORSDOF 2
ENDMDL
MODEL 3
REMARK VINA RESULT:      -6.6      1.918      1.935
REMARK  Name = 
REMARK  3 active torsions:
REMARK  status: ('A' for Active; 'I' for Inactive)
REMARK    1  A    between atoms: C_1  and  C_2
REMARK    2  A    between atoms: C_9  and  O_10
REMARK    3  A    between atoms: N_13  and  O_14
REMARK                            x       y       z     vdW  Elec       q    Type
REMARK                         _______ _______ _______ _____ _____    ______ ____
ROOT
ATOM      1  C   UNL     1       2.433   2.142  19.323  0.00  0.00    +0.000 C 
ATOM      2  C   UNL     1       3.400   3.031  18.600  0.00  0.00    +0.000 A 
ATOM      3  C   UNL     1       3.239   3.326  17.242  0.00  0.00    +0.000 A 
ATOM      4  C   UNL     1       4.133   4.174  16.582  0.00  0.00    +0.000 A 
ATOM      5  C   UNL     1       5.211   4.723  17.275  0.00  0.00    +0.000 A 
ATOM      6  C   UNL     1       5.387   4.422  18.631  0.00  0.00    +0.000 A 
ATOM      7  C   UNL     1       4.487   3.587  19.291  0.00  0.00    +0.000 A 
ATOM      8  O   UNL     1       6.386   4.965  19.404  0.00  0.00    +0.000 OA
ATOM      9  C   UNL     1       7.495   5.428  18.648  0.00  0.00    +0.000 C 
ATOM     10  C   UNL     1       7.159   6.187  17.338  0.00  0.00    +0.000 C 
ATOM     11  O   UNL     1       7.791   7.154  16.908  0.00  0.00    +0.000 OA
ATOM     12  N   UNL     1       6.100   5.623  16.668  0.00  0.00    +0.000 N 
ENDROOT
BRANCH   9  13
ATOM     13  O   UNL     1       8.363   6.159  19.504  0.00  0.00    +0.000 OA
ATOM     14  H   UNL     1       8.597   6.970  19.021  0.00  0.00    +0.000 HD
ENDBRANCH   9  13
BRANCH  12  15
ATOM     15  O   UNL     1       5.765   6.128  15.398  0.00  0.00    +0.000 OA
ATOM     16  H   UNL     1       6.128   5.438  14.803  0.00  0.00    +0.000 HD
ENDBRANCH  12  15
TORSDOF 2
ENDMDL
MODEL 4
REMARK VINA RESULT:      -6.4      2.109      2.350
REMARK  Name = 
REMARK  3 active torsions:
REMARK  status: ('A' for Active; 'I' for Inactive)
REMARK    1  A    between atoms: C_1  and  C_2
REMARK    2  A    between atoms: C_9  and  O_10
REMARK    3  A    between atoms: N_13  and  O_14
REMARK                            x       y       z     vdW  Elec       q    Type
REMARK                         _______ _______ _______ _____ _____    ______ ____
ROOT
ATOM      1  C   UNL     1       2.355   2.306  18.065  0.00  0.00    +0.000 C 
ATOM      2  C   UNL     1       3.476   3.283  17.873  0.00  0.00    +0.000 A 
ATOM      3  C   UNL     1       3.625   3.990  16.675  0.00  0.00    +0.000 A 
ATOM      4  C   UNL     1       4.660   4.916  16.514  0.00  0.00    +0.000 A 
ATOM      5  C   UNL     1       5.570   5.129  17.548  0.00  0.00    +0.000 A 
ATOM      6  C   UNL     1       5.436   4.415  18.746  0.00  0.00    +0.000 A 
ATOM      7  C   UNL     1       4.395   3.502  18.910  0.00  0.00    +0.000 A 
ATOM      8  O   UNL     1       6.251   4.606  19.836  0.00  0.00    +0.000 OA
ATOM      9  C   UNL     1       7.509   5.176  19.507  0.00  0.00    +0.000 C 
ATOM     10  C   UNL     1       7.486   6.325  18.465  0.00  0.00    +0.000 C 
ATOM     11  O   UNL     1       8.217   7.316  18.502  0.00  0.00    +0.000 OA
ATOM     12  N   UNL     1       6.589   6.089  17.451  0.00  0.00    +0.000 N 
ENDROOT
BRANCH   9  13
ATOM     13  O   UNL     1       8.182   5.531  20.708  0.00  0.00    +0.000 OA
ATOM     14  H   UNL     1       8.644   6.366  20.520  0.00  0.00    +0.000 HD
ENDBRANCH   9  13
BRANCH  12  15
ATOM     15  O   UNL     1       6.554   6.984  16.366  0.00  0.00    +0.000 OA
ATOM     16  H   UNL     1       6.123   7.769  16.766  0.00  0.00    +0.000 HD
ENDBRANCH  12  15
TORSDOF 2
ENDMDL
MODEL 5
REMARK VINA RESULT:      -6.4      1.745      2.236
REMARK  Name = 
REMARK  3 active torsions:
REMARK  status: ('A' for Active; 'I' for Inactive)
REMARK    1  A    between atoms: C_1  and  C_2
REMARK    2  A    between atoms: C_9  and  O_10
REMARK    3  A    between atoms: N_13  and  O_14
REMARK                            x       y       z     vdW  Elec       q    Type
REMARK                         _______ _______ _______ _____ _____    ______ ____
ROOT
ATOM      1  C   UNL     1       1.582   4.570  19.830  0.00  0.00    +0.000 C 
ATOM      2  C   UNL     1       2.766   4.454  18.917  0.00  0.00    +0.000 A 
ATOM      3  C   UNL     1       3.037   3.266  18.229  0.00  0.00    +0.000 A 
ATOM      4  C   UNL     1       4.129   3.175  17.361  0.00  0.00    +0.000 A 
ATOM      5  C   UNL     1       4.974   4.271  17.188  0.00  0.00    +0.000 A 
ATOM      6  C   UNL     1       4.716   5.459  17.883  0.00  0.00    +0.000 A 
ATOM      7  C   UNL     1       3.619   5.553  18.737  0.00  0.00    +0.000 A 
ATOM      8  O   UNL     1       5.460   6.604  17.726  0.00  0.00    +0.000 OA
ATOM      9  C   UNL     1       6.768   6.363  17.227  0.00  0.00    +0.000 C 
ATOM     10  C   UNL     1       6.881   5.317  16.087  0.00  0.00    +0.000 C 
ATOM     11  O   UNL     1       7.660   5.400  15.136  0.00  0.00    +0.000 OA
ATOM     12  N   UNL     1       6.047   4.242  16.285  0.00  0.00    +0.000 N 
ENDROOT
BRANCH   9  13
ATOM     13  O   UNL     1       7.371   7.608  16.897  0.00  0.00    +0.000 OA
ATOM     14  H   UNL     1       6.646   8.255  16.853  0.00  0.00    +0.000 HD
ENDBRANCH   9  13
BRANCH  12  15
ATOM     15  O   UNL     1       6.138   3.153  15.399  0.00  0.00    +0.000 OA
ATOM     16  H   UNL     1       7.108   3.048  15.305  0.00  0.00    +0.000 HD
ENDBRANCH  12  15
TORSDOF 2
ENDMDL
MODEL 6
REMARK VINA RESULT:      -6.4      2.927      4.738
REMARK  Name = 
REMARK  3 active torsions:
REMARK  status: ('A' for Active; 'I' for Inactive)
REMARK    1  A    between atoms: C_1  and  C_2
REMARK    2  A    between atoms: C_9  and  O_10
REMARK    3  A    between atoms: N_13  and  O_14
REMARK                            x       y       z     vdW  Elec       q    Type
REMARK                         _______ _______ _______ _____ _____    ______ ____
ROOT
ATOM      1  C   UNL     1       6.457   4.016  12.501  0.00  0.00    +0.000 C 
ATOM      2  C   UNL     1       6.358   4.165  13.989  0.00  0.00    +0.000 A 
ATOM      3  C   UNL     1       5.577   3.293  14.756  0.00  0.00    +0.000 A 
ATOM      4  C   UNL     1       5.511   3.426  16.146  0.00  0.00    +0.000 A 
ATOM      5  C   UNL     1       6.213   4.449  16.781  0.00  0.00    +0.000 A 
ATOM      6  C   UNL     1       6.987   5.334  16.020  0.00  0.00    +0.000 A 
ATOM      7  C   UNL     1       7.064   5.192  14.635  0.00  0.00    +0.000 A 
ATOM      8  O   UNL     1       7.758   6.330  16.569  0.00  0.00    +0.000 OA
ATOM      9  C   UNL     1       7.332   6.723  17.866  0.00  0.00    +0.000 C 
ATOM     10  C   UNL     1       6.920   5.575  18.825  0.00  0.00    +0.000 C 
ATOM     11  O   UNL     1       7.141   5.563  20.037  0.00  0.00    +0.000 OA
ATOM     12  N   UNL     1       6.220   4.585  18.178  0.00  0.00    +0.000 N 
ENDROOT
BRANCH   9  13
ATOM     13  O   UNL     1       8.309   7.590  18.428  0.00  0.00    +0.000 OA
ATOM     14  H   UNL     1       8.743   7.082  19.135  0.00  0.00    +0.000 HD
ENDBRANCH   9  13
BRANCH  12  15
ATOM     15  O   UNL     1       5.669   3.543  18.947  0.00  0.00    +0.000 OA
ATOM     16  H   UNL     1       5.242   2.988  18.260  0.00  0.00    +0.000 HD
ENDBRANCH  12  15
TORSDOF 2
ENDMDL
MODEL 7
REMARK VINA RESULT:      -6.3      2.014      2.731
REMARK  Name = 
REMARK  3 active torsions:
REMARK  status: ('A' for Active; 'I' for Inactive)
REMARK    1  A    between atoms: C_1  and  C_2
REMARK    2  A    between atoms: C_9  and  O_10
REMARK    3  A    between atoms: N_13  and  O_14
REMARK                            x       y       z     vdW  Elec       q    Type
REMARK                         _______ _______ _______ _____ _____    ______ ____
ROOT
ATOM      1  C   UNL     1       0.634   2.717  18.818  0.00  0.00    +0.000 C 
ATOM      2  C   UNL     1       2.021   3.282  18.760  0.00  0.00    +0.000 A 
ATOM      3  C   UNL     1       2.590   3.924  19.866  0.00  0.00    +0.000 A 
ATOM      4  C   UNL     1       3.893   4.427  19.810  0.00  0.00    +0.000 A 
ATOM      5  C   UNL     1       4.634   4.309  18.635  0.00  0.00    +0.000 A 
ATOM      6  C   UNL     1       4.068   3.681  17.519  0.00  0.00    +0.000 A 
ATOM      7  C   UNL     1       2.773   3.167  17.581  0.00  0.00    +0.000 A 
ATOM      8  O   UNL     1       4.747   3.469  16.343  0.00  0.00    +0.000 OA
ATOM      9  C   UNL     1       5.842   4.352  16.157  0.00  0.00    +0.000 C 
ATOM     10  C   UNL     1       6.717   4.627  17.409  0.00  0.00    +0.000 C 
ATOM     11  O   UNL     1       7.941   4.773  17.388  0.00  0.00    +0.000 OA
ATOM     12  N   UNL     1       5.964   4.749  18.552  0.00  0.00    +0.000 N 
ENDROOT
BRANCH   9  13
ATOM     13  O   UNL     1       6.601   3.916  15.037  0.00  0.00    +0.000 OA
ATOM     14  H   UNL     1       6.035   4.055  14.258  0.00  0.00    +0.000 HD
ENDBRANCH   9  13
BRANCH  12  15
ATOM     15  O   UNL     1       6.611   5.128  19.743  0.00  0.00    +0.000 OA
ATOM     16  H   UNL     1       7.552   5.149  19.465  0.00  0.00    +0.000 HD
ENDBRANCH  12  15
TORSDOF 2
ENDMDL
MODEL 8
REMARK VINA RESULT:      -6.3      1.367      1.555
REMARK  Name = 
REMARK  3 active torsions:
REMARK  status: ('A' for Active; 'I' for Inactive)
REMARK    1  A    between atoms: C_1  and  C_2
REMARK    2  A    between atoms: C_9  and  O_10
REMARK    3  A    between atoms: N_13  and  O_14
REMARK                            x       y       z     vdW  Elec       q    Type
REMARK                         _______ _______ _______ _____ _____    ______ ____
ROOT
ATOM      1  C   UNL     1       1.693   2.830  21.446  0.00  0.00    +0.000 C 
ATOM      2  C   UNL     1       2.405   3.672  20.430  0.00  0.00    +0.000 A 
ATOM      3  C   UNL     1       1.746   4.704  19.754  0.00  0.00    +0.000 A 
ATOM      4  C   UNL     1       2.426   5.499  18.825  0.00  0.00    +0.000 A 
ATOM      5  C   UNL     1       3.770   5.254  18.551  0.00  0.00    +0.000 A 
ATOM      6  C   UNL     1       4.433   4.214  19.215  0.00  0.00    +0.000 A 
ATOM      7  C   UNL     1       3.759   3.431  20.150  0.00  0.00    +0.000 A 
ATOM      8  O   UNL     1       5.770   3.942  19.050  0.00  0.00    +0.000 OA
ATOM      9  C   UNL     1       6.299   4.429  17.826  0.00  0.00    +0.000 C 
ATOM     10  C   UNL     1       5.835   5.847  17.399  0.00  0.00    +0.000 C 
ATOM     11  O   UNL     1       6.551   6.677  16.835  0.00  0.00    +0.000 OA
ATOM     12  N   UNL     1       4.505   6.062  17.670  0.00  0.00    +0.000 N 
ENDROOT
BRANCH   9  13
ATOM     13  O   UNL     1       7.714   4.294  17.848  0.00  0.00    +0.000 OA
ATOM     14  H   UNL     1       8.045   4.806  17.090  0.00  0.00    +0.000 HD
ENDBRANCH   9  13
BRANCH  12  15
ATOM     15  O   UNL     1       3.914   7.257  17.219  0.00  0.00    +0.000 OA
ATOM     16  H   UNL     1       3.965   7.822  18.018  0.00  0.00    +0.000 HD
ENDBRANCH  12  15
TORSDOF 2
ENDMDL
MODEL 9
REMARK VINA RESULT:      -6.2      2.692      4.874
REMARK  Name = 
REMARK  3 active torsions:
REMARK  status: ('A' for Active; 'I' for Inactive)
REMARK    1  A    between atoms: C_1  and  C_2
REMARK    2  A    between atoms: C_9  and  O_10
REMARK    3  A    between atoms: N_13  and  O_14
REMARK                            x       y       z     vdW  Elec       q    Type
REMARK                         _______ _______ _______ _____ _____    ______ ____
ROOT
ATOM      1  C   UNL     1       7.500   7.960  17.358  0.00  0.00    +0.000 C 
ATOM      2  C   UNL     1       6.766   6.714  17.755  0.00  0.00    +0.000 A 
ATOM      3  C   UNL     1       7.407   5.687  18.457  0.00  0.00    +0.000 A 
ATOM      4  C   UNL     1       6.707   4.540  18.844  0.00  0.00    +0.000 A 
ATOM      5  C   UNL     1       5.360   4.402  18.513  0.00  0.00    +0.000 A 
ATOM      6  C   UNL     1       4.715   5.419  17.799  0.00  0.00    +0.000 A 
ATOM      7  C   UNL     1       5.410   6.569  17.426  0.00  0.00    +0.000 A 
ATOM      8  O   UNL     1       3.378   5.392  17.484  0.00  0.00    +0.000 OA
ATOM      9  C   UNL     1       2.827   4.083  17.474  0.00  0.00    +0.000 C 
ATOM     10  C   UNL     1       3.274   3.147  18.627  0.00  0.00    +0.000 C 
ATOM     11  O   UNL     1       2.543   2.325  19.183  0.00  0.00    +0.000 OA
ATOM     12  N   UNL     1       4.606   3.294  18.929  0.00  0.00    +0.000 N 
ENDROOT
BRANCH   9  13
ATOM     13  O   UNL     1       1.413   4.180  17.356  0.00  0.00    +0.000 OA
ATOM     14  H   UNL     1       1.209   5.130  17.340  0.00  0.00    +0.000 HD
ENDBRANCH   9  13
BRANCH  12  15
ATOM     15  O   UNL     1       5.182   2.416  19.867  0.00  0.00    +0.000 OA
ATOM     16  H   UNL     1       4.461   1.765  20.004  0.00  0.00    +0.000 HD
ENDBRANCH  12  15
TORSDOF 2
ENDMDL
