MODEL 1
REMARK VINA RESULT:     -10.2      0.000      0.000
REMARK  Name = 
REMARK  5 active torsions:
REMARK  status: ('A' for Active; 'I' for Inactive)
REMARK    1  A    between atoms: C_5  and  C_6
REMARK    2  A    between atoms: C_9  and  C_10
REMARK    3  A    between atoms: C_13  and  C_14
REMARK    4  A    between atoms: C_19  and  O_20
REMARK    5  A    between atoms: O_20  and  C_21
REMARK                            x       y       z     vdW  Elec       q    Type
REMARK                         _______ _______ _______ _____ _____    ______ ____
ROOT
ATOM      1  C   UNL     1       3.491   6.646  17.863  0.00  0.00    +0.000 A 
ATOM      2  C   UNL     1       4.687   7.260  17.417  0.00  0.00    +0.000 A 
ATOM      3  C   UNL     1       5.683   6.566  16.723  0.00  0.00    +0.000 A 
ATOM      4  C   UNL     1       5.530   5.210  16.452  0.00  0.00    +0.000 A 
ATOM      5  C   UNL     1       4.359   4.576  16.881  0.00  0.00    +0.000 A 
ATOM      6  C   UNL     1       3.320   5.282  17.523  0.00  0.00    +0.000 A 
ENDROOT
BRANCH   1  10
ATOM      7  C   UNL     1       0.805   9.144  20.265  0.00  0.00    +0.000 A 
ATOM      8  C   UNL     1       1.389   7.980  20.797  0.00  0.00    +0.000 A 
ATOM      9  C   UNL     1       2.231   7.150  20.029  0.00  0.00    +0.000 A 
ATOM     10  C   UNL     1       2.547   7.450  18.697  0.00  0.00    +0.000 A 
ATOM     11  C   UNL     1       1.916   8.587  18.158  0.00  0.00    +0.000 A 
ATOM     12  C   UNL     1       1.066   9.395  18.915  0.00  0.00    +0.000 A 
ATOM     13  F   UNL     1       0.532  10.465  18.304  0.00  0.00    +0.000 F 
BRANCH   7  18
ATOM     14  N   UNL     1      -2.416  12.525  23.335  0.00  0.00    +0.000 N 
ATOM     15  C   UNL     1      -1.574  11.729  22.587  0.00  0.00    +0.000 A 
ATOM     16  N   UNL     1      -1.553  11.921  21.272  0.00  0.00    +0.000 NA
ATOM     17  C   UNL     1      -0.757  11.091  20.559  0.00  0.00    +0.000 A 
ATOM     18  C   UNL     1       0.037  10.091  21.095  0.00  0.00    +0.000 A 
ATOM     19  C   UNL     1      -0.041  10.038  22.475  0.00  0.00    +0.000 A 
ATOM     20  N   UNL     1      -0.823  10.843  23.238  0.00  0.00    +0.000 NA
ATOM     21  H   UNL     1      -2.596  13.391  22.847  0.00  0.00    +0.000 HD
ATOM     22  H   UNL     1      -2.085  12.582  24.288  0.00  0.00    +0.000 HD
ENDBRANCH   7  18
ENDBRANCH   1  10
BRANCH   4  23
ATOM     23  C   UNL     1       6.562   4.427  15.683  0.00  0.00    +0.000 C 
ATOM     24  F   UNL     1       7.678   4.138  16.407  0.00  0.00    +0.000 F 
ATOM     25  F   UNL     1       6.085   3.231  15.238  0.00  0.00    +0.000 F 
ATOM     26  F   UNL     1       6.996   5.091  14.575  0.00  0.00    +0.000 F 
ENDBRANCH   4  23
BRANCH   6  27
ATOM     27  O   UNL     1       2.165   4.613  17.894  0.00  0.00    +0.000 OA
BRANCH  27  28
ATOM     28  C   UNL     1       2.200   3.868  19.075  0.00  0.00    +0.000 A 
ATOM     29  N   UNL     1       1.046   3.807  19.758  0.00  0.00    +0.000 NA
ATOM     30  C   UNL     1       1.099   3.182  20.952  0.00  0.00    +0.000 A 
ATOM     31  C   UNL     1       2.243   2.629  21.477  0.00  0.00    +0.000 A 
ATOM     32  C   UNL     1       3.359   2.720  20.682  0.00  0.00    +0.000 A 
ATOM     33  N   UNL     1       3.363   3.314  19.475  0.00  0.00    +0.000 NA
ENDBRANCH  27  28
ENDBRANCH   6  27
TORSDOF 5
ENDMDL
MODEL 2
REMARK VINA RESULT:     -10.1      0.483      1.155
REMARK  Name = 
REMARK  5 active torsions:
REMARK  status: ('A' for Active; 'I' for Inactive)
REMARK    1  A    between atoms: C_5  and  C_6
REMARK    2  A    between atoms: C_9  and  C_10
REMARK    3  A    between atoms: C_13  and  C_14
REMARK    4  A    between atoms: C_19  and  O_20
REMARK    5  A    between atoms: O_20  and  C_21
REMARK                            x       y       z     vdW  Elec       q    Type
REMARK                         _______ _______ _______ _____ _____    ______ ____
ROOT
ATOM      1  C   UNL     1       3.347   6.641  17.802  0.00  0.00    +0.000 A 
ATOM      2  C   UNL     1       4.521   7.205  17.244  0.00  0.00    +0.000 A 
ATOM      3  C   UNL     1       5.459   6.453  16.529  0.00  0.00    +0.000 A 
ATOM      4  C   UNL     1       5.266   5.086  16.349  0.00  0.00    +0.000 A 
ATOM      5  C   UNL     1       4.117   4.502  16.889  0.00  0.00    +0.000 A 
ATOM      6  C   UNL     1       3.133   5.264  17.554  0.00  0.00    +0.000 A 
ENDROOT
BRANCH   1  10
ATOM      7  C   UNL     1       0.864   9.326  20.220  0.00  0.00    +0.000 A 
ATOM      8  C   UNL     1       1.463   8.183  20.781  0.00  0.00    +0.000 A 
ATOM      9  C   UNL     1       2.240   7.294  20.010  0.00  0.00    +0.000 A 
ATOM     10  C   UNL     1       2.472   7.511  18.646  0.00  0.00    +0.000 A 
ATOM     11  C   UNL     1       1.826   8.627  18.082  0.00  0.00    +0.000 A 
ATOM     12  C   UNL     1       1.040   9.494  18.843  0.00  0.00    +0.000 A 
ATOM     13  F   UNL     1       0.485  10.538  18.206  0.00  0.00    +0.000 F 
BRANCH   7  18
ATOM     14  N   UNL     1      -1.465  13.169  23.543  0.00  0.00    +0.000 N 
ATOM     15  C   UNL     1      -0.943  12.216  22.694  0.00  0.00    +0.000 A 
ATOM     16  N   UNL     1      -0.961  10.951  23.103  0.00  0.00    +0.000 NA
ATOM     17  C   UNL     1      -0.397  10.044  22.273  0.00  0.00    +0.000 A 
ATOM     18  C   UNL     1       0.167  10.334  21.041  0.00  0.00    +0.000 A 
ATOM     19  C   UNL     1       0.069  11.675  20.718  0.00  0.00    +0.000 A 
ATOM     20  N   UNL     1      -0.484  12.625  21.513  0.00  0.00    +0.000 NA
ATOM     21  H   UNL     1      -2.135  12.745  24.168  0.00  0.00    +0.000 HD
ATOM     22  H   UNL     1      -1.759  13.980  23.017  0.00  0.00    +0.000 HD
ENDBRANCH   7  18
ENDBRANCH   1  10
BRANCH   4  23
ATOM     23  C   UNL     1       6.234   4.241  15.563  0.00  0.00    +0.000 C 
ATOM     24  F   UNL     1       6.324   4.591  14.251  0.00  0.00    +0.000 F 
ATOM     25  F   UNL     1       7.502   4.304  16.056  0.00  0.00    +0.000 F 
ATOM     26  F   UNL     1       5.895   2.921  15.574  0.00  0.00    +0.000 F 
ENDBRANCH   4  23
BRANCH   6  27
ATOM     27  O   UNL     1       1.995   4.640  18.038  0.00  0.00    +0.000 OA
BRANCH  27  28
ATOM     28  C   UNL     1       2.118   3.884  19.207  0.00  0.00    +0.000 A 
ATOM     29  N   UNL     1       1.041   3.871  20.007  0.00  0.00    +0.000 NA
ATOM     30  C   UNL     1       1.189   3.234  21.187  0.00  0.00    +0.000 A 
ATOM     31  C   UNL     1       2.354   2.624  21.587  0.00  0.00    +0.000 A 
ATOM     32  C   UNL     1       3.384   2.670  20.679  0.00  0.00    +0.000 A 
ATOM     33  N   UNL     1       3.290   3.273  19.480  0.00  0.00    +0.000 NA
ENDBRANCH  27  28
ENDBRANCH   6  27
TORSDOF 5
ENDMDL
MODEL 3
REMARK VINA RESULT:     -10.1      0.192      1.386
REMARK  Name = 
REMARK  5 active torsions:
REMARK  status: ('A' for Active; 'I' for Inactive)
REMARK    1  A    between atoms: C_5  and  C_6
REMARK    2  A    between atoms: C_9  and  C_10
REMARK    3  A    between atoms: C_13  and  C_14
REMARK    4  A    between atoms: C_19  and  O_20
REMARK    5  A    between atoms: O_20  and  C_21
REMARK                            x       y       z     vdW  Elec       q    Type
REMARK                         _______ _______ _______ _____ _____    ______ ____
ROOT
ATOM      1  C   UNL     1       3.511   6.651  17.841  0.00  0.00    +0.000 A 
ATOM      2  C   UNL     1       4.702   7.267  17.386  0.00  0.00    +0.000 A 
ATOM      3  C   UNL     1       5.707   6.567  16.710  0.00  0.00    +0.000 A 
ATOM      4  C   UNL     1       5.567   5.204  16.468  0.00  0.00    +0.000 A 
ATOM      5  C   UNL     1       4.402   4.569  16.907  0.00  0.00    +0.000 A 
ATOM      6  C   UNL     1       3.354   5.279  17.530  0.00  0.00    +0.000 A 
ENDROOT
BRANCH   1  10
ATOM      7  C   UNL     1       0.796   9.175  20.183  0.00  0.00    +0.000 A 
ATOM      8  C   UNL     1       1.363   8.010  20.730  0.00  0.00    +0.000 A 
ATOM      9  C   UNL     1       2.214   7.171  19.981  0.00  0.00    +0.000 A 
ATOM     10  C   UNL     1       2.556   7.464  18.654  0.00  0.00    +0.000 A 
ATOM     11  C   UNL     1       1.942   8.603  18.099  0.00  0.00    +0.000 A 
ATOM     12  C   UNL     1       1.083   9.419  18.836  0.00  0.00    +0.000 A 
ATOM     13  F   UNL     1       0.567  10.490  18.211  0.00  0.00    +0.000 F 
BRANCH   7  18
ATOM     14  N   UNL     1      -1.831  12.991  23.308  0.00  0.00    +0.000 N 
ATOM     15  C   UNL     1      -1.235  12.017  22.535  0.00  0.00    +0.000 A 
ATOM     16  N   UNL     1      -0.571  11.053  23.164  0.00  0.00    +0.000 NA
ATOM     17  C   UNL     1       0.048  10.141  22.380  0.00  0.00    +0.000 A 
ATOM     18  C   UNL     1       0.018  10.130  20.995  0.00  0.00    +0.000 A 
ATOM     19  C   UNL     1      -0.751  11.155  20.475  0.00  0.00    +0.000 A 
ATOM     20  N   UNL     1      -1.389  12.097  21.215  0.00  0.00    +0.000 NA
ATOM     21  H   UNL     1      -2.019  12.631  24.233  0.00  0.00    +0.000 HD
ATOM     22  H   UNL     1      -2.596  13.416  22.803  0.00  0.00    +0.000 HD
ENDBRANCH   7  18
ENDBRANCH   1  10
BRANCH   4  23
ATOM     23  C   UNL     1       6.609   4.414  15.720  0.00  0.00    +0.000 C 
ATOM     24  F   UNL     1       6.147   3.234  15.223  0.00  0.00    +0.000 F 
ATOM     25  F   UNL     1       7.116   5.096  14.656  0.00  0.00    +0.000 F 
ATOM     26  F   UNL     1       7.679   4.096  16.503  0.00  0.00    +0.000 F 
ENDBRANCH   4  23
BRANCH   6  27
ATOM     27  O   UNL     1       2.203   4.607  17.912  0.00  0.00    +0.000 OA
BRANCH  27  28
ATOM     28  C   UNL     1       2.210   3.967  19.155  0.00  0.00    +0.000 A 
ATOM     29  N   UNL     1       3.384   3.431  19.525  0.00  0.00    +0.000 NA
ATOM     30  C   UNL     1       3.371   2.719  20.671  0.00  0.00    +0.000 A 
ATOM     31  C   UNL     1       2.249   2.528  21.442  0.00  0.00    +0.000 A 
ATOM     32  C   UNL     1       1.110   3.145  20.987  0.00  0.00    +0.000 A 
ATOM     33  N   UNL     1       1.065   3.884  19.863  0.00  0.00    +0.000 NA
ENDBRANCH  27  28
ENDBRANCH   6  27
TORSDOF 5
ENDMDL
MODEL 4
REMARK VINA RESULT:      -9.8      0.936      1.685
REMARK  Name = 
REMARK  5 active torsions:
REMARK  status: ('A' for Active; 'I' for Inactive)
REMARK    1  A    between atoms: C_5  and  C_6
REMARK    2  A    between atoms: C_9  and  C_10
REMARK    3  A    between atoms: C_13  and  C_14
REMARK    4  A    between atoms: C_19  and  O_20
REMARK    5  A    between atoms: O_20  and  C_21
REMARK                            x       y       z     vdW  Elec       q    Type
REMARK                         _______ _______ _______ _____ _____    ______ ____
ROOT
ATOM      1  C   UNL     1       3.332   6.698  17.694  0.00  0.00    +0.000 A 
ATOM      2  C   UNL     1       4.497   7.183  17.051  0.00  0.00    +0.000 A 
ATOM      3  C   UNL     1       5.367   6.356  16.333  0.00  0.00    +0.000 A 
ATOM      4  C   UNL     1       5.112   4.991  16.236  0.00  0.00    +0.000 A 
ATOM      5  C   UNL     1       3.970   4.484  16.862  0.00  0.00    +0.000 A 
ATOM      6  C   UNL     1       3.051   5.320  17.532  0.00  0.00    +0.000 A 
ENDROOT
BRANCH   1  10
ATOM      7  C   UNL     1       0.901   9.348  20.203  0.00  0.00    +0.000 A 
ATOM      8  C   UNL     1       1.176   9.664  18.860  0.00  0.00    +0.000 A 
ATOM      9  C   UNL     1       1.981   8.838  18.049  0.00  0.00    +0.000 A 
ATOM     10  C   UNL     1       2.535   7.646  18.532  0.00  0.00    +0.000 A 
ATOM     11  C   UNL     1       2.299   7.364  19.891  0.00  0.00    +0.000 A 
ATOM     12  C   UNL     1       1.519   8.195  20.698  0.00  0.00    +0.000 A 
ATOM     13  F   UNL     1       1.344   7.821  21.975  0.00  0.00    +0.000 F 
BRANCH   7  18
ATOM     14  N   UNL     1      -2.403  12.532  23.394  0.00  0.00    +0.000 N 
ATOM     15  C   UNL     1      -1.635  11.709  22.596  0.00  0.00    +0.000 A 
ATOM     16  N   UNL     1      -0.924  10.760  23.197  0.00  0.00    +0.000 NA
ATOM     17  C   UNL     1      -0.141  10.002  22.396  0.00  0.00    +0.000 A 
ATOM     18  C   UNL     1      -0.047  10.129  21.019  0.00  0.00    +0.000 A 
ATOM     19  C   UNL     1      -0.879  11.116  20.523  0.00  0.00    +0.000 A 
ATOM     20  N   UNL     1      -1.681  11.906  21.280  0.00  0.00    +0.000 NA
ATOM     21  H   UNL     1      -2.629  12.061  24.258  0.00  0.00    +0.000 HD
ATOM     22  H   UNL     1      -3.164  12.924  22.857  0.00  0.00    +0.000 HD
ENDBRANCH   7  18
ENDBRANCH   1  10
BRANCH   4  23
ATOM     23  C   UNL     1       6.004   4.066  15.451  0.00  0.00    +0.000 C 
ATOM     24  F   UNL     1       5.796   4.118  14.106  0.00  0.00    +0.000 F 
ATOM     25  F   UNL     1       7.327   4.335  15.635  0.00  0.00    +0.000 F 
ATOM     26  F   UNL     1       5.837   2.761  15.804  0.00  0.00    +0.000 F 
ENDBRANCH   4  23
BRANCH   6  27
ATOM     27  O   UNL     1       1.915   4.770  18.103  0.00  0.00    +0.000 OA
BRANCH  27  28
ATOM     28  C   UNL     1       2.083   3.966  19.234  0.00  0.00    +0.000 A 
ATOM     29  N   UNL     1       1.044   3.934  20.084  0.00  0.00    +0.000 NA
ATOM     30  C   UNL     1       1.239   3.249  21.229  0.00  0.00    +0.000 A 
ATOM     31  C   UNL     1       2.414   2.610  21.548  0.00  0.00    +0.000 A 
ATOM     32  C   UNL     1       3.401   2.680  20.595  0.00  0.00    +0.000 A 
ATOM     33  N   UNL     1       3.258   3.331  19.427  0.00  0.00    +0.000 NA
ENDBRANCH  27  28
ENDBRANCH   6  27
TORSDOF 5
ENDMDL
MODEL 5
REMARK VINA RESULT:      -9.7      0.909      1.806
REMARK  Name = 
REMARK  5 active torsions:
REMARK  status: ('A' for Active; 'I' for Inactive)
REMARK    1  A    between atoms: C_5  and  C_6
REMARK    2  A    between atoms: C_9  and  C_10
REMARK    3  A    between atoms: C_13  and  C_14
REMARK    4  A    between atoms: C_19  and  O_20
REMARK    5  A    between atoms: O_20  and  C_21
REMARK                            x       y       z     vdW  Elec       q    Type
REMARK                         _______ _______ _______ _____ _____    ______ ____
ROOT
ATOM      1  C   UNL     1       3.350   6.742  17.760  0.00  0.00    +0.000 A 
ATOM      2  C   UNL     1       4.518   7.232  17.126  0.00  0.00    +0.000 A 
ATOM      3  C   UNL     1       5.405   6.406  16.427  0.00  0.00    +0.000 A 
ATOM      4  C   UNL     1       5.165   5.037  16.343  0.00  0.00    +0.000 A 
ATOM      5  C   UNL     1       4.020   4.526  16.961  0.00  0.00    +0.000 A 
ATOM      6  C   UNL     1       3.086   5.360  17.610  0.00  0.00    +0.000 A 
ENDROOT
BRANCH   1  10
ATOM      7  C   UNL     1       0.863   9.395  20.209  0.00  0.00    +0.000 A 
ATOM      8  C   UNL     1       1.154   9.701  18.867  0.00  0.00    +0.000 A 
ATOM      9  C   UNL     1       1.976   8.874  18.075  0.00  0.00    +0.000 A 
ATOM     10  C   UNL     1       2.534   7.691  18.578  0.00  0.00    +0.000 A 
ATOM     11  C   UNL     1       2.281   7.421  19.936  0.00  0.00    +0.000 A 
ATOM     12  C   UNL     1       1.483   8.253  20.723  0.00  0.00    +0.000 A 
ATOM     13  F   UNL     1       1.294   7.890  22.002  0.00  0.00    +0.000 F 
BRANCH   7  18
ATOM     14  N   UNL     1      -2.517  12.596  23.302  0.00  0.00    +0.000 N 
ATOM     15  C   UNL     1      -1.729  11.767  22.531  0.00  0.00    +0.000 A 
ATOM     16  N   UNL     1      -0.964  10.884  23.164  0.00  0.00    +0.000 NA
ATOM     17  C   UNL     1      -0.163  10.119  22.387  0.00  0.00    +0.000 A 
ATOM     18  C   UNL     1      -0.104  10.176  21.004  0.00  0.00    +0.000 A 
ATOM     19  C   UNL     1      -0.989  11.098  20.476  0.00  0.00    +0.000 A 
ATOM     20  N   UNL     1      -1.811  11.891  21.208  0.00  0.00    +0.000 NA
ATOM     21  H   UNL     1      -2.705  12.163  24.194  0.00  0.00    +0.000 HD
ATOM     22  H   UNL     1      -3.306  12.925  22.762  0.00  0.00    +0.000 HD
ENDBRANCH   7  18
ENDBRANCH   1  10
BRANCH   4  23
ATOM     23  C   UNL     1       6.076   4.113  15.579  0.00  0.00    +0.000 C 
ATOM     24  F   UNL     1       5.729   2.800  15.678  0.00  0.00    +0.000 F 
ATOM     25  F   UNL     1       6.105   4.392  14.246  0.00  0.00    +0.000 F 
ATOM     26  F   UNL     1       7.368   4.190  16.004  0.00  0.00    +0.000 F 
ENDBRANCH   4  23
BRANCH   6  27
ATOM     27  O   UNL     1       1.948   4.805  18.174  0.00  0.00    +0.000 OA
BRANCH  27  28
ATOM     28  C   UNL     1       2.100   4.087  19.363  0.00  0.00    +0.000 A 
ATOM     29  N   UNL     1       3.300   3.514  19.547  0.00  0.00    +0.000 NA
ATOM     30  C   UNL     1       3.419   2.730  20.638  0.00  0.00    +0.000 A 
ATOM     31  C   UNL     1       2.400   2.503  21.533  0.00  0.00    +0.000 A 
ATOM     32  C   UNL     1       1.224   3.163  21.267  0.00  0.00    +0.000 A 
ATOM     33  N   UNL     1       1.052   3.972  20.206  0.00  0.00    +0.000 NA
ENDBRANCH  27  28
ENDBRANCH   6  27
TORSDOF 5
ENDMDL
MODEL 6
REMARK VINA RESULT:      -9.6      3.936      9.125
REMARK  Name = 
REMARK  5 active torsions:
REMARK  status: ('A' for Active; 'I' for Inactive)
REMARK    1  A    between atoms: C_5  and  C_6
REMARK    2  A    between atoms: C_9  and  C_10
REMARK    3  A    between atoms: C_13  and  C_14
REMARK    4  A    between atoms: C_19  and  O_20
REMARK    5  A    between atoms: O_20  and  C_21
REMARK                            x       y       z     vdW  Elec       q    Type
REMARK                         _______ _______ _______ _____ _____    ______ ____
ROOT
ATOM      1  C   UNL     1       0.841  11.302  19.119  0.00  0.00    +0.000 A 
ATOM      2  C   UNL     1       1.795  12.347  19.176  0.00  0.00    +0.000 A 
ATOM      3  C   UNL     1       1.441  13.700  19.173  0.00  0.00    +0.000 A 
ATOM      4  C   UNL     1       0.101  14.070  19.101  0.00  0.00    +0.000 A 
ATOM      5  C   UNL     1      -0.864  13.060  19.042  0.00  0.00    +0.000 A 
ATOM      6  C   UNL     1      -0.520  11.693  19.112  0.00  0.00    +0.000 A 
ENDROOT
BRANCH   1  10
ATOM      7  C   UNL     1       2.371   7.197  18.940  0.00  0.00    +0.000 A 
ATOM      8  C   UNL     1       2.419   8.043  17.817  0.00  0.00    +0.000 A 
ATOM      9  C   UNL     1       1.905   9.356  17.849  0.00  0.00    +0.000 A 
ATOM     10  C   UNL     1       1.333   9.895  19.009  0.00  0.00    +0.000 A 
ATOM     11  C   UNL     1       1.241   9.023  20.111  0.00  0.00    +0.000 A 
ATOM     12  C   UNL     1       1.732   7.717  20.070  0.00  0.00    +0.000 A 
ATOM     13  F   UNL     1       1.608   6.979  21.184  0.00  0.00    +0.000 F 
BRANCH   7  18
ATOM     14  N   UNL     1       4.847   2.208  19.397  0.00  0.00    +0.000 N 
ATOM     15  C   UNL     1       4.244   3.436  19.224  0.00  0.00    +0.000 A 
ATOM     16  N   UNL     1       5.007   4.518  19.337  0.00  0.00    +0.000 NA
ATOM     17  C   UNL     1       4.379   5.710  19.213  0.00  0.00    +0.000 A 
ATOM     18  C   UNL     1       3.027   5.876  18.960  0.00  0.00    +0.000 A 
ATOM     19  C   UNL     1       2.366   4.671  18.812  0.00  0.00    +0.000 A 
ATOM     20  N   UNL     1       2.945   3.450  18.929  0.00  0.00    +0.000 NA
ATOM     21  H   UNL     1       5.834   2.276  19.193  0.00  0.00    +0.000 HD
ATOM     22  H   UNL     1       4.317   1.490  18.924  0.00  0.00    +0.000 HD
ENDBRANCH   7  18
ENDBRANCH   1  10
BRANCH   4  23
ATOM     23  C   UNL     1      -0.332  15.513  19.123  0.00  0.00    +0.000 C 
ATOM     24  F   UNL     1      -0.489  16.054  17.884  0.00  0.00    +0.000 F 
ATOM     25  F   UNL     1      -1.520  15.691  19.763  0.00  0.00    +0.000 F 
ATOM     26  F   UNL     1       0.563  16.312  19.769  0.00  0.00    +0.000 F 
ENDBRANCH   4  23
BRANCH   6  27
ATOM     27  O   UNL     1      -1.518  10.733  19.088  0.00  0.00    +0.000 OA
BRANCH  27  28
ATOM     28  C   UNL     1      -2.343  10.685  17.960  0.00  0.00    +0.000 A 
ATOM     29  N   UNL     1      -1.836  10.044  16.896  0.00  0.00    +0.000 NA
ATOM     30  C   UNL     1      -2.579  10.087  15.771  0.00  0.00    +0.000 A 
ATOM     31  C   UNL     1      -3.786  10.738  15.675  0.00  0.00    +0.000 A 
ATOM     32  C   UNL     1      -4.227  11.335  16.832  0.00  0.00    +0.000 A 
ATOM     33  N   UNL     1      -3.539  11.309  17.988  0.00  0.00    +0.000 NA
ENDBRANCH  27  28
ENDBRANCH   6  27
TORSDOF 5
ENDMDL
MODEL 7
REMARK VINA RESULT:      -9.5      1.206      1.659
REMARK  Name = 
REMARK  5 active torsions:
REMARK  status: ('A' for Active; 'I' for Inactive)
REMARK    1  A    between atoms: C_5  and  C_6
REMARK    2  A    between atoms: C_9  and  C_10
REMARK    3  A    between atoms: C_13  and  C_14
REMARK    4  A    between atoms: C_19  and  O_20
REMARK    5  A    between atoms: O_20  and  C_21
REMARK                            x       y       z     vdW  Elec       q    Type
REMARK                         _______ _______ _______ _____ _____    ______ ____
ROOT
ATOM      1  C   UNL     1       3.197   7.062  17.832  0.00  0.00    +0.000 A 
ATOM      2  C   UNL     1       4.415   7.468  17.234  0.00  0.00    +0.000 A 
ATOM      3  C   UNL     1       5.321   6.565  16.670  0.00  0.00    +0.000 A 
ATOM      4  C   UNL     1       5.050   5.199  16.690  0.00  0.00    +0.000 A 
ATOM      5  C   UNL     1       3.856   4.769  17.274  0.00  0.00    +0.000 A 
ATOM      6  C   UNL     1       2.905   5.677  17.786  0.00  0.00    +0.000 A 
ENDROOT
BRANCH   1  10
ATOM      7  C   UNL     1       0.630   9.976  19.868  0.00  0.00    +0.000 A 
ATOM      8  C   UNL     1       1.050  10.175  18.540  0.00  0.00    +0.000 A 
ATOM      9  C   UNL     1       1.899   9.263  17.881  0.00  0.00    +0.000 A 
ATOM     10  C   UNL     1       2.357   8.097  18.509  0.00  0.00    +0.000 A 
ATOM     11  C   UNL     1       1.975   7.932  19.853  0.00  0.00    +0.000 A 
ATOM     12  C   UNL     1       1.151   8.848  20.510  0.00  0.00    +0.000 A 
ATOM     13  F   UNL     1       0.835   8.583  21.788  0.00  0.00    +0.000 F 
BRANCH   7  18
ATOM     14  N   UNL     1      -3.390  12.994  22.311  0.00  0.00    +0.000 N 
ATOM     15  C   UNL     1      -2.362  12.298  21.710  0.00  0.00    +0.000 A 
ATOM     16  N   UNL     1      -2.355  12.237  20.382  0.00  0.00    +0.000 NA
ATOM     17  C   UNL     1      -1.365  11.505  19.821  0.00  0.00    +0.000 A 
ATOM     18  C   UNL     1      -0.366  10.848  20.520  0.00  0.00    +0.000 A 
ATOM     19  C   UNL     1      -0.462  11.040  21.886  0.00  0.00    +0.000 A 
ATOM     20  N   UNL     1      -1.435  11.761  22.500  0.00  0.00    +0.000 NA
ATOM     21  H   UNL     1      -3.762  13.681  21.671  0.00  0.00    +0.000 HD
ATOM     22  H   UNL     1      -3.106  13.308  23.228  0.00  0.00    +0.000 HD
ENDBRANCH   7  18
ENDBRANCH   1  10
BRANCH   4  23
ATOM     23  C   UNL     1       5.982   4.191  16.070  0.00  0.00    +0.000 C 
ATOM     24  F   UNL     1       6.262   4.438  14.761  0.00  0.00    +0.000 F 
ATOM     25  F   UNL     1       7.186   4.133  16.706  0.00  0.00    +0.000 F 
ATOM     26  F   UNL     1       5.478   2.926  16.112  0.00  0.00    +0.000 F 
ENDBRANCH   4  23
BRANCH   6  27
ATOM     27  O   UNL     1       1.719   5.199  18.321  0.00  0.00    +0.000 OA
BRANCH  27  28
ATOM     28  C   UNL     1       1.807   4.293  19.382  0.00  0.00    +0.000 A 
ATOM     29  N   UNL     1       1.305   3.071  19.143  0.00  0.00    +0.000 NA
ATOM     30  C   UNL     1       1.287   2.225  20.194  0.00  0.00    +0.000 A 
ATOM     31  C   UNL     1       1.742   2.553  21.449  0.00  0.00    +0.000 A 
ATOM     32  C   UNL     1       2.263   3.818  21.575  0.00  0.00    +0.000 A 
ATOM     33  N   UNL     1       2.326   4.698  20.559  0.00  0.00    +0.000 NA
ENDBRANCH  27  28
ENDBRANCH   6  27
TORSDOF 5
ENDMDL
MODEL 8
REMARK VINA RESULT:      -9.5      3.952      9.120
REMARK  Name = 
REMARK  5 active torsions:
REMARK  status: ('A' for Active; 'I' for Inactive)
REMARK    1  A    between atoms: C_5  and  C_6
REMARK    2  A    between atoms: C_9  and  C_10
REMARK    3  A    between atoms: C_13  and  C_14
REMARK    4  A    between atoms: C_19  and  O_20
REMARK    5  A    between atoms: O_20  and  C_21
REMARK                            x       y       z     vdW  Elec       q    Type
REMARK                         _______ _______ _______ _____ _____    ______ ____
ROOT
ATOM      1  C   UNL     1       0.786  11.479  19.111  0.00  0.00    +0.000 A 
ATOM      2  C   UNL     1       1.746  12.516  19.205  0.00  0.00    +0.000 A 
ATOM      3  C   UNL     1       1.403  13.871  19.190  0.00  0.00    +0.000 A 
ATOM      4  C   UNL     1       0.070  14.253  19.068  0.00  0.00    +0.000 A 
ATOM      5  C   UNL     1      -0.900  13.251  18.973  0.00  0.00    +0.000 A 
ATOM      6  C   UNL     1      -0.570  11.882  19.053  0.00  0.00    +0.000 A 
ENDROOT
BRANCH   1  10
ATOM      7  C   UNL     1       2.293   7.363  18.981  0.00  0.00    +0.000 A 
ATOM      8  C   UNL     1       2.350   8.197  17.850  0.00  0.00    +0.000 A 
ATOM      9  C   UNL     1       1.843   9.513  17.866  0.00  0.00    +0.000 A 
ATOM     10  C   UNL     1       1.270  10.068  19.018  0.00  0.00    +0.000 A 
ATOM     11  C   UNL     1       1.169   9.209  20.129  0.00  0.00    +0.000 A 
ATOM     12  C   UNL     1       1.653   7.900  20.103  0.00  0.00    +0.000 A 
ATOM     13  F   UNL     1       1.520   7.175  21.225  0.00  0.00    +0.000 F 
BRANCH   7  18
ATOM     14  N   UNL     1       4.846   2.417  19.482  0.00  0.00    +0.000 N 
ATOM     15  C   UNL     1       4.206   3.625  19.299  0.00  0.00    +0.000 A 
ATOM     16  N   UNL     1       4.960   4.686  19.028  0.00  0.00    +0.000 NA
ATOM     17  C   UNL     1       4.311   5.867  18.906  0.00  0.00    +0.000 A 
ATOM     18  C   UNL     1       2.941   6.039  19.019  0.00  0.00    +0.000 A 
ATOM     19  C   UNL     1       2.276   4.848  19.247  0.00  0.00    +0.000 A 
ATOM     20  N   UNL     1       2.877   3.639  19.381  0.00  0.00    +0.000 NA
ATOM     21  H   UNL     1       5.734   2.421  19.002  0.00  0.00    +0.000 HD
ATOM     22  H   UNL     1       4.210   1.655  19.291  0.00  0.00    +0.000 HD
ENDBRANCH   7  18
ENDBRANCH   1  10
BRANCH   4  23
ATOM     23  C   UNL     1      -0.351  15.699  19.076  0.00  0.00    +0.000 C 
ATOM     24  F   UNL     1      -1.536  15.920  19.709  0.00  0.00    +0.000 F 
ATOM     25  F   UNL     1       0.558  16.504  19.693  0.00  0.00    +0.000 F 
ATOM     26  F   UNL     1      -0.500  16.202  17.818  0.00  0.00    +0.000 F 
ENDBRANCH   4  23
BRANCH   6  27
ATOM     27  O   UNL     1      -1.575  10.930  18.991  0.00  0.00    +0.000 OA
BRANCH  27  28
ATOM     28  C   UNL     1      -2.322  10.854  17.812  0.00  0.00    +0.000 A 
ATOM     29  N   UNL     1      -3.503  11.492  17.831  0.00  0.00    +0.000 NA
ATOM     30  C   UNL     1      -4.277  11.333  16.738  0.00  0.00    +0.000 A 
ATOM     31  C   UNL     1      -3.920  10.572  15.650  0.00  0.00    +0.000 A 
ATOM     32  C   UNL     1      -2.678   9.989  15.722  0.00  0.00    +0.000 A 
ATOM     33  N   UNL     1      -1.853  10.128  16.776  0.00  0.00    +0.000 NA
ENDBRANCH  27  28
ENDBRANCH   6  27
TORSDOF 5
ENDMDL
MODEL 9
REMARK VINA RESULT:      -9.5      0.940      1.223
REMARK  Name = 
REMARK  5 active torsions:
REMARK  status: ('A' for Active; 'I' for Inactive)
REMARK    1  A    between atoms: C_5  and  C_6
REMARK    2  A    between atoms: C_9  and  C_10
REMARK    3  A    between atoms: C_13  and  C_14
REMARK    4  A    between atoms: C_19  and  O_20
REMARK    5  A    between atoms: O_20  and  C_21
REMARK                            x       y       z     vdW  Elec       q    Type
REMARK                         _______ _______ _______ _____ _____    ______ ____
ROOT
ATOM      1  C   UNL     1       3.287   6.906  17.892  0.00  0.00    +0.000 A 
ATOM      2  C   UNL     1       4.517   7.439  17.436  0.00  0.00    +0.000 A 
ATOM      3  C   UNL     1       5.521   6.650  16.865  0.00  0.00    +0.000 A 
ATOM      4  C   UNL     1       5.340   5.275  16.735  0.00  0.00    +0.000 A 
ATOM      5  C   UNL     1       4.135   4.721  17.178  0.00  0.00    +0.000 A 
ATOM      6  C   UNL     1       3.091   5.518  17.694  0.00  0.00    +0.000 A 
ENDROOT
BRANCH   1  10
ATOM      7  C   UNL     1       0.570   9.715  19.879  0.00  0.00    +0.000 A 
ATOM      8  C   UNL     1       1.175   8.661  20.587  0.00  0.00    +0.000 A 
ATOM      9  C   UNL     1       2.028   7.732  19.957  0.00  0.00    +0.000 A 
ATOM     10  C   UNL     1       2.333   7.819  18.592  0.00  0.00    +0.000 A 
ATOM     11  C   UNL     1       1.681   8.844  17.881  0.00  0.00    +0.000 A 
ATOM     12  C   UNL     1       0.821   9.750  18.504  0.00  0.00    +0.000 A 
ATOM     13  F   UNL     1       0.267  10.699  17.732  0.00  0.00    +0.000 F 
BRANCH   7  18
ATOM     14  N   UNL     1      -2.142  13.969  22.285  0.00  0.00    +0.000 N 
ATOM     15  C   UNL     1      -1.511  12.880  21.719  0.00  0.00    +0.000 A 
ATOM     16  N   UNL     1      -0.444  12.394  22.345  0.00  0.00    +0.000 NA
ATOM     17  C   UNL     1       0.185  11.360  21.741  0.00  0.00    +0.000 A 
ATOM     18  C   UNL     1      -0.211  10.771  20.551  0.00  0.00    +0.000 A 
ATOM     19  C   UNL     1      -1.363  11.339  20.039  0.00  0.00    +0.000 A 
ATOM     20  N   UNL     1      -2.031  12.377  20.602  0.00  0.00    +0.000 NA
ATOM     21  H   UNL     1      -1.957  13.997  23.277  0.00  0.00    +0.000 HD
ATOM     22  H   UNL     1      -3.106  14.007  21.984  0.00  0.00    +0.000 HD
ENDBRANCH   7  18
ENDBRANCH   1  10
BRANCH   4  23
ATOM     23  C   UNL     1       6.380   4.389  16.102  0.00  0.00    +0.000 C 
ATOM     24  F   UNL     1       7.444   4.131  16.911  0.00  0.00    +0.000 F 
ATOM     25  F   UNL     1       5.880   3.174  15.742  0.00  0.00    +0.000 F 
ATOM     26  F   UNL     1       6.899   4.930  14.964  0.00  0.00    +0.000 F 
ENDBRANCH   4  23
BRANCH   6  27
ATOM     27  O   UNL     1       1.903   4.921  18.084  0.00  0.00    +0.000 OA
BRANCH  27  28
ATOM     28  C   UNL     1       1.929   4.110  19.221  0.00  0.00    +0.000 A 
ATOM     29  N   UNL     1       1.473   2.859  19.053  0.00  0.00    +0.000 NA
ATOM     30  C   UNL     1       1.393   2.104  20.168  0.00  0.00    +0.000 A 
ATOM     31  C   UNL     1       1.744   2.549  21.420  0.00  0.00    +0.000 A 
ATOM     32  C   UNL     1       2.227   3.834  21.475  0.00  0.00    +0.000 A 
ATOM     33  N   UNL     1       2.348   4.627  20.395  0.00  0.00    +0.000 NA
ENDBRANCH  27  28
ENDBRANCH   6  27
TORSDOF 5
ENDMDL
