MODEL 1
REMARK VINA RESULT:      -7.5      0.000      0.000
REMARK  Name = 
REMARK  4 active torsions:
REMARK  status: ('A' for Active; 'I' for Inactive)
REMARK    1  A    between atoms: C_1  and  O_2
REMARK    2  A    between atoms: O_2  and  C_3
REMARK    3  A    between atoms: C_8  and  C_9
REMARK    4  A    between atoms: C_16  and  N_17
REMARK                            x       y       z     vdW  Elec       q    Type
REMARK                         _______ _______ _______ _____ _____    ______ ____
ROOT
ATOM      1  C   UNL     1       3.737   6.095  18.324  0.00  0.00    +0.000 A 
ATOM      2  N   UNL     1       3.470   5.662  19.538  0.00  0.00    +0.000 NA
ATOM      3  N   UNL     1       2.616   6.493  20.221  0.00  0.00    +0.000 NA
ATOM      4  C   UNL     1       2.246   7.552  19.527  0.00  0.00    +0.000 A 
ATOM      5  N   UNL     1       1.367   8.492  19.989  0.00  0.00    +0.000 N 
ATOM      6  C   UNL     1       1.109   8.508  21.429  0.00  0.00    +0.000 C 
ATOM      7  C   UNL     1      -0.328   8.939  21.681  0.00  0.00    +0.000 C 
ATOM      8  C   UNL     1      -0.722  10.267  21.001  0.00  0.00    +0.000 C 
ATOM      9  C   UNL     1      -0.312  10.212  19.518  0.00  0.00    +0.000 C 
ATOM     10  C   UNL     1       1.117   9.736  19.268  0.00  0.00    +0.000 C 
ATOM     11  S   UNL     1       2.977   7.587  17.959  0.00  0.00    +0.000 S 
ENDROOT
BRANCH   1  17
ATOM     12  C   UNL     1       4.544   4.255  16.744  0.00  0.00    +0.000 A 
ATOM     13  C   UNL     1       5.536   3.810  15.857  0.00  0.00    +0.000 A 
ATOM     14  C   UNL     1       6.726   4.523  15.697  0.00  0.00    +0.000 A 
ATOM     15  C   UNL     1       6.939   5.689  16.418  0.00  0.00    +0.000 A 
ATOM     16  C   UNL     1       5.947   6.159  17.274  0.00  0.00    +0.000 A 
ATOM     17  C   UNL     1       4.725   5.470  17.431  0.00  0.00    +0.000 A 
BRANCH  12  19
ATOM     18  C   UNL     1       3.460   2.444  17.833  0.00  0.00    +0.000 C 
ATOM     19  O   UNL     1       3.382   3.555  16.944  0.00  0.00    +0.000 OA
ENDBRANCH  12  19
ENDBRANCH   1  17
BRANCH   8  20
ATOM     20  N   UNL     1      -0.376  11.539  21.695  0.00  0.00    +0.000 NA
ATOM     21  C   UNL     1       0.164  12.535  20.757  0.00  0.00    +0.000 C 
ATOM     22  C   UNL     1       0.596  13.831  21.439  0.00  0.00    +0.000 C 
ATOM     23  C   UNL     1      -0.566  14.426  22.216  0.00  0.00    +0.000 C 
ATOM     24  C   UNL     1      -1.022  13.417  23.255  0.00  0.00    +0.000 C 
ATOM     25  C   UNL     1      -1.381  12.076  22.612  0.00  0.00    +0.000 C 
ENDBRANCH   8  20
TORSDOF 3
ENDMDL
MODEL 2
REMARK VINA RESULT:      -7.5      2.073      3.195
REMARK  Name = 
REMARK  4 active torsions:
REMARK  status: ('A' for Active; 'I' for Inactive)
REMARK    1  A    between atoms: C_1  and  O_2
REMARK    2  A    between atoms: O_2  and  C_3
REMARK    3  A    between atoms: C_8  and  C_9
REMARK    4  A    between atoms: C_16  and  N_17
REMARK                            x       y       z     vdW  Elec       q    Type
REMARK                         _______ _______ _______ _____ _____    ______ ____
ROOT
ATOM      1  C   UNL     1       2.528   6.451  19.019  0.00  0.00    +0.000 A 
ATOM      2  N   UNL     1       2.679   7.519  18.265  0.00  0.00    +0.000 NA
ATOM      3  N   UNL     1       2.038   8.622  18.773  0.00  0.00    +0.000 NA
ATOM      4  C   UNL     1       1.400   8.384  19.903  0.00  0.00    +0.000 A 
ATOM      5  N   UNL     1       0.729   9.342  20.611  0.00  0.00    +0.000 N 
ATOM      6  C   UNL     1       0.412  10.586  19.909  0.00  0.00    +0.000 C 
ATOM      7  C   UNL     1       0.447  11.746  20.892  0.00  0.00    +0.000 C 
ATOM      8  C   UNL     1      -0.430  11.543  22.146  0.00  0.00    +0.000 C 
ATOM      9  C   UNL     1      -0.118  10.164  22.758  0.00  0.00    +0.000 C 
ATOM     10  C   UNL     1      -0.110   9.009  21.759  0.00  0.00    +0.000 C 
ATOM     11  S   UNL     1       1.545   6.731  20.394  0.00  0.00    +0.000 S 
ENDROOT
BRANCH   1  17
ATOM     12  C   UNL     1       4.234   4.548  19.000  0.00  0.00    +0.000 A 
ATOM     13  C   UNL     1       4.524   3.223  18.641  0.00  0.00    +0.000 A 
ATOM     14  C   UNL     1       3.626   2.477  17.874  0.00  0.00    +0.000 A 
ATOM     15  C   UNL     1       2.429   3.043  17.461  0.00  0.00    +0.000 A 
ATOM     16  C   UNL     1       2.116   4.345  17.842  0.00  0.00    +0.000 A 
ATOM     17  C   UNL     1       2.995   5.109  18.639  0.00  0.00    +0.000 A 
BRANCH  12  19
ATOM     18  C   UNL     1       6.423   5.455  19.176  0.00  0.00    +0.000 C 
ATOM     19  O   UNL     1       5.115   5.313  19.722  0.00  0.00    +0.000 OA
ENDBRANCH  12  19
ENDBRANCH   1  17
BRANCH   8  20
ATOM     20  N   UNL     1      -1.880  11.865  22.047  0.00  0.00    +0.000 NA
ATOM     21  C   UNL     1      -2.426  12.296  23.343  0.00  0.00    +0.000 C 
ATOM     22  C   UNL     1      -3.928  12.570  23.302  0.00  0.00    +0.000 C 
ATOM     23  C   UNL     1      -4.242  13.606  22.235  0.00  0.00    +0.000 C 
ATOM     24  C   UNL     1      -3.771  13.078  20.892  0.00  0.00    +0.000 C 
ATOM     25  C   UNL     1      -2.286  12.711  20.925  0.00  0.00    +0.000 C 
ENDBRANCH   8  20
TORSDOF 3
ENDMDL
MODEL 3
REMARK VINA RESULT:      -7.5      1.264      1.644
REMARK  Name = 
REMARK  4 active torsions:
REMARK  status: ('A' for Active; 'I' for Inactive)
REMARK    1  A    between atoms: C_1  and  O_2
REMARK    2  A    between atoms: O_2  and  C_3
REMARK    3  A    between atoms: C_8  and  C_9
REMARK    4  A    between atoms: C_16  and  N_17
REMARK                            x       y       z     vdW  Elec       q    Type
REMARK                         _______ _______ _______ _____ _____    ______ ____
ROOT
ATOM      1  C   UNL     1       4.069   6.111  18.140  0.00  0.00    +0.000 A 
ATOM      2  N   UNL     1       3.726   5.598  19.302  0.00  0.00    +0.000 NA
ATOM      3  N   UNL     1       2.808   6.369  19.972  0.00  0.00    +0.000 NA
ATOM      4  C   UNL     1       2.464   7.462  19.318  0.00  0.00    +0.000 A 
ATOM      5  N   UNL     1       1.533   8.355  19.771  0.00  0.00    +0.000 N 
ATOM      6  C   UNL     1       1.173   8.277  21.188  0.00  0.00    +0.000 C 
ATOM      7  C   UNL     1      -0.287   8.664  21.361  0.00  0.00    +0.000 C 
ATOM      8  C   UNL     1      -0.662  10.025  20.737  0.00  0.00    +0.000 C 
ATOM      9  C   UNL     1      -0.147  10.071  19.286  0.00  0.00    +0.000 C 
ATOM     10  C   UNL     1       1.307   9.638  19.111  0.00  0.00    +0.000 C 
ATOM     11  S   UNL     1       3.303   7.608  17.812  0.00  0.00    +0.000 S 
ENDROOT
BRANCH   1  17
ATOM     12  C   UNL     1       6.341   5.009  17.747  0.00  0.00    +0.000 A 
ATOM     13  C   UNL     1       7.238   4.443  16.827  0.00  0.00    +0.000 A 
ATOM     14  C   UNL     1       6.976   4.480  15.456  0.00  0.00    +0.000 A 
ATOM     15  C   UNL     1       5.815   5.078  14.987  0.00  0.00    +0.000 A 
ATOM     16  C   UNL     1       4.902   5.611  15.893  0.00  0.00    +0.000 A 
ATOM     17  C   UNL     1       5.132   5.561  17.284  0.00  0.00    +0.000 A 
BRANCH  12  19
ATOM     18  C   UNL     1       7.748   5.736  19.518  0.00  0.00    +0.000 C 
ATOM     19  O   UNL     1       6.593   5.017  19.095  0.00  0.00    +0.000 OA
ENDBRANCH  12  19
ENDBRANCH   1  17
BRANCH   8  20
ATOM     20  N   UNL     1      -0.396  11.257  21.530  0.00  0.00    +0.000 NA
ATOM     21  C   UNL     1       0.100  12.350  20.679  0.00  0.00    +0.000 C 
ATOM     22  C   UNL     1       0.452  13.611  21.463  0.00  0.00    +0.000 C 
ATOM     23  C   UNL     1      -0.750  14.082  22.264  0.00  0.00    +0.000 C 
ATOM     24  C   UNL     1      -1.164  12.974  23.216  0.00  0.00    +0.000 C 
ATOM     25  C   UNL     1      -1.440  11.669  22.467  0.00  0.00    +0.000 C 
ENDBRANCH   8  20
TORSDOF 3
ENDMDL
MODEL 4
REMARK VINA RESULT:      -7.5      1.125      1.940
REMARK  Name = 
REMARK  4 active torsions:
REMARK  status: ('A' for Active; 'I' for Inactive)
REMARK    1  A    between atoms: C_1  and  O_2
REMARK    2  A    between atoms: O_2  and  C_3
REMARK    3  A    between atoms: C_8  and  C_9
REMARK    4  A    between atoms: C_16  and  N_17
REMARK                            x       y       z     vdW  Elec       q    Type
REMARK                         _______ _______ _______ _____ _____    ______ ____
ROOT
ATOM      1  C   UNL     1       3.843   6.161  18.080  0.00  0.00    +0.000 A 
ATOM      2  N   UNL     1       3.605   5.688  19.284  0.00  0.00    +0.000 NA
ATOM      3  N   UNL     1       2.737   6.474  20.002  0.00  0.00    +0.000 NA
ATOM      4  C   UNL     1       2.327   7.540  19.342  0.00  0.00    +0.000 A 
ATOM      5  N   UNL     1       1.427   8.441  19.841  0.00  0.00    +0.000 N 
ATOM      6  C   UNL     1       1.188   8.410  21.284  0.00  0.00    +0.000 C 
ATOM      7  C   UNL     1      -0.257   8.790  21.567  0.00  0.00    +0.000 C 
ATOM      8  C   UNL     1      -0.699  10.125  20.929  0.00  0.00    +0.000 C 
ATOM      9  C   UNL     1      -0.309  10.122  19.440  0.00  0.00    +0.000 C 
ATOM     10  C   UNL     1       1.131   9.696  19.158  0.00  0.00    +0.000 C 
ATOM     11  S   UNL     1       3.034   7.639  17.766  0.00  0.00    +0.000 S 
ENDROOT
BRANCH   1  17
ATOM     12  C   UNL     1       6.054   6.199  16.800  0.00  0.00    +0.000 A 
ATOM     13  C   UNL     1       6.953   5.509  15.972  0.00  0.00    +0.000 A 
ATOM     14  C   UNL     1       6.626   4.257  15.446  0.00  0.00    +0.000 A 
ATOM     15  C   UNL     1       5.401   3.678  15.744  0.00  0.00    +0.000 A 
ATOM     16  C   UNL     1       4.517   4.337  16.594  0.00  0.00    +0.000 A 
ATOM     17  C   UNL     1       4.837   5.591  17.158  0.00  0.00    +0.000 A 
BRANCH  12  19
ATOM     18  C   UNL     1       7.698   7.693  17.643  0.00  0.00    +0.000 C 
ATOM     19  O   UNL     1       6.337   7.445  17.299  0.00  0.00    +0.000 OA
ENDBRANCH  12  19
ENDBRANCH   1  17
BRANCH   8  20
ATOM     20  N   UNL     1      -0.382  11.386  21.653  0.00  0.00    +0.000 NA
ATOM     21  C   UNL     1       0.168  12.405  20.745  0.00  0.00    +0.000 C 
ATOM     22  C   UNL     1       0.573  13.693  21.460  0.00  0.00    +0.000 C 
ATOM     23  C   UNL     1      -0.612  14.262  22.223  0.00  0.00    +0.000 C 
ATOM     24  C   UNL     1      -1.080  13.230  23.233  0.00  0.00    +0.000 C 
ATOM     25  C   UNL     1      -1.411  11.897  22.558  0.00  0.00    +0.000 C 
ENDBRANCH   8  20
TORSDOF 3
ENDMDL
MODEL 5
REMARK VINA RESULT:      -7.3      1.960      3.257
REMARK  Name = 
REMARK  4 active torsions:
REMARK  status: ('A' for Active; 'I' for Inactive)
REMARK    1  A    between atoms: C_1  and  O_2
REMARK    2  A    between atoms: O_2  and  C_3
REMARK    3  A    between atoms: C_8  and  C_9
REMARK    4  A    between atoms: C_16  and  N_17
REMARK                            x       y       z     vdW  Elec       q    Type
REMARK                         _______ _______ _______ _____ _____    ______ ____
ROOT
ATOM      1  C   UNL     1       2.682   7.377  18.242  0.00  0.00    +0.000 A 
ATOM      2  N   UNL     1       2.511   8.414  17.449  0.00  0.00    +0.000 NA
ATOM      3  N   UNL     1       1.773   9.413  18.035  0.00  0.00    +0.000 NA
ATOM      4  C   UNL     1       1.385   9.128  19.263  0.00  0.00    +0.000 A 
ATOM      5  N   UNL     1       0.678   9.991  20.054  0.00  0.00    +0.000 N 
ATOM      6  C   UNL     1       0.029  11.121  19.389  0.00  0.00    +0.000 C 
ATOM      7  C   UNL     1       0.015  12.320  20.324  0.00  0.00    +0.000 C 
ATOM      8  C   UNL     1      -0.590  12.034  21.715  0.00  0.00    +0.000 C 
ATOM      9  C   UNL     1       0.063  10.766  22.295  0.00  0.00    +0.000 C 
ATOM     10  C   UNL     1       0.114   9.578  21.336  0.00  0.00    +0.000 C 
ATOM     11  S   UNL     1       1.905   7.554  19.759  0.00  0.00    +0.000 S 
ENDROOT
BRANCH   1  17
ATOM     12  C   UNL     1       4.646   5.987  17.380  0.00  0.00    +0.000 A 
ATOM     13  C   UNL     1       5.151   4.712  17.082  0.00  0.00    +0.000 A 
ATOM     14  C   UNL     1       4.332   3.583  17.150  0.00  0.00    +0.000 A 
ATOM     15  C   UNL     1       3.001   3.712  17.520  0.00  0.00    +0.000 A 
ATOM     16  C   UNL     1       2.499   4.968  17.854  0.00  0.00    +0.000 A 
ATOM     17  C   UNL     1       3.315   6.119  17.818  0.00  0.00    +0.000 A 
BRANCH  12  19
ATOM     18  C   UNL     1       6.830   6.922  17.372  0.00  0.00    +0.000 C 
ATOM     19  O   UNL     1       5.421   7.115  17.287  0.00  0.00    +0.000 OA
ENDBRANCH  12  19
ENDBRANCH   1  17
BRANCH   8  20
ATOM     20  N   UNL     1      -2.071  12.092  21.860  0.00  0.00    +0.000 NA
ATOM     21  C   UNL     1      -2.464  12.535  23.206  0.00  0.00    +0.000 C 
ATOM     22  C   UNL     1      -3.976  12.543  23.420  0.00  0.00    +0.000 C 
ATOM     23  C   UNL     1      -4.649  13.412  22.370  0.00  0.00    +0.000 C 
ATOM     24  C   UNL     1      -4.319  12.856  20.996  0.00  0.00    +0.000 C 
ATOM     25  C   UNL     1      -2.807  12.754  20.783  0.00  0.00    +0.000 C 
ENDBRANCH   8  20
TORSDOF 3
ENDMDL
MODEL 6
REMARK VINA RESULT:      -7.1      1.986      3.003
REMARK  Name = 
REMARK  4 active torsions:
REMARK  status: ('A' for Active; 'I' for Inactive)
REMARK    1  A    between atoms: C_1  and  O_2
REMARK    2  A    between atoms: O_2  and  C_3
REMARK    3  A    between atoms: C_8  and  C_9
REMARK    4  A    between atoms: C_16  and  N_17
REMARK                            x       y       z     vdW  Elec       q    Type
REMARK                         _______ _______ _______ _____ _____    ______ ____
ROOT
ATOM      1  C   UNL     1       2.558   7.590  18.267  0.00  0.00    +0.000 A 
ATOM      2  N   UNL     1       2.293   8.599  17.466  0.00  0.00    +0.000 NA
ATOM      3  N   UNL     1       1.525   9.566  18.066  0.00  0.00    +0.000 NA
ATOM      4  C   UNL     1       1.206   9.284  19.314  0.00  0.00    +0.000 A 
ATOM      5  N   UNL     1       0.485  10.120  20.121  0.00  0.00    +0.000 N 
ATOM      6  C   UNL     1      -0.256  11.198  19.465  0.00  0.00    +0.000 C 
ATOM      7  C   UNL     1      -0.299  12.412  20.380  0.00  0.00    +0.000 C 
ATOM      8  C   UNL     1      -0.827  12.120  21.801  0.00  0.00    +0.000 C 
ATOM      9  C   UNL     1      -0.077  10.903  22.373  0.00  0.00    +0.000 C 
ATOM     10  C   UNL     1       0.002   9.701  21.433  0.00  0.00    +0.000 C 
ATOM     11  S   UNL     1       1.838   7.752  19.814  0.00  0.00    +0.000 S 
ENDROOT
BRANCH   1  17
ATOM     12  C   UNL     1       2.719   5.060  17.945  0.00  0.00    +0.000 A 
ATOM     13  C   UNL     1       3.443   3.979  17.420  0.00  0.00    +0.000 A 
ATOM     14  C   UNL     1       4.706   4.170  16.853  0.00  0.00    +0.000 A 
ATOM     15  C   UNL     1       5.257   5.442  16.800  0.00  0.00    +0.000 A 
ATOM     16  C   UNL     1       4.531   6.527  17.285  0.00  0.00    +0.000 A 
ATOM     17  C   UNL     1       3.243   6.362  17.838  0.00  0.00    +0.000 A 
BRANCH  12  19
ATOM     18  C   UNL     1       1.259   3.632  19.159  0.00  0.00    +0.000 C 
ATOM     19  O   UNL     1       1.494   4.893  18.538  0.00  0.00    +0.000 OA
ENDBRANCH  12  19
ENDBRANCH   1  17
BRANCH   8  20
ATOM     20  N   UNL     1      -2.300  12.096  22.010  0.00  0.00    +0.000 NA
ATOM     21  C   UNL     1      -2.658  12.501  23.378  0.00  0.00    +0.000 C 
ATOM     22  C   UNL     1      -4.157  12.425  23.656  0.00  0.00    +0.000 C 
ATOM     23  C   UNL     1      -4.920  13.269  22.649  0.00  0.00    +0.000 C 
ATOM     24  C   UNL     1      -4.621  12.748  21.254  0.00  0.00    +0.000 C 
ATOM     25  C   UNL     1      -3.117  12.731  20.975  0.00  0.00    +0.000 C 
ENDBRANCH   8  20
TORSDOF 3
ENDMDL
MODEL 7
REMARK VINA RESULT:      -7.1      1.288      1.517
REMARK  Name = 
REMARK  4 active torsions:
REMARK  status: ('A' for Active; 'I' for Inactive)
REMARK    1  A    between atoms: C_1  and  O_2
REMARK    2  A    between atoms: O_2  and  C_3
REMARK    3  A    between atoms: C_8  and  C_9
REMARK    4  A    between atoms: C_16  and  N_17
REMARK                            x       y       z     vdW  Elec       q    Type
REMARK                         _______ _______ _______ _____ _____    ______ ____
ROOT
ATOM      1  C   UNL     1       2.812   6.881  18.478  0.00  0.00    +0.000 A 
ATOM      2  N   UNL     1       2.632   6.686  19.767  0.00  0.00    +0.000 NA
ATOM      3  N   UNL     1       1.915   7.696  20.361  0.00  0.00    +0.000 NA
ATOM      4  C   UNL     1       1.562   8.652  19.523  0.00  0.00    +0.000 A 
ATOM      5  N   UNL     1       0.807   9.734  19.883  0.00  0.00    +0.000 N 
ATOM      6  C   UNL     1       0.693  10.018  21.314  0.00  0.00    +0.000 C 
ATOM      7  C   UNL     1      -0.675  10.616  21.604  0.00  0.00    +0.000 C 
ATOM      8  C   UNL     1      -1.030  11.841  20.735  0.00  0.00    +0.000 C 
ATOM      9  C   UNL     1      -0.772  11.499  19.256  0.00  0.00    +0.000 C 
ATOM     10  C   UNL     1       0.585  10.857  18.976  0.00  0.00    +0.000 C 
ATOM     11  S   UNL     1       2.137   8.354  17.919  0.00  0.00    +0.000 S 
ENDROOT
BRANCH   1  17
ATOM     12  C   UNL     1       3.564   4.624  17.544  0.00  0.00    +0.000 A 
ATOM     13  C   UNL     1       4.378   3.933  16.634  0.00  0.00    +0.000 A 
ATOM     14  C   UNL     1       5.323   4.611  15.861  0.00  0.00    +0.000 A 
ATOM     15  C   UNL     1       5.465   5.985  15.986  0.00  0.00    +0.000 A 
ATOM     16  C   UNL     1       4.638   6.685  16.860  0.00  0.00    +0.000 A 
ATOM     17  C   UNL     1       3.657   6.026  17.631  0.00  0.00    +0.000 A 
BRANCH  12  19
ATOM     18  C   UNL     1       2.281   2.662  17.933  0.00  0.00    +0.000 C 
ATOM     19  O   UNL     1       2.653   3.977  18.339  0.00  0.00    +0.000 OA
ENDBRANCH  12  19
ENDBRANCH   1  17
BRANCH   8  20
ATOM     20  N   UNL     1      -0.522  13.174  21.162  0.00  0.00    +0.000 NA
ATOM     21  C   UNL     1      -0.787  14.204  20.145  0.00  0.00    +0.000 C 
ATOM     22  C   UNL     1      -0.220  15.573  20.513  0.00  0.00    +0.000 C 
ATOM     23  C   UNL     1      -0.764  16.020  21.860  0.00  0.00    +0.000 C 
ATOM     24  C   UNL     1      -0.370  14.994  22.907  0.00  0.00    +0.000 C 
ATOM     25  C   UNL     1      -0.850  13.592  22.524  0.00  0.00    +0.000 C 
ENDBRANCH   8  20
TORSDOF 3
ENDMDL
MODEL 8
REMARK VINA RESULT:      -7.1      2.578      3.991
REMARK  Name = 
REMARK  4 active torsions:
REMARK  status: ('A' for Active; 'I' for Inactive)
REMARK    1  A    between atoms: C_1  and  O_2
REMARK    2  A    between atoms: O_2  and  C_3
REMARK    3  A    between atoms: C_8  and  C_9
REMARK    4  A    between atoms: C_16  and  N_17
REMARK                            x       y       z     vdW  Elec       q    Type
REMARK                         _______ _______ _______ _____ _____    ______ ____
ROOT
ATOM      1  C   UNL     1       1.778   8.465  18.829  0.00  0.00    +0.000 A 
ATOM      2  N   UNL     1       1.163   9.198  17.926  0.00  0.00    +0.000 NA
ATOM      3  N   UNL     1       0.275  10.087  18.479  0.00  0.00    +0.000 NA
ATOM      4  C   UNL     1       0.216  10.019  19.795  0.00  0.00    +0.000 A 
ATOM      5  N   UNL     1      -0.565  10.838  20.562  0.00  0.00    +0.000 N 
ATOM      6  C   UNL     1      -1.634  11.568  19.878  0.00  0.00    +0.000 C 
ATOM      7  C   UNL     1      -1.842  12.914  20.554  0.00  0.00    +0.000 C 
ATOM      8  C   UNL     1      -2.074  12.830  22.078  0.00  0.00    +0.000 C 
ATOM      9  C   UNL     1      -0.976  11.952  22.705  0.00  0.00    +0.000 C 
ATOM     10  C   UNL     1      -0.739  10.620  21.995  0.00  0.00    +0.000 C 
ATOM     11  S   UNL     1       1.268   8.801  20.430  0.00  0.00    +0.000 S 
ENDROOT
BRANCH   1  17
ATOM     12  C   UNL     1       2.675   6.091  19.141  0.00  0.00    +0.000 A 
ATOM     13  C   UNL     1       3.529   5.080  18.677  0.00  0.00    +0.000 A 
ATOM     14  C   UNL     1       4.426   5.323  17.634  0.00  0.00    +0.000 A 
ATOM     15  C   UNL     1       4.477   6.575  17.040  0.00  0.00    +0.000 A 
ATOM     16  C   UNL     1       3.608   7.576  17.469  0.00  0.00    +0.000 A 
ATOM     17  C   UNL     1       2.676   7.346  18.502  0.00  0.00    +0.000 A 
BRANCH  12  19
ATOM     18  C   UNL     1       1.637   4.539  20.610  0.00  0.00    +0.000 C 
ATOM     19  O   UNL     1       1.811   5.888  20.187  0.00  0.00    +0.000 OA
ENDBRANCH  12  19
ENDBRANCH   1  17
BRANCH   8  20
ATOM     20  N   UNL     1      -3.452  12.541  22.562  0.00  0.00    +0.000 NA
ATOM     21  C   UNL     1      -3.570  12.752  24.013  0.00  0.00    +0.000 C 
ATOM     22  C   UNL     1      -4.951  12.400  24.562  0.00  0.00    +0.000 C 
ATOM     23  C   UNL     1      -6.022  13.194  23.834  0.00  0.00    +0.000 C 
ATOM     24  C   UNL     1      -5.950  12.863  22.353  0.00  0.00    +0.000 C 
ATOM     25  C   UNL     1      -4.551  13.123  21.791  0.00  0.00    +0.000 C 
ENDBRANCH   8  20
TORSDOF 3
ENDMDL
MODEL 9
REMARK VINA RESULT:      -7.0      3.122      9.685
REMARK  Name = 
REMARK  4 active torsions:
REMARK  status: ('A' for Active; 'I' for Inactive)
REMARK    1  A    between atoms: C_1  and  O_2
REMARK    2  A    between atoms: O_2  and  C_3
REMARK    3  A    between atoms: C_8  and  C_9
REMARK    4  A    between atoms: C_16  and  N_17
REMARK                            x       y       z     vdW  Elec       q    Type
REMARK                         _______ _______ _______ _____ _____    ______ ____
ROOT
ATOM      1  C   UNL     1      -0.790  11.574  21.467  0.00  0.00    +0.000 A 
ATOM      2  N   UNL     1      -0.671  11.884  20.194  0.00  0.00    +0.000 NA
ATOM      3  N   UNL     1       0.078  10.971  19.493  0.00  0.00    +0.000 NA
ATOM      4  C   UNL     1       0.528   9.980  20.238  0.00  0.00    +0.000 A 
ATOM      5  N   UNL     1       1.259   8.933  19.747  0.00  0.00    +0.000 N 
ATOM      6  C   UNL     1       1.859   9.107  18.424  0.00  0.00    +0.000 C 
ATOM      7  C   UNL     1       1.899   7.767  17.706  0.00  0.00    +0.000 C 
ATOM      8  C   UNL     1       2.574   6.635  18.510  0.00  0.00    +0.000 C 
ATOM      9  C   UNL     1       1.967   6.595  19.925  0.00  0.00    +0.000 C 
ATOM     10  C   UNL     1       1.887   7.951  20.624  0.00  0.00    +0.000 C 
ATOM     11  S   UNL     1       0.054  10.146  21.894  0.00  0.00    +0.000 S 
ENDROOT
BRANCH   1  17
ATOM     12  C   UNL     1      -0.863  13.632  22.981  0.00  0.00    +0.000 A 
ATOM     13  C   UNL     1      -1.610  14.419  23.871  0.00  0.00    +0.000 A 
ATOM     14  C   UNL     1      -2.873  14.010  24.303  0.00  0.00    +0.000 A 
ATOM     15  C   UNL     1      -3.408  12.813  23.848  0.00  0.00    +0.000 A 
ATOM     16  C   UNL     1      -2.691  12.042  22.937  0.00  0.00    +0.000 A 
ATOM     17  C   UNL     1      -1.424  12.448  22.466  0.00  0.00    +0.000 A 
BRANCH  12  19
ATOM     18  C   UNL     1       0.579  15.370  22.244  0.00  0.00    +0.000 C 
ATOM     19  O   UNL     1       0.394  13.995  22.570  0.00  0.00    +0.000 OA
ENDBRANCH  12  19
ENDBRANCH   1  17
BRANCH   8  20
ATOM     20  N   UNL     1       4.058   6.534  18.468  0.00  0.00    +0.000 NA
ATOM     21  C   UNL     1       4.539   5.350  19.197  0.00  0.00    +0.000 C 
ATOM     22  C   UNL     1       6.062   5.245  19.237  0.00  0.00    +0.000 C 
ATOM     23  C   UNL     1       6.625   5.250  17.826  0.00  0.00    +0.000 C 
ATOM     24  C   UNL     1       6.208   6.540  17.141  0.00  0.00    +0.000 C 
ATOM     25  C   UNL     1       4.688   6.717  17.161  0.00  0.00    +0.000 C 
ENDBRANCH   8  20
TORSDOF 3
ENDMDL
