MODEL 1
REMARK VINA RESULT:      -9.0      0.000      0.000
REMARK  Name = 
REMARK  4 active torsions:
REMARK  status: ('A' for Active; 'I' for Inactive)
REMARK    1  A    between atoms: C_2  and  C_3
REMARK    2  A    between atoms: C_3  and  C_4
REMARK    3  A    between atoms: C_4  and  N_5
REMARK    4  A    between atoms: C_18  and  C_19
REMARK                            x       y       z     vdW  Elec       q    Type
REMARK                         _______ _______ _______ _____ _____    ______ ____
ROOT
ATOM      1  C   UNL     1       0.799   9.275  19.191  0.00  0.00    +0.000 C 
ATOM      2  C   UNL     1       0.170  10.457  19.338  0.00  0.00    +0.000 C 
ATOM      3  C   UNL     1      -0.216  10.577  20.753  0.00  0.00    +0.000 A 
ATOM      4  C   UNL     1      -0.876  11.611  21.402  0.00  0.00    +0.000 A 
ATOM      5  C   UNL     1      -1.127  11.488  22.771  0.00  0.00    +0.000 A 
ATOM      6  C   UNL     1      -0.716  10.343  23.472  0.00  0.00    +0.000 A 
ATOM      7  C   UNL     1      -0.046   9.302  22.816  0.00  0.00    +0.000 A 
ATOM      8  C   UNL     1       0.198   9.432  21.459  0.00  0.00    +0.000 A 
ATOM      9  C   UNL     1       0.867   8.579  20.468  0.00  0.00    +0.000 C 
ATOM     10  C   UNL     1       1.459   7.398  20.698  0.00  0.00    +0.000 C 
ENDROOT
BRANCH  10  11
ATOM     11  C   UNL     1       2.150   6.615  19.655  0.00  0.00    +0.000 A 
ATOM     12  C   UNL     1       2.985   7.306  18.764  0.00  0.00    +0.000 A 
ATOM     13  C   UNL     1       3.679   6.625  17.766  0.00  0.00    +0.000 A 
ATOM     14  C   UNL     1       3.548   5.243  17.650  0.00  0.00    +0.000 A 
ATOM     15  C   UNL     1       2.727   4.527  18.538  0.00  0.00    +0.000 A 
ATOM     16  C   UNL     1       2.586   3.139  18.446  0.00  0.00    +0.000 A 
ATOM     17  N   UNL     1       1.821   2.387  19.267  0.00  0.00    +0.000 NA
ATOM     18  C   UNL     1       1.159   3.048  20.236  0.00  0.00    +0.000 A 
ATOM     19  C   UNL     1       1.223   4.421  20.419  0.00  0.00    +0.000 A 
ATOM     20  C   UNL     1       2.018   5.202  19.555  0.00  0.00    +0.000 A 
ENDBRANCH  10  11
BRANCH   2  21
ATOM     21  C   UNL     1      -0.101  11.527  18.333  0.00  0.00    +0.000 C 
BRANCH  21  22
ATOM     22  C   UNL     1      -1.592  11.773  18.029  0.00  0.00    +0.000 C 
BRANCH  22  23
ATOM     23  N   UNL     1      -2.377  10.527  17.908  0.00  0.00    +0.000 NA
ATOM     24  C   UNL     1      -2.130   9.869  16.601  0.00  0.00    +0.000 C 
ATOM     25  C   UNL     1      -2.796  10.569  15.398  0.00  0.00    +0.000 C 
ATOM     26  O   UNL     1      -4.192  10.817  15.608  0.00  0.00    +0.000 OA
ATOM     27  C   UNL     1      -4.415  11.528  16.831  0.00  0.00    +0.000 C 
ATOM     28  C   UNL     1      -3.838  10.743  18.015  0.00  0.00    +0.000 C 
ENDBRANCH  22  23
ENDBRANCH  21  22
ENDBRANCH   2  21
TORSDOF 4
ENDMDL
MODEL 2
REMARK VINA RESULT:      -8.9      3.727      8.166
REMARK  Name = 
REMARK  4 active torsions:
REMARK  status: ('A' for Active; 'I' for Inactive)
REMARK    1  A    between atoms: C_2  and  C_3
REMARK    2  A    between atoms: C_3  and  C_4
REMARK    3  A    between atoms: C_4  and  N_5
REMARK    4  A    between atoms: C_18  and  C_19
REMARK                            x       y       z     vdW  Elec       q    Type
REMARK                         _______ _______ _______ _____ _____    ______ ____
ROOT
ATOM      1  C   UNL     1       2.904   6.816  18.774  0.00  0.00    +0.000 C 
ATOM      2  C   UNL     1       3.564   5.744  18.294  0.00  0.00    +0.000 C 
ATOM      3  C   UNL     1       3.293   4.618  19.202  0.00  0.00    +0.000 A 
ATOM      4  C   UNL     1       3.736   3.304  19.134  0.00  0.00    +0.000 A 
ATOM      5  C   UNL     1       3.332   2.410  20.128  0.00  0.00    +0.000 A 
ATOM      6  C   UNL     1       2.493   2.835  21.171  0.00  0.00    +0.000 A 
ATOM      7  C   UNL     1       2.043   4.160  21.236  0.00  0.00    +0.000 A 
ATOM      8  C   UNL     1       2.449   5.039  20.247  0.00  0.00    +0.000 A 
ATOM      9  C   UNL     1       2.176   6.458  19.984  0.00  0.00    +0.000 C 
ATOM     10  C   UNL     1       1.381   7.267  20.700  0.00  0.00    +0.000 C 
ENDROOT
BRANCH  10  11
ATOM     11  C   UNL     1       1.122   8.677  20.349  0.00  0.00    +0.000 A 
ATOM     12  C   UNL     1       1.485   9.108  19.064  0.00  0.00    +0.000 A 
ATOM     13  C   UNL     1       1.254  10.422  18.663  0.00  0.00    +0.000 A 
ATOM     14  C   UNL     1       0.653  11.320  19.542  0.00  0.00    +0.000 A 
ATOM     15  C   UNL     1       0.270  10.908  20.830  0.00  0.00    +0.000 A 
ATOM     16  C   UNL     1      -0.341  11.790  21.727  0.00  0.00    +0.000 A 
ATOM     17  N   UNL     1      -0.741  11.462  22.976  0.00  0.00    +0.000 NA
ATOM     18  C   UNL     1      -0.523  10.189  23.357  0.00  0.00    +0.000 A 
ATOM     19  C   UNL     1       0.076   9.232  22.552  0.00  0.00    +0.000 A 
ATOM     20  C   UNL     1       0.496   9.580  21.252  0.00  0.00    +0.000 A 
ENDBRANCH  10  11
BRANCH   2  21
ATOM     21  C   UNL     1       4.404   5.609  17.067  0.00  0.00    +0.000 C 
BRANCH  21  22
ATOM     22  C   UNL     1       5.266   6.841  16.729  0.00  0.00    +0.000 C 
BRANCH  22  23
ATOM     23  N   UNL     1       6.648   6.496  16.335  0.00  0.00    +0.000 NA
ATOM     24  C   UNL     1       6.843   5.026  16.312  0.00  0.00    +0.000 C 
ATOM     25  C   UNL     1       6.931   4.372  17.708  0.00  0.00    +0.000 C 
ATOM     26  O   UNL     1       7.887   5.019  18.560  0.00  0.00    +0.000 OA
ATOM     27  C   UNL     1       7.639   6.426  18.643  0.00  0.00    +0.000 C 
ATOM     28  C   UNL     1       7.673   7.056  17.245  0.00  0.00    +0.000 C 
ENDBRANCH  22  23
ENDBRANCH  21  22
ENDBRANCH   2  21
TORSDOF 4
ENDMDL
MODEL 3
REMARK VINA RESULT:      -8.5      3.124      8.049
REMARK  Name = 
REMARK  4 active torsions:
REMARK  status: ('A' for Active; 'I' for Inactive)
REMARK    1  A    between atoms: C_2  and  C_3
REMARK    2  A    between atoms: C_3  and  C_4
REMARK    3  A    between atoms: C_4  and  N_5
REMARK    4  A    between atoms: C_18  and  C_19
REMARK                            x       y       z     vdW  Elec       q    Type
REMARK                         _______ _______ _______ _____ _____    ______ ____
ROOT
ATOM      1  C   UNL     1       1.826   6.374  18.026  0.00  0.00    +0.000 C 
ATOM      2  C   UNL     1       2.382   5.182  17.734  0.00  0.00    +0.000 C 
ATOM      3  C   UNL     1       3.792   5.425  17.391  0.00  0.00    +0.000 A 
ATOM      4  C   UNL     1       4.780   4.521  17.030  0.00  0.00    +0.000 A 
ATOM      5  C   UNL     1       6.060   5.005  16.753  0.00  0.00    +0.000 A 
ATOM      6  C   UNL     1       6.338   6.378  16.842  0.00  0.00    +0.000 A 
ATOM      7  C   UNL     1       5.341   7.290  17.211  0.00  0.00    +0.000 A 
ATOM      8  C   UNL     1       4.075   6.801  17.484  0.00  0.00    +0.000 A 
ATOM      9  C   UNL     1       2.818   7.434  17.902  0.00  0.00    +0.000 C 
ATOM     10  C   UNL     1       2.623   8.736  18.158  0.00  0.00    +0.000 C 
ENDROOT
BRANCH  10  11
ATOM     11  C   UNL     1       1.336   9.294  18.617  0.00  0.00    +0.000 A 
ATOM     12  C   UNL     1       0.432   9.742  17.640  0.00  0.00    +0.000 A 
ATOM     13  C   UNL     1      -0.807  10.264  18.005  0.00  0.00    +0.000 A 
ATOM     14  C   UNL     1      -1.159  10.343  19.351  0.00  0.00    +0.000 A 
ATOM     15  C   UNL     1      -0.274   9.892  20.346  0.00  0.00    +0.000 A 
ATOM     16  C   UNL     1      -0.608   9.953  21.702  0.00  0.00    +0.000 A 
ATOM     17  N   UNL     1       0.188   9.532  22.710  0.00  0.00    +0.000 NA
ATOM     18  C   UNL     1       1.381   9.019  22.353  0.00  0.00    +0.000 A 
ATOM     19  C   UNL     1       1.816   8.912  21.041  0.00  0.00    +0.000 A 
ATOM     20  C   UNL     1       0.984   9.358  19.994  0.00  0.00    +0.000 A 
ENDBRANCH  10  11
BRANCH   2  21
ATOM     21  C   UNL     1       1.781   3.815  17.760  0.00  0.00    +0.000 C 
BRANCH  21  22
ATOM     22  C   UNL     1       0.989   3.477  19.038  0.00  0.00    +0.000 C 
BRANCH  22  23
ATOM     23  N   UNL     1       1.347   2.165  19.618  0.00  0.00    +0.000 NA
ATOM     24  C   UNL     1       1.263   2.199  21.099  0.00  0.00    +0.000 C 
ATOM     25  C   UNL     1       2.408   2.972  21.786  0.00  0.00    +0.000 C 
ATOM     26  O   UNL     1       3.704   2.548  21.342  0.00  0.00    +0.000 OA
ATOM     27  C   UNL     1       3.805   2.600  19.914  0.00  0.00    +0.000 C 
ATOM     28  C   UNL     1       2.720   1.728  19.272  0.00  0.00    +0.000 C 
ENDBRANCH  22  23
ENDBRANCH  21  22
ENDBRANCH   2  21
TORSDOF 4
ENDMDL
MODEL 4
REMARK VINA RESULT:      -8.5      3.558      8.006
REMARK  Name = 
REMARK  4 active torsions:
REMARK  status: ('A' for Active; 'I' for Inactive)
REMARK    1  A    between atoms: C_2  and  C_3
REMARK    2  A    between atoms: C_3  and  C_4
REMARK    3  A    between atoms: C_4  and  N_5
REMARK    4  A    between atoms: C_18  and  C_19
REMARK                            x       y       z     vdW  Elec       q    Type
REMARK                         _______ _______ _______ _____ _____    ______ ____
ROOT
ATOM      1  C   UNL     1       2.402   5.933  18.508  0.00  0.00    +0.000 C 
ATOM      2  C   UNL     1       2.728   4.686  18.116  0.00  0.00    +0.000 C 
ATOM      3  C   UNL     1       2.604   3.808  19.291  0.00  0.00    +0.000 A 
ATOM      4  C   UNL     1       2.820   2.442  19.397  0.00  0.00    +0.000 A 
ATOM      5  C   UNL     1       2.629   1.830  20.638  0.00  0.00    +0.000 A 
ATOM      6  C   UNL     1       2.223   2.584  21.750  0.00  0.00    +0.000 A 
ATOM      7  C   UNL     1       2.000   3.963  21.641  0.00  0.00    +0.000 A 
ATOM      8  C   UNL     1       2.193   4.561  20.407  0.00  0.00    +0.000 A 
ATOM      9  C   UNL     1       2.047   5.939  19.920  0.00  0.00    +0.000 C 
ATOM     10  C   UNL     1       1.633   6.999  20.630  0.00  0.00    +0.000 C 
ENDROOT
BRANCH  10  11
ATOM     11  C   UNL     1       1.471   8.351  20.059  0.00  0.00    +0.000 A 
ATOM     12  C   UNL     1       1.913   8.562  18.743  0.00  0.00    +0.000 A 
ATOM     13  C   UNL     1       1.775   9.810  18.139  0.00  0.00    +0.000 A 
ATOM     14  C   UNL     1       1.191  10.861  18.842  0.00  0.00    +0.000 A 
ATOM     15  C   UNL     1       0.732  10.670  20.157  0.00  0.00    +0.000 A 
ATOM     16  C   UNL     1       0.135  11.708  20.880  0.00  0.00    +0.000 A 
ATOM     17  N   UNL     1      -0.335  11.596  22.141  0.00  0.00    +0.000 NA
ATOM     18  C   UNL     1      -0.208  10.386  22.720  0.00  0.00    +0.000 A 
ATOM     19  C   UNL     1       0.368   9.288  22.098  0.00  0.00    +0.000 A 
ATOM     20  C   UNL     1       0.862   9.412  20.784  0.00  0.00    +0.000 A 
ENDBRANCH  10  11
BRANCH   2  21
ATOM     21  C   UNL     1       3.116   4.179  16.767  0.00  0.00    +0.000 C 
BRANCH  21  22
ATOM     22  C   UNL     1       4.606   3.814  16.612  0.00  0.00    +0.000 C 
BRANCH  22  23
ATOM     23  N   UNL     1       5.309   4.641  15.608  0.00  0.00    +0.000 NA
ATOM     24  C   UNL     1       6.737   4.254  15.509  0.00  0.00    +0.000 C 
ATOM     25  C   UNL     1       7.607   4.712  16.699  0.00  0.00    +0.000 C 
ATOM     26  O   UNL     1       7.458   6.109  16.985  0.00  0.00    +0.000 OA
ATOM     27  C   UNL     1       6.081   6.458  17.164  0.00  0.00    +0.000 C 
ATOM     28  C   UNL     1       5.272   6.090  15.914  0.00  0.00    +0.000 C 
ENDBRANCH  22  23
ENDBRANCH  21  22
ENDBRANCH   2  21
TORSDOF 4
ENDMDL
MODEL 5
REMARK VINA RESULT:      -8.4      3.731      6.531
REMARK  Name = 
REMARK  4 active torsions:
REMARK  status: ('A' for Active; 'I' for Inactive)
REMARK    1  A    between atoms: C_2  and  C_3
REMARK    2  A    between atoms: C_3  and  C_4
REMARK    3  A    between atoms: C_4  and  N_5
REMARK    4  A    between atoms: C_18  and  C_19
REMARK                            x       y       z     vdW  Elec       q    Type
REMARK                         _______ _______ _______ _____ _____    ______ ____
ROOT
ATOM      1  C   UNL     1       3.184   6.382  18.701  0.00  0.00    +0.000 C 
ATOM      2  C   UNL     1       2.222   6.696  19.591  0.00  0.00    +0.000 C 
ATOM      3  C   UNL     1       1.804   8.080  19.318  0.00  0.00    +0.000 A 
ATOM      4  C   UNL     1       0.841   8.852  19.953  0.00  0.00    +0.000 A 
ATOM      5  C   UNL     1       0.623  10.154  19.500  0.00  0.00    +0.000 A 
ATOM      6  C   UNL     1       1.363  10.668  18.423  0.00  0.00    +0.000 A 
ATOM      7  C   UNL     1       2.332   9.887  17.780  0.00  0.00    +0.000 A 
ATOM      8  C   UNL     1       2.541   8.596  18.236  0.00  0.00    +0.000 A 
ATOM      9  C   UNL     1       3.434   7.510  17.814  0.00  0.00    +0.000 C 
ATOM     10  C   UNL     1       4.296   7.535  16.786  0.00  0.00    +0.000 C 
ENDROOT
BRANCH  10  11
ATOM     11  C   UNL     1       5.134   6.385  16.396  0.00  0.00    +0.000 A 
ATOM     12  C   UNL     1       4.903   5.804  15.139  0.00  0.00    +0.000 A 
ATOM     13  C   UNL     1       5.671   4.725  14.703  0.00  0.00    +0.000 A 
ATOM     14  C   UNL     1       6.680   4.217  15.517  0.00  0.00    +0.000 A 
ATOM     15  C   UNL     1       6.937   4.790  16.775  0.00  0.00    +0.000 A 
ATOM     16  C   UNL     1       7.950   4.302  17.606  0.00  0.00    +0.000 A 
ATOM     17  N   UNL     1       8.256   4.806  18.822  0.00  0.00    +0.000 NA
ATOM     18  C   UNL     1       7.519   5.854  19.237  0.00  0.00    +0.000 A 
ATOM     19  C   UNL     1       6.490   6.416  18.497  0.00  0.00    +0.000 A 
ATOM     20  C   UNL     1       6.170   5.883  17.232  0.00  0.00    +0.000 A 
ENDBRANCH  10  11
BRANCH   2  21
ATOM     21  C   UNL     1       1.602   5.861  20.662  0.00  0.00    +0.000 C 
BRANCH  21  22
ATOM     22  C   UNL     1       2.394   4.594  21.041  0.00  0.00    +0.000 C 
BRANCH  22  23
ATOM     23  N   UNL     1       1.595   3.355  20.946  0.00  0.00    +0.000 NA
ATOM     24  C   UNL     1       2.473   2.164  20.842  0.00  0.00    +0.000 C 
ATOM     25  C   UNL     1       3.157   1.992  19.469  0.00  0.00    +0.000 C 
ATOM     26  O   UNL     1       2.229   2.060  18.378  0.00  0.00    +0.000 OA
ATOM     27  C   UNL     1       1.443   3.255  18.439  0.00  0.00    +0.000 C 
ATOM     28  C   UNL     1       0.691   3.330  19.773  0.00  0.00    +0.000 C 
ENDBRANCH  22  23
ENDBRANCH  21  22
ENDBRANCH   2  21
TORSDOF 4
ENDMDL
MODEL 6
REMARK VINA RESULT:      -8.3      3.509      8.203
REMARK  Name = 
REMARK  4 active torsions:
REMARK  status: ('A' for Active; 'I' for Inactive)
REMARK    1  A    between atoms: C_2  and  C_3
REMARK    2  A    between atoms: C_3  and  C_4
REMARK    3  A    between atoms: C_4  and  N_5
REMARK    4  A    between atoms: C_18  and  C_19
REMARK                            x       y       z     vdW  Elec       q    Type
REMARK                         _______ _______ _______ _____ _____    ______ ____
ROOT
ATOM      1  C   UNL     1       2.974   7.005  19.008  0.00  0.00    +0.000 C 
ATOM      2  C   UNL     1       3.728   5.969  18.592  0.00  0.00    +0.000 C 
ATOM      3  C   UNL     1       3.394   4.813  19.439  0.00  0.00    +0.000 A 
ATOM      4  C   UNL     1       3.892   3.518  19.401  0.00  0.00    +0.000 A 
ATOM      5  C   UNL     1       3.406   2.588  20.321  0.00  0.00    +0.000 A 
ATOM      6  C   UNL     1       2.431   2.957  21.262  0.00  0.00    +0.000 A 
ATOM      7  C   UNL     1       1.925   4.263  21.298  0.00  0.00    +0.000 A 
ATOM      8  C   UNL     1       2.414   5.179  20.381  0.00  0.00    +0.000 A 
ATOM      9  C   UNL     1       2.120   6.593  20.113  0.00  0.00    +0.000 C 
ATOM     10  C   UNL     1       1.214   7.356  20.743  0.00  0.00    +0.000 C 
ENDROOT
BRANCH  10  11
ATOM     11  C   UNL     1       0.945   8.763  20.389  0.00  0.00    +0.000 A 
ATOM     12  C   UNL     1       1.316   9.198  19.107  0.00  0.00    +0.000 A 
ATOM     13  C   UNL     1       1.076  10.510  18.704  0.00  0.00    +0.000 A 
ATOM     14  C   UNL     1       0.458  11.402  19.577  0.00  0.00    +0.000 A 
ATOM     15  C   UNL     1       0.068  10.987  20.862  0.00  0.00    +0.000 A 
ATOM     16  C   UNL     1      -0.560  11.863  21.753  0.00  0.00    +0.000 A 
ATOM     17  N   UNL     1      -0.968  11.532  22.998  0.00  0.00    +0.000 NA
ATOM     18  C   UNL     1      -0.742  10.260  23.381  0.00  0.00    +0.000 A 
ATOM     19  C   UNL     1      -0.126   9.309  22.582  0.00  0.00    +0.000 A 
ATOM     20  C   UNL     1       0.302   9.661  21.286  0.00  0.00    +0.000 A 
ENDBRANCH  10  11
BRANCH   2  21
ATOM     21  C   UNL     1       4.714   5.892  17.474  0.00  0.00    +0.000 C 
BRANCH  21  22
ATOM     22  C   UNL     1       4.492   4.730  16.487  0.00  0.00    +0.000 C 
BRANCH  22  23
ATOM     23  N   UNL     1       5.678   3.863  16.328  0.00  0.00    +0.000 NA
ATOM     24  C   UNL     1       6.854   4.439  17.024  0.00  0.00    +0.000 C 
ATOM     25  C   UNL     1       7.480   5.659  16.317  0.00  0.00    +0.000 C 
ATOM     26  O   UNL     1       7.756   5.412  14.931  0.00  0.00    +0.000 OA
ATOM     27  C   UNL     1       6.592   4.936  14.247  0.00  0.00    +0.000 C 
ATOM     28  C   UNL     1       6.068   3.658  14.914  0.00  0.00    +0.000 C 
ENDBRANCH  22  23
ENDBRANCH  21  22
ENDBRANCH   2  21
TORSDOF 4
ENDMDL
MODEL 7
REMARK VINA RESULT:      -8.3      2.792      8.049
REMARK  Name = 
REMARK  4 active torsions:
REMARK  status: ('A' for Active; 'I' for Inactive)
REMARK    1  A    between atoms: C_2  and  C_3
REMARK    2  A    between atoms: C_3  and  C_4
REMARK    3  A    between atoms: C_4  and  N_5
REMARK    4  A    between atoms: C_18  and  C_19
REMARK                            x       y       z     vdW  Elec       q    Type
REMARK                         _______ _______ _______ _____ _____    ______ ____
ROOT
ATOM      1  C   UNL     1       1.718   7.442  19.612  0.00  0.00    +0.000 C 
ATOM      2  C   UNL     1       2.361   6.260  19.683  0.00  0.00    +0.000 C 
ATOM      3  C   UNL     1       3.332   6.220  18.579  0.00  0.00    +0.000 A 
ATOM      4  C   UNL     1       4.234   5.223  18.234  0.00  0.00    +0.000 A 
ATOM      5  C   UNL     1       5.065   5.426  17.130  0.00  0.00    +0.000 A 
ATOM      6  C   UNL     1       4.988   6.616  16.389  0.00  0.00    +0.000 A 
ATOM      7  C   UNL     1       4.080   7.624  16.740  0.00  0.00    +0.000 A 
ATOM      8  C   UNL     1       3.260   7.413  17.836  0.00  0.00    +0.000 A 
ATOM      9  C   UNL     1       2.228   8.224  18.494  0.00  0.00    +0.000 C 
ATOM     10  C   UNL     1       1.846   9.464  18.154  0.00  0.00    +0.000 C 
ENDROOT
BRANCH  10  11
ATOM     11  C   UNL     1       0.826  10.235  18.890  0.00  0.00    +0.000 A 
ATOM     12  C   UNL     1       1.221  10.881  20.073  0.00  0.00    +0.000 A 
ATOM     13  C   UNL     1       0.311  11.638  20.808  0.00  0.00    +0.000 A 
ATOM     14  C   UNL     1      -1.005  11.762  20.367  0.00  0.00    +0.000 A 
ATOM     15  C   UNL     1      -1.421  11.133  19.181  0.00  0.00    +0.000 A 
ATOM     16  C   UNL     1      -2.734  11.249  18.715  0.00  0.00    +0.000 A 
ATOM     17  N   UNL     1      -3.202  10.680  17.583  0.00  0.00    +0.000 NA
ATOM     18  C   UNL     1      -2.317   9.956  16.870  0.00  0.00    +0.000 A 
ATOM     19  C   UNL     1      -0.994   9.772  17.238  0.00  0.00    +0.000 A 
ATOM     20  C   UNL     1      -0.512  10.363  18.423  0.00  0.00    +0.000 A 
ENDBRANCH  10  11
BRANCH   2  21
ATOM     21  C   UNL     1       2.216   5.152  20.673  0.00  0.00    +0.000 C 
BRANCH  21  22
ATOM     22  C   UNL     1       0.996   4.236  20.452  0.00  0.00    +0.000 C 
BRANCH  22  23
ATOM     23  N   UNL     1       1.255   2.823  20.800  0.00  0.00    +0.000 NA
ATOM     24  C   UNL     1       2.627   2.652  21.337  0.00  0.00    +0.000 C 
ATOM     25  C   UNL     1       3.744   2.739  20.276  0.00  0.00    +0.000 C 
ATOM     26  O   UNL     1       3.506   1.880  19.153  0.00  0.00    +0.000 OA
ATOM     27  C   UNL     1       2.212   2.112  18.587  0.00  0.00    +0.000 C 
ATOM     28  C   UNL     1       1.123   1.903  19.647  0.00  0.00    +0.000 C 
ENDBRANCH  22  23
ENDBRANCH  21  22
ENDBRANCH   2  21
TORSDOF 4
ENDMDL
MODEL 8
REMARK VINA RESULT:      -8.2      2.964      3.787
REMARK  Name = 
REMARK  4 active torsions:
REMARK  status: ('A' for Active; 'I' for Inactive)
REMARK    1  A    between atoms: C_2  and  C_3
REMARK    2  A    between atoms: C_3  and  C_4
REMARK    3  A    between atoms: C_4  and  N_5
REMARK    4  A    between atoms: C_18  and  C_19
REMARK                            x       y       z     vdW  Elec       q    Type
REMARK                         _______ _______ _______ _____ _____    ______ ____
ROOT
ATOM      1  C   UNL     1       1.535   9.132  18.959  0.00  0.00    +0.000 C 
ATOM      2  C   UNL     1       1.003  10.341  19.223  0.00  0.00    +0.000 C 
ATOM      3  C   UNL     1       0.465  10.296  20.592  0.00  0.00    +0.000 A 
ATOM      4  C   UNL     1      -0.171  11.289  21.323  0.00  0.00    +0.000 A 
ATOM      5  C   UNL     1      -0.591  10.998  22.622  0.00  0.00    +0.000 A 
ATOM      6  C   UNL     1      -0.371   9.726  23.175  0.00  0.00    +0.000 A 
ATOM      7  C   UNL     1       0.274   8.724  22.438  0.00  0.00    +0.000 A 
ATOM      8  C   UNL     1       0.687   9.023  21.150  0.00  0.00    +0.000 A 
ATOM      9  C   UNL     1       1.388   8.255  20.112  0.00  0.00    +0.000 C 
ATOM     10  C   UNL     1       1.840   6.996  20.215  0.00  0.00    +0.000 C 
ENDROOT
BRANCH  10  11
ATOM     11  C   UNL     1       2.575   6.303  19.140  0.00  0.00    +0.000 A 
ATOM     12  C   UNL     1       3.607   7.004  18.496  0.00  0.00    +0.000 A 
ATOM     13  C   UNL     1       4.351   6.402  17.483  0.00  0.00    +0.000 A 
ATOM     14  C   UNL     1       4.074   5.090  17.104  0.00  0.00    +0.000 A 
ATOM     15  C   UNL     1       3.053   4.365  17.742  0.00  0.00    +0.000 A 
ATOM     16  C   UNL     1       2.762   3.045  17.385  0.00  0.00    +0.000 A 
ATOM     17  N   UNL     1       1.802   2.286  17.958  0.00  0.00    +0.000 NA
ATOM     18  C   UNL     1       1.090   2.868  18.942  0.00  0.00    +0.000 A 
ATOM     19  C   UNL     1       1.291   4.170  19.376  0.00  0.00    +0.000 A 
ATOM     20  C   UNL     1       2.290   4.959  18.771  0.00  0.00    +0.000 A 
ENDBRANCH  10  11
BRANCH   2  21
ATOM     21  C   UNL     1       0.950  11.568  18.375  0.00  0.00    +0.000 C 
BRANCH  21  22
ATOM     22  C   UNL     1       2.232  12.423  18.386  0.00  0.00    +0.000 C 
BRANCH  22  23
ATOM     23  N   UNL     1       1.967  13.876  18.320  0.00  0.00    +0.000 NA
ATOM     24  C   UNL     1       3.234  14.644  18.262  0.00  0.00    +0.000 C 
ATOM     25  C   UNL     1       4.006  14.705  19.597  0.00  0.00    +0.000 C 
ATOM     26  O   UNL     1       3.182  15.128  20.692  0.00  0.00    +0.000 OA
ATOM     27  C   UNL     1       2.001  14.326  20.793  0.00  0.00    +0.000 C 
ATOM     28  C   UNL     1       1.204  14.384  19.484  0.00  0.00    +0.000 C 
ENDBRANCH  22  23
ENDBRANCH  21  22
ENDBRANCH   2  21
TORSDOF 4
ENDMDL
MODEL 9
REMARK VINA RESULT:      -8.2      3.184      8.033
REMARK  Name = 
REMARK  4 active torsions:
REMARK  status: ('A' for Active; 'I' for Inactive)
REMARK    1  A    between atoms: C_2  and  C_3
REMARK    2  A    between atoms: C_3  and  C_4
REMARK    3  A    between atoms: C_4  and  N_5
REMARK    4  A    between atoms: C_18  and  C_19
REMARK                            x       y       z     vdW  Elec       q    Type
REMARK                         _______ _______ _______ _____ _____    ______ ____
ROOT
ATOM      1  C   UNL     1       1.795   6.398  17.935  0.00  0.00    +0.000 C 
ATOM      2  C   UNL     1       2.348   5.212  17.616  0.00  0.00    +0.000 C 
ATOM      3  C   UNL     1       3.766   5.456  17.307  0.00  0.00    +0.000 A 
ATOM      4  C   UNL     1       4.755   4.556  16.935  0.00  0.00    +0.000 A 
ATOM      5  C   UNL     1       6.043   5.040  16.696  0.00  0.00    +0.000 A 
ATOM      6  C   UNL     1       6.328   6.409  16.834  0.00  0.00    +0.000 A 
ATOM      7  C   UNL     1       5.330   7.316  17.213  0.00  0.00    +0.000 A 
ATOM      8  C   UNL     1       4.056   6.826  17.447  0.00  0.00    +0.000 A 
ATOM      9  C   UNL     1       2.795   7.454  17.863  0.00  0.00    +0.000 C 
ATOM     10  C   UNL     1       2.604   8.750  18.156  0.00  0.00    +0.000 C 
ENDROOT
BRANCH  10  11
ATOM     11  C   UNL     1       1.312   9.302  18.608  0.00  0.00    +0.000 A 
ATOM     12  C   UNL     1       0.409   9.741  17.627  0.00  0.00    +0.000 A 
ATOM     13  C   UNL     1      -0.834  10.258  17.986  0.00  0.00    +0.000 A 
ATOM     14  C   UNL     1      -1.191  10.338  19.331  0.00  0.00    +0.000 A 
ATOM     15  C   UNL     1      -0.307   9.894  20.330  0.00  0.00    +0.000 A 
ATOM     16  C   UNL     1      -0.646   9.958  21.685  0.00  0.00    +0.000 A 
ATOM     17  N   UNL     1       0.148   9.544  22.696  0.00  0.00    +0.000 NA
ATOM     18  C   UNL     1       1.345   9.037  22.346  0.00  0.00    +0.000 A 
ATOM     19  C   UNL     1       1.785   8.928  21.035  0.00  0.00    +0.000 A 
ATOM     20  C   UNL     1       0.955   9.367  19.984  0.00  0.00    +0.000 A 
ENDBRANCH  10  11
BRANCH   2  21
ATOM     21  C   UNL     1       1.739   3.849  17.588  0.00  0.00    +0.000 C 
BRANCH  21  22
ATOM     22  C   UNL     1       1.903   3.036  18.887  0.00  0.00    +0.000 C 
BRANCH  22  23
ATOM     23  N   UNL     1       2.596   3.780  19.960  0.00  0.00    +0.000 NA
ATOM     24  C   UNL     1       3.892   3.142  20.296  0.00  0.00    +0.000 C 
ATOM     25  C   UNL     1       3.768   1.828  21.098  0.00  0.00    +0.000 C 
ATOM     26  O   UNL     1       2.931   1.964  22.254  0.00  0.00    +0.000 OA
ATOM     27  C   UNL     1       1.650   2.502  21.907  0.00  0.00    +0.000 C 
ATOM     28  C   UNL     1       1.813   3.861  21.215  0.00  0.00    +0.000 C 
ENDBRANCH  22  23
ENDBRANCH  21  22
ENDBRANCH   2  21
TORSDOF 4
ENDMDL
