MODEL 1
REMARK VINA RESULT:      -8.0      0.000      0.000
REMARK  Name = 
REMARK  4 active torsions:
REMARK  status: ('A' for Active; 'I' for Inactive)
REMARK    1  A    between atoms: C_2  and  C_3
REMARK    2  A    between atoms: C_2  and  C_24
REMARK    3  A    between atoms: C_3  and  N_4
REMARK    4  A    between atoms: C_9  and  C_10
REMARK                            x       y       z     vdW  Elec       q    Type
REMARK                         _______ _______ _______ _____ _____    ______ ____
ROOT
ATOM      1  N   UNL     1       1.010   8.440  20.017  0.00  0.00    +0.000 N 
ATOM      2  C   UNL     1       1.213   9.245  18.935  0.00  0.00    +0.000 C 
ATOM      3  O   UNL     1       0.708  10.344  18.733  0.00  0.00    +0.000 OA
ATOM      4  S   UNL     1       2.381   8.519  17.854  0.00  0.00    +0.000 S 
ATOM      5  C   UNL     1       2.625   7.169  18.895  0.00  0.00    +0.000 C 
ATOM      6  C   UNL     1       3.496   6.159  18.748  0.00  0.00    +0.000 C 
ATOM      7  C   UNL     1       1.710   7.260  20.066  0.00  0.00    +0.000 C 
ATOM      8  O   UNL     1       1.637   6.419  20.951  0.00  0.00    +0.000 OA
ENDROOT
BRANCH   6   9
ATOM      9  C   UNL     1       4.452   5.980  17.654  0.00  0.00    +0.000 C 
ATOM     10  C   UNL     1       4.447   4.886  16.859  0.00  0.00    +0.000 C 
ATOM     11 CL   UNL     1       3.307   3.589  17.128  0.00  0.00    +0.000 Cl
ATOM     12  C   UNL     1       5.357   4.720  15.697  0.00  0.00    +0.000 A 
ATOM     13  C   UNL     1       4.818   4.238  14.484  0.00  0.00    +0.000 A 
ATOM     14  C   UNL     1       5.614   4.025  13.358  0.00  0.00    +0.000 A 
ATOM     15  C   UNL     1       6.970   4.310  13.412  0.00  0.00    +0.000 A 
ATOM     16  C   UNL     1       7.525   4.806  14.591  0.00  0.00    +0.000 A 
ATOM     17  C   UNL     1       6.738   5.021  15.742  0.00  0.00    +0.000 A 
ATOM     18  C   UNL     1       7.453   5.447  17.005  0.00  0.00    +0.000 C 
ATOM     19  C   UNL     1       6.880   6.601  17.833  0.00  0.00    +0.000 C 
ATOM     20  C   UNL     1       5.475   7.079  17.482  0.00  0.00    +0.000 C 
ENDBRANCH   6   9
BRANCH   1  21
ATOM     21  C   UNL     1       0.036   8.790  21.031  0.00  0.00    +0.000 C 
BRANCH  21  23
ATOM     22  O   UNL     1       1.739   9.753  22.461  0.00  0.00    +0.000 OA
ATOM     23  C   UNL     1       0.629   9.862  21.940  0.00  0.00    +0.000 C 
BRANCH  23  24
ATOM     24  C   UNL     1      -0.173  11.092  22.187  0.00  0.00    +0.000 A 
ATOM     25  C   UNL     1      -1.265  11.003  23.058  0.00  0.00    +0.000 A 
ATOM     26  C   UNL     1      -2.080  12.114  23.279  0.00  0.00    +0.000 A 
ATOM     27  C   UNL     1      -1.799  13.318  22.638  0.00  0.00    +0.000 A 
ATOM     28  C   UNL     1      -0.699  13.420  21.787  0.00  0.00    +0.000 A 
ATOM     29  C   UNL     1       0.115  12.309  21.558  0.00  0.00    +0.000 A 
ENDBRANCH  23  24
ENDBRANCH  21  23
ENDBRANCH   1  21
TORSDOF 4
ENDMDL
MODEL 2
REMARK VINA RESULT:      -7.9      3.243      9.856
REMARK  Name = 
REMARK  4 active torsions:
REMARK  status: ('A' for Active; 'I' for Inactive)
REMARK    1  A    between atoms: C_2  and  C_3
REMARK    2  A    between atoms: C_2  and  C_24
REMARK    3  A    between atoms: C_3  and  N_4
REMARK    4  A    between atoms: C_9  and  C_10
REMARK                            x       y       z     vdW  Elec       q    Type
REMARK                         _______ _______ _______ _____ _____    ______ ____
ROOT
ATOM      1  N   UNL     1       6.078   5.094  16.344  0.00  0.00    +0.000 N 
ATOM      2  C   UNL     1       6.700   6.231  16.768  0.00  0.00    +0.000 C 
ATOM      3  O   UNL     1       7.849   6.577  16.515  0.00  0.00    +0.000 OA
ATOM      4  S   UNL     1       5.593   7.211  17.703  0.00  0.00    +0.000 S 
ATOM      5  C   UNL     1       4.290   6.109  17.467  0.00  0.00    +0.000 C 
ATOM      6  C   UNL     1       3.015   6.241  17.861  0.00  0.00    +0.000 C 
ATOM      7  C   UNL     1       4.766   4.917  16.711  0.00  0.00    +0.000 C 
ATOM      8  O   UNL     1       4.067   3.954  16.430  0.00  0.00    +0.000 OA
ENDROOT
BRANCH   6   9
ATOM      9  C   UNL     1       2.436   7.371  18.587  0.00  0.00    +0.000 C 
ATOM     10  C   UNL     1       1.814   7.224  19.779  0.00  0.00    +0.000 C 
ATOM     11 CL   UNL     1       1.631   5.646  20.505  0.00  0.00    +0.000 Cl
ATOM     12  C   UNL     1       1.287   8.367  20.569  0.00  0.00    +0.000 A 
ATOM     13  C   UNL     1       1.540   8.397  21.958  0.00  0.00    +0.000 A 
ATOM     14  C   UNL     1       1.051   9.420  22.772  0.00  0.00    +0.000 A 
ATOM     15  C   UNL     1       0.314  10.452  22.211  0.00  0.00    +0.000 A 
ATOM     16  C   UNL     1       0.067  10.457  20.839  0.00  0.00    +0.000 A 
ATOM     17  C   UNL     1       0.545   9.428  20.000  0.00  0.00    +0.000 A 
ATOM     18  C   UNL     1       0.124   9.460  18.548  0.00  0.00    +0.000 C 
ATOM     19  C   UNL     1       1.178   9.231  17.460  0.00  0.00    +0.000 C 
ATOM     20  C   UNL     1       2.541   8.718  17.910  0.00  0.00    +0.000 C 
ENDBRANCH   6   9
BRANCH   1  21
ATOM     21  C   UNL     1       6.803   4.083  15.602  0.00  0.00    +0.000 C 
BRANCH  21  23
ATOM     22  O   UNL     1       7.700   5.522  13.871  0.00  0.00    +0.000 OA
ATOM     23  C   UNL     1       6.989   4.561  14.165  0.00  0.00    +0.000 C 
BRANCH  23  24
ATOM     24  C   UNL     1       6.287   3.818  13.083  0.00  0.00    +0.000 A 
ATOM     25  C   UNL     1       4.920   4.058  12.897  0.00  0.00    +0.000 A 
ATOM     26  C   UNL     1       4.206   3.346  11.933  0.00  0.00    +0.000 A 
ATOM     27  C   UNL     1       4.858   2.399  11.146  0.00  0.00    +0.000 A 
ATOM     28  C   UNL     1       6.224   2.170  11.311  0.00  0.00    +0.000 A 
ATOM     29  C   UNL     1       6.941   2.876  12.279  0.00  0.00    +0.000 A 
ENDBRANCH  23  24
ENDBRANCH  21  23
ENDBRANCH   1  21
TORSDOF 4
ENDMDL
MODEL 3
REMARK VINA RESULT:      -7.7      2.897      8.689
REMARK  Name = 
REMARK  4 active torsions:
REMARK  status: ('A' for Active; 'I' for Inactive)
REMARK    1  A    between atoms: C_2  and  C_3
REMARK    2  A    between atoms: C_2  and  C_24
REMARK    3  A    between atoms: C_3  and  N_4
REMARK    4  A    between atoms: C_9  and  C_10
REMARK                            x       y       z     vdW  Elec       q    Type
REMARK                         _______ _______ _______ _____ _____    ______ ____
ROOT
ATOM      1  N   UNL     1       3.503   4.508  18.370  0.00  0.00    +0.000 N 
ATOM      2  C   UNL     1       2.351   4.500  17.640  0.00  0.00    +0.000 C 
ATOM      3  O   UNL     1       1.996   3.642  16.838  0.00  0.00    +0.000 OA
ATOM      4  S   UNL     1       1.368   5.888  18.049  0.00  0.00    +0.000 S 
ATOM      5  C   UNL     1       2.489   6.433  19.237  0.00  0.00    +0.000 C 
ATOM      6  C   UNL     1       2.366   7.475  20.073  0.00  0.00    +0.000 C 
ATOM      7  C   UNL     1       3.688   5.549  19.246  0.00  0.00    +0.000 C 
ATOM      8  O   UNL     1       4.665   5.718  19.963  0.00  0.00    +0.000 OA
ENDROOT
BRANCH   6   9
ATOM      9  C   UNL     1       1.230   8.392  20.166  0.00  0.00    +0.000 C 
ATOM     10  C   UNL     1       0.989   9.344  19.236  0.00  0.00    +0.000 C 
ATOM     11 CL   UNL     1       2.062   9.556  17.873  0.00  0.00    +0.000 Cl
ATOM     12  C   UNL     1      -0.200  10.234  19.271  0.00  0.00    +0.000 A 
ATOM     13  C   UNL     1      -0.913  10.450  18.071  0.00  0.00    +0.000 A 
ATOM     14  C   UNL     1      -2.021  11.297  18.017  0.00  0.00    +0.000 A 
ATOM     15  C   UNL     1      -2.456  11.934  19.169  0.00  0.00    +0.000 A 
ATOM     16  C   UNL     1      -1.782  11.723  20.371  0.00  0.00    +0.000 A 
ATOM     17  C   UNL     1      -0.655  10.876  20.445  0.00  0.00    +0.000 A 
ATOM     18  C   UNL     1       0.077  10.806  21.766  0.00  0.00    +0.000 C 
ATOM     19  C   UNL     1       0.478   9.437  22.325  0.00  0.00    +0.000 C 
ATOM     20  C   UNL     1       0.354   8.240  21.388  0.00  0.00    +0.000 C 
ENDBRANCH   6   9
BRANCH   1  21
ATOM     21  C   UNL     1       4.518   3.494  18.168  0.00  0.00    +0.000 C 
BRANCH  21  23
ATOM     22  O   UNL     1       5.592   3.477  15.997  0.00  0.00    +0.000 OA
ATOM     23  C   UNL     1       5.505   3.984  17.114  0.00  0.00    +0.000 C 
BRANCH  23  24
ATOM     24  C   UNL     1       6.387   5.134  17.461  0.00  0.00    +0.000 A 
ATOM     25  C   UNL     1       7.320   4.962  18.490  0.00  0.00    +0.000 A 
ATOM     26  C   UNL     1       8.130   6.026  18.889  0.00  0.00    +0.000 A 
ATOM     27  C   UNL     1       8.015   7.261  18.253  0.00  0.00    +0.000 A 
ATOM     28  C   UNL     1       7.103   7.432  17.212  0.00  0.00    +0.000 A 
ATOM     29  C   UNL     1       6.286   6.372  16.814  0.00  0.00    +0.000 A 
ENDBRANCH  23  24
ENDBRANCH  21  23
ENDBRANCH   1  21
TORSDOF 4
ENDMDL
MODEL 4
REMARK VINA RESULT:      -7.7      2.806      9.087
REMARK  Name = 
REMARK  4 active torsions:
REMARK  status: ('A' for Active; 'I' for Inactive)
REMARK    1  A    between atoms: C_2  and  C_3
REMARK    2  A    between atoms: C_2  and  C_24
REMARK    3  A    between atoms: C_3  and  N_4
REMARK    4  A    between atoms: C_9  and  C_10
REMARK                            x       y       z     vdW  Elec       q    Type
REMARK                         _______ _______ _______ _____ _____    ______ ____
ROOT
ATOM      1  N   UNL     1       3.176   4.238  19.850  0.00  0.00    +0.000 N 
ATOM      2  C   UNL     1       1.877   3.909  20.103  0.00  0.00    +0.000 C 
ATOM      3  O   UNL     1       1.431   2.785  20.308  0.00  0.00    +0.000 OA
ATOM      4  S   UNL     1       0.890   5.353  20.169  0.00  0.00    +0.000 S 
ATOM      5  C   UNL     1       2.244   6.386  19.910  0.00  0.00    +0.000 C 
ATOM      6  C   UNL     1       2.271   7.727  19.909  0.00  0.00    +0.000 C 
ATOM      7  C   UNL     1       3.470   5.569  19.689  0.00  0.00    +0.000 C 
ATOM      8  O   UNL     1       4.574   6.035  19.443  0.00  0.00    +0.000 OA
ENDROOT
BRANCH   6   9
ATOM      9  C   UNL     1       1.139   8.625  20.135  0.00  0.00    +0.000 C 
ATOM     10  C   UNL     1       0.812   9.612  19.269  0.00  0.00    +0.000 C 
ATOM     11 CL   UNL     1       1.766   9.895  17.833  0.00  0.00    +0.000 Cl
ATOM     12  C   UNL     1      -0.378  10.485  19.441  0.00  0.00    +0.000 A 
ATOM     13  C   UNL     1      -1.190  10.742  18.315  0.00  0.00    +0.000 A 
ATOM     14  C   UNL     1      -2.307  11.576  18.388  0.00  0.00    +0.000 A 
ATOM     15  C   UNL     1      -2.650  12.159  19.599  0.00  0.00    +0.000 A 
ATOM     16  C   UNL     1      -1.876  11.906  20.731  0.00  0.00    +0.000 A 
ATOM     17  C   UNL     1      -0.740  11.072  20.675  0.00  0.00    +0.000 A 
ATOM     18  C   UNL     1       0.101  10.955  21.926  0.00  0.00    +0.000 C 
ATOM     19  C   UNL     1       0.560   9.569  22.391  0.00  0.00    +0.000 C 
ATOM     20  C   UNL     1       0.369   8.411  21.418  0.00  0.00    +0.000 C 
ENDBRANCH   6   9
BRANCH   1  21
ATOM     21  C   UNL     1       4.183   3.211  19.683  0.00  0.00    +0.000 C 
BRANCH  21  23
ATOM     22  O   UNL     1       3.638   1.880  17.733  0.00  0.00    +0.000 OA
ATOM     23  C   UNL     1       4.262   2.828  18.209  0.00  0.00    +0.000 C 
BRANCH  23  24
ATOM     24  C   UNL     1       5.125   3.651  17.317  0.00  0.00    +0.000 A 
ATOM     25  C   UNL     1       4.640   3.973  16.044  0.00  0.00    +0.000 A 
ATOM     26  C   UNL     1       5.434   4.695  15.152  0.00  0.00    +0.000 A 
ATOM     27  C   UNL     1       6.709   5.105  15.534  0.00  0.00    +0.000 A 
ATOM     28  C   UNL     1       7.190   4.808  16.808  0.00  0.00    +0.000 A 
ATOM     29  C   UNL     1       6.401   4.080  17.702  0.00  0.00    +0.000 A 
ENDBRANCH  23  24
ENDBRANCH  21  23
ENDBRANCH   1  21
TORSDOF 4
ENDMDL
MODEL 5
REMARK VINA RESULT:      -7.7      2.852      4.399
REMARK  Name = 
REMARK  4 active torsions:
REMARK  status: ('A' for Active; 'I' for Inactive)
REMARK    1  A    between atoms: C_2  and  C_3
REMARK    2  A    between atoms: C_2  and  C_24
REMARK    3  A    between atoms: C_3  and  N_4
REMARK    4  A    between atoms: C_9  and  C_10
REMARK                            x       y       z     vdW  Elec       q    Type
REMARK                         _______ _______ _______ _____ _____    ______ ____
ROOT
ATOM      1  N   UNL     1      -0.014  11.619  20.099  0.00  0.00    +0.000 N 
ATOM      2  C   UNL     1      -0.371  11.421  18.798  0.00  0.00    +0.000 C 
ATOM      3  O   UNL     1      -0.978  12.205  18.076  0.00  0.00    +0.000 OA
ATOM      4  S   UNL     1       0.223   9.873  18.238  0.00  0.00    +0.000 S 
ATOM      5  C   UNL     1       0.992   9.534  19.741  0.00  0.00    +0.000 C 
ATOM      6  C   UNL     1       1.761   8.482  20.057  0.00  0.00    +0.000 C 
ATOM      7  C   UNL     1       0.702  10.623  20.716  0.00  0.00    +0.000 C 
ATOM      8  O   UNL     1       1.088  10.631  21.876  0.00  0.00    +0.000 OA
ENDROOT
BRANCH   6   9
ATOM      9  C   UNL     1       2.127   7.371  19.178  0.00  0.00    +0.000 C 
ATOM     10  C   UNL     1       2.115   6.084  19.593  0.00  0.00    +0.000 C 
ATOM     11 CL   UNL     1       1.694   5.678  21.240  0.00  0.00    +0.000 Cl
ATOM     12  C   UNL     1       2.408   4.936  18.696  0.00  0.00    +0.000 A 
ATOM     13  C   UNL     1       1.567   3.803  18.758  0.00  0.00    +0.000 A 
ATOM     14  C   UNL     1       1.796   2.674  17.971  0.00  0.00    +0.000 A 
ATOM     15  C   UNL     1       2.863   2.659  17.085  0.00  0.00    +0.000 A 
ATOM     16  C   UNL     1       3.697   3.772  16.990  0.00  0.00    +0.000 A 
ATOM     17  C   UNL     1       3.487   4.920  17.783  0.00  0.00    +0.000 A 
ATOM     18  C   UNL     1       4.514   6.026  17.693  0.00  0.00    +0.000 C 
ATOM     19  C   UNL     1       4.040   7.476  17.551  0.00  0.00    +0.000 C 
ATOM     20  C   UNL     1       2.556   7.747  17.778  0.00  0.00    +0.000 C 
ENDBRANCH   6   9
BRANCH   1  21
ATOM     21  C   UNL     1      -0.442  12.803  20.815  0.00  0.00    +0.000 C 
BRANCH  21  23
ATOM     22  O   UNL     1       1.660  13.751  21.561  0.00  0.00    +0.000 OA
ATOM     23  C   UNL     1       0.690  13.825  20.806  0.00  0.00    +0.000 C 
BRANCH  23  24
ATOM     24  C   UNL     1       0.614  14.947  19.830  0.00  0.00    +0.000 A 
ATOM     25  C   UNL     1       1.800  15.375  19.222  0.00  0.00    +0.000 A 
ATOM     26  C   UNL     1       1.787  16.458  18.343  0.00  0.00    +0.000 A 
ATOM     27  C   UNL     1       0.589  17.110  18.062  0.00  0.00    +0.000 A 
ATOM     28  C   UNL     1      -0.600  16.675  18.648  0.00  0.00    +0.000 A 
ATOM     29  C   UNL     1      -0.591  15.596  19.533  0.00  0.00    +0.000 A 
ENDBRANCH  23  24
ENDBRANCH  21  23
ENDBRANCH   1  21
TORSDOF 4
ENDMDL
MODEL 6
REMARK VINA RESULT:      -7.7      2.918      4.451
REMARK  Name = 
REMARK  4 active torsions:
REMARK  status: ('A' for Active; 'I' for Inactive)
REMARK    1  A    between atoms: C_2  and  C_3
REMARK    2  A    between atoms: C_2  and  C_24
REMARK    3  A    between atoms: C_3  and  N_4
REMARK    4  A    between atoms: C_9  and  C_10
REMARK                            x       y       z     vdW  Elec       q    Type
REMARK                         _______ _______ _______ _____ _____    ______ ____
ROOT
ATOM      1  N   UNL     1       0.023  11.678  20.044  0.00  0.00    +0.000 N 
ATOM      2  C   UNL     1      -0.337  11.468  18.746  0.00  0.00    +0.000 C 
ATOM      3  O   UNL     1      -0.940  12.248  18.016  0.00  0.00    +0.000 OA
ATOM      4  S   UNL     1       0.245   9.910  18.202  0.00  0.00    +0.000 S 
ATOM      5  C   UNL     1       1.014   9.582  19.708  0.00  0.00    +0.000 C 
ATOM      6  C   UNL     1       1.777   8.528  20.034  0.00  0.00    +0.000 C 
ATOM      7  C   UNL     1       0.734  10.684  20.671  0.00  0.00    +0.000 C 
ATOM      8  O   UNL     1       1.121  10.702  21.831  0.00  0.00    +0.000 OA
ENDROOT
BRANCH   6   9
ATOM      9  C   UNL     1       2.134   7.405  19.167  0.00  0.00    +0.000 C 
ATOM     10  C   UNL     1       2.115   6.123  19.596  0.00  0.00    +0.000 C 
ATOM     11 CL   UNL     1       1.696   5.738  21.248  0.00  0.00    +0.000 Cl
ATOM     12  C   UNL     1       2.399   4.963  18.712  0.00  0.00    +0.000 A 
ATOM     13  C   UNL     1       1.552   3.837  18.789  0.00  0.00    +0.000 A 
ATOM     14  C   UNL     1       1.772   2.697  18.014  0.00  0.00    +0.000 A 
ATOM     15  C   UNL     1       2.836   2.666  17.125  0.00  0.00    +0.000 A 
ATOM     16  C   UNL     1       3.676   3.772  17.015  0.00  0.00    +0.000 A 
ATOM     17  C   UNL     1       3.475   4.930  17.796  0.00  0.00    +0.000 A 
ATOM     18  C   UNL     1       4.509   6.029  17.691  0.00  0.00    +0.000 C 
ATOM     19  C   UNL     1       4.043   7.480  17.534  0.00  0.00    +0.000 C 
ATOM     20  C   UNL     1       2.562   7.763  17.762  0.00  0.00    +0.000 C 
ENDBRANCH   6   9
BRANCH   1  21
ATOM     21  C   UNL     1      -0.396  12.872  20.748  0.00  0.00    +0.000 C 
BRANCH  21  23
ATOM     22  O   UNL     1       1.227  13.957  22.184  0.00  0.00    +0.000 OA
ATOM     23  C   UNL     1       0.830  13.732  21.041  0.00  0.00    +0.000 C 
BRANCH  23  24
ATOM     24  C   UNL     1       1.576  14.305  19.886  0.00  0.00    +0.000 A 
ATOM     25  C   UNL     1       2.720  13.633  19.441  0.00  0.00    +0.000 A 
ATOM     26  C   UNL     1       3.483  14.161  18.399  0.00  0.00    +0.000 A 
ATOM     27  C   UNL     1       3.099  15.355  17.793  0.00  0.00    +0.000 A 
ATOM     28  C   UNL     1       1.947  16.018  18.217  0.00  0.00    +0.000 A 
ATOM     29  C   UNL     1       1.184  15.497  19.264  0.00  0.00    +0.000 A 
ENDBRANCH  23  24
ENDBRANCH  21  23
ENDBRANCH   1  21
TORSDOF 4
ENDMDL
MODEL 7
REMARK VINA RESULT:      -7.5      2.427      3.752
REMARK  Name = 
REMARK  4 active torsions:
REMARK  status: ('A' for Active; 'I' for Inactive)
REMARK    1  A    between atoms: C_2  and  C_3
REMARK    2  A    between atoms: C_2  and  C_24
REMARK    3  A    between atoms: C_3  and  N_4
REMARK    4  A    between atoms: C_9  and  C_10
REMARK                            x       y       z     vdW  Elec       q    Type
REMARK                         _______ _______ _______ _____ _____    ______ ____
ROOT
ATOM      1  N   UNL     1       0.014  11.075  20.989  0.00  0.00    +0.000 N 
ATOM      2  C   UNL     1      -0.448  10.993  19.709  0.00  0.00    +0.000 C 
ATOM      3  O   UNL     1      -1.140  11.819  19.124  0.00  0.00    +0.000 OA
ATOM      4  S   UNL     1       0.146   9.534  18.946  0.00  0.00    +0.000 S 
ATOM      5  C   UNL     1       1.054   9.080  20.337  0.00  0.00    +0.000 C 
ATOM      6  C   UNL     1       1.881   8.034  20.479  0.00  0.00    +0.000 C 
ATOM      7  C   UNL     1       0.813  10.053  21.440  0.00  0.00    +0.000 C 
ATOM      8  O   UNL     1       1.297   9.961  22.559  0.00  0.00    +0.000 OA
ENDROOT
BRANCH   6   9
ATOM      9  C   UNL     1       2.207   7.033  19.463  0.00  0.00    +0.000 C 
ATOM     10  C   UNL     1       2.333   5.718  19.755  0.00  0.00    +0.000 C 
ATOM     11 CL   UNL     1       2.150   5.144  21.395  0.00  0.00    +0.000 Cl
ATOM     12  C   UNL     1       2.587   4.676  18.727  0.00  0.00    +0.000 A 
ATOM     13  C   UNL     1       1.837   3.481  18.783  0.00  0.00    +0.000 A 
ATOM     14  C   UNL     1       2.040   2.442  17.873  0.00  0.00    +0.000 A 
ATOM     15  C   UNL     1       2.985   2.584  16.869  0.00  0.00    +0.000 A 
ATOM     16  C   UNL     1       3.725   3.762  16.778  0.00  0.00    +0.000 A 
ATOM     17  C   UNL     1       3.541   4.820  17.694  0.00  0.00    +0.000 A 
ATOM     18  C   UNL     1       4.473   6.006  17.586  0.00  0.00    +0.000 C 
ATOM     19  C   UNL     1       3.889   7.422  17.637  0.00  0.00    +0.000 C 
ATOM     20  C   UNL     1       2.431   7.557  18.063  0.00  0.00    +0.000 C 
ENDBRANCH   6   9
BRANCH   1  21
ATOM     21  C   UNL     1      -0.390  12.162  21.856  0.00  0.00    +0.000 C 
BRANCH  21  23
ATOM     22  O   UNL     1      -1.564  10.699  23.390  0.00  0.00    +0.000 OA
ATOM     23  C   UNL     1      -1.584  11.713  22.693  0.00  0.00    +0.000 C 
BRANCH  23  24
ATOM     24  C   UNL     1      -2.815  12.551  22.664  0.00  0.00    +0.000 A 
ATOM     25  C   UNL     1      -3.059  13.325  21.523  0.00  0.00    +0.000 A 
ATOM     26  C   UNL     1      -4.170  14.169  21.472  0.00  0.00    +0.000 A 
ATOM     27  C   UNL     1      -5.042  14.234  22.556  0.00  0.00    +0.000 A 
ATOM     28  C   UNL     1      -4.816  13.449  23.687  0.00  0.00    +0.000 A 
ATOM     29  C   UNL     1      -3.703  12.608  23.745  0.00  0.00    +0.000 A 
ENDBRANCH  23  24
ENDBRANCH  21  23
ENDBRANCH   1  21
TORSDOF 4
ENDMDL
MODEL 8
REMARK VINA RESULT:      -7.5      2.440      3.619
REMARK  Name = 
REMARK  4 active torsions:
REMARK  status: ('A' for Active; 'I' for Inactive)
REMARK    1  A    between atoms: C_2  and  C_3
REMARK    2  A    between atoms: C_2  and  C_24
REMARK    3  A    between atoms: C_3  and  N_4
REMARK    4  A    between atoms: C_9  and  C_10
REMARK                            x       y       z     vdW  Elec       q    Type
REMARK                         _______ _______ _______ _____ _____    ______ ____
ROOT
ATOM      1  N   UNL     1       0.599  11.370  20.609  0.00  0.00    +0.000 N 
ATOM      2  C   UNL     1       0.565  11.438  19.247  0.00  0.00    +0.000 C 
ATOM      3  O   UNL     1       0.312  12.428  18.568  0.00  0.00    +0.000 OA
ATOM      4  S   UNL     1       1.008   9.894  18.554  0.00  0.00    +0.000 S 
ATOM      5  C   UNL     1       1.289   9.190  20.101  0.00  0.00    +0.000 C 
ATOM      6  C   UNL     1       1.755   7.963  20.378  0.00  0.00    +0.000 C 
ATOM      7  C   UNL     1       0.946  10.167  21.172  0.00  0.00    +0.000 C 
ATOM      8  O   UNL     1       1.011   9.928  22.370  0.00  0.00    +0.000 OA
ENDROOT
BRANCH   6   9
ATOM      9  C   UNL     1       2.141   6.935  19.411  0.00  0.00    +0.000 C 
ATOM     10  C   UNL     1       2.276   5.634  19.752  0.00  0.00    +0.000 C 
ATOM     11 CL   UNL     1       2.033   5.110  21.401  0.00  0.00    +0.000 Cl
ATOM     12  C   UNL     1       2.592   4.563  18.771  0.00  0.00    +0.000 A 
ATOM     13  C   UNL     1       1.861   3.357  18.835  0.00  0.00    +0.000 A 
ATOM     14  C   UNL     1       2.120   2.293  17.970  0.00  0.00    +0.000 A 
ATOM     15  C   UNL     1       3.105   2.419  17.002  0.00  0.00    +0.000 A 
ATOM     16  C   UNL     1       3.828   3.607  16.904  0.00  0.00    +0.000 A 
ATOM     17  C   UNL     1       3.587   4.691  17.775  0.00  0.00    +0.000 A 
ATOM     18  C   UNL     1       4.502   5.889  17.667  0.00  0.00    +0.000 C 
ATOM     19  C   UNL     1       3.893   7.295  17.645  0.00  0.00    +0.000 C 
ATOM     20  C   UNL     1       2.416   7.418  18.005  0.00  0.00    +0.000 C 
ENDBRANCH   6   9
BRANCH   1  21
ATOM     21  C   UNL     1       0.209  12.505  21.420  0.00  0.00    +0.000 C 
BRANCH  21  23
ATOM     22  O   UNL     1      -2.065  11.826  20.927  0.00  0.00    +0.000 OA
ATOM     23  C   UNL     1      -1.297  12.449  21.660  0.00  0.00    +0.000 C 
BRANCH  23  24
ATOM     24  C   UNL     1      -1.845  13.172  22.841  0.00  0.00    +0.000 A 
ATOM     25  C   UNL     1      -3.112  12.805  23.309  0.00  0.00    +0.000 A 
ATOM     26  C   UNL     1      -3.691  13.490  24.378  0.00  0.00    +0.000 A 
ATOM     27  C   UNL     1      -3.002  14.536  24.986  0.00  0.00    +0.000 A 
ATOM     28  C   UNL     1      -1.730  14.893  24.539  0.00  0.00    +0.000 A 
ATOM     29  C   UNL     1      -1.149  14.214  23.466  0.00  0.00    +0.000 A 
ENDBRANCH  23  24
ENDBRANCH  21  23
ENDBRANCH   1  21
TORSDOF 4
ENDMDL
MODEL 9
REMARK VINA RESULT:      -7.5      3.003      4.564
REMARK  Name = 
REMARK  4 active torsions:
REMARK  status: ('A' for Active; 'I' for Inactive)
REMARK    1  A    between atoms: C_2  and  C_3
REMARK    2  A    between atoms: C_2  and  C_24
REMARK    3  A    between atoms: C_3  and  N_4
REMARK    4  A    between atoms: C_9  and  C_10
REMARK                            x       y       z     vdW  Elec       q    Type
REMARK                         _______ _______ _______ _____ _____    ______ ____
ROOT
ATOM      1  N   UNL     1      -0.229  11.826  19.550  0.00  0.00    +0.000 N 
ATOM      2  C   UNL     1      -0.816  11.343  18.418  0.00  0.00    +0.000 C 
ATOM      3  O   UNL     1      -1.654  11.911  17.727  0.00  0.00    +0.000 OA
ATOM      4  S   UNL     1      -0.151   9.775  18.016  0.00  0.00    +0.000 S 
ATOM      5  C   UNL     1       0.947   9.811  19.342  0.00  0.00    +0.000 C 
ATOM      6  C   UNL     1       1.895   8.915  19.654  0.00  0.00    +0.000 C 
ATOM      7  C   UNL     1       0.722  11.040  20.153  0.00  0.00    +0.000 C 
ATOM      8  O   UNL     1       1.333  11.312  21.177  0.00  0.00    +0.000 OA
ENDROOT
BRANCH   6   9
ATOM      9  C   UNL     1       2.216   7.689  18.921  0.00  0.00    +0.000 C 
ATOM     10  C   UNL     1       2.061   6.460  19.463  0.00  0.00    +0.000 C 
ATOM     11 CL   UNL     1       1.499   6.269  21.106  0.00  0.00    +0.000 Cl
ATOM     12  C   UNL     1       2.308   5.202  18.711  0.00  0.00    +0.000 A 
ATOM     13  C   UNL     1       1.366   4.156  18.825  0.00  0.00    +0.000 A 
ATOM     14  C   UNL     1       1.543   2.934  18.175  0.00  0.00    +0.000 A 
ATOM     15  C   UNL     1       2.659   2.736  17.376  0.00  0.00    +0.000 A 
ATOM     16  C   UNL     1       3.594   3.759  17.231  0.00  0.00    +0.000 A 
ATOM     17  C   UNL     1       3.437   4.999  17.886  0.00  0.00    +0.000 A 
ATOM     18  C   UNL     1       4.563   6.001  17.761  0.00  0.00    +0.000 C 
ATOM     19  C   UNL     1       4.232   7.461  17.438  0.00  0.00    +0.000 C 
ATOM     20  C   UNL     1       2.767   7.877  17.527  0.00  0.00    +0.000 C 
ENDBRANCH   6   9
BRANCH   1  21
ATOM     21  C   UNL     1      -0.653  13.084  20.128  0.00  0.00    +0.000 C 
BRANCH  21  23
ATOM     22  O   UNL     1       1.242  14.087  18.999  0.00  0.00    +0.000 OA
ATOM     23  C   UNL     1       0.105  14.222  19.451  0.00  0.00    +0.000 C 
BRANCH  23  24
ATOM     24  C   UNL     1      -0.574  15.541  19.328  0.00  0.00    +0.000 A 
ATOM     25  C   UNL     1      -1.585  15.851  20.246  0.00  0.00    +0.000 A 
ATOM     26  C   UNL     1      -2.289  17.051  20.137  0.00  0.00    +0.000 A 
ATOM     27  C   UNL     1      -1.978  17.947  19.117  0.00  0.00    +0.000 A 
ATOM     28  C   UNL     1      -0.958  17.654  18.213  0.00  0.00    +0.000 A 
ATOM     29  C   UNL     1      -0.255  16.452  18.314  0.00  0.00    +0.000 A 
ENDBRANCH  23  24
ENDBRANCH  21  23
ENDBRANCH   1  21
TORSDOF 4
ENDMDL
