MODEL 1
REMARK VINA RESULT:      -8.3      0.000      0.000
REMARK  Name = 
REMARK  11 active torsions:
REMARK  status: ('A' for Active; 'I' for Inactive)
REMARK    1  A    between atoms: C_1  and  C_2
REMARK    2  A    between atoms: C_2  and  O_3
REMARK    3  A    between atoms: O_3  and  C_4
REMARK    4  A    between atoms: C_7  and  N_8
REMARK    5  A    between atoms: C_9  and  C_10
REMARK    6  A    between atoms: C_10  and  O_12
REMARK    7  A    between atoms: C_16  and  N_17
REMARK    8  A    between atoms: N_17  and  C_18
REMARK    9  A    between atoms: C_18  and  C_19
REMARK   10  A    between atoms: C_22  and  C_23
REMARK   11  A    between atoms: C_23  and  C_24
REMARK                            x       y       z     vdW  Elec       q    Type
REMARK                         _______ _______ _______ _____ _____    ______ ____
ROOT
ATOM      1  N   UNL     1       4.066   4.436  18.816  0.00  0.00    +0.000 N 
ATOM      2  C   UNL     1       3.764   3.331  19.615  0.00  0.00    +0.000 A 
ATOM      3  N   UNL     1       2.805   3.606  20.498  0.00  0.00    +0.000 NA
ATOM      4  C   UNL     1       2.510   4.932  20.314  0.00  0.00    +0.000 A 
ATOM      5  C   UNL     1       1.601   5.774  20.981  0.00  0.00    +0.000 A 
ATOM      6  C   UNL     1       1.450   7.098  20.543  0.00  0.00    +0.000 A 
ATOM      7  C   UNL     1       2.279   7.499  19.489  0.00  0.00    +0.000 A 
ATOM      8  N   UNL     1       3.184   6.737  18.820  0.00  0.00    +0.000 NA
ATOM      9  C   UNL     1       3.264   5.472  19.285  0.00  0.00    +0.000 A 
ENDROOT
BRANCH   1  13
ATOM     10  C   UNL     1       6.818   4.915  15.637  0.00  0.00    +0.000 A 
ATOM     11  C   UNL     1       7.232   5.071  16.956  0.00  0.00    +0.000 A 
ATOM     12  C   UNL     1       6.345   4.855  18.011  0.00  0.00    +0.000 A 
ATOM     13  C   UNL     1       5.010   4.537  17.753  0.00  0.00    +0.000 A 
ATOM     14  C   UNL     1       4.604   4.339  16.424  0.00  0.00    +0.000 A 
ATOM     15  C   UNL     1       5.502   4.541  15.370  0.00  0.00    +0.000 A 
BRANCH  10  16
ATOM     16  O   UNL     1       7.775   5.180  14.704  0.00  0.00    +0.000 OA
BRANCH  16  18
ATOM     17  C   UNL     1       8.228   5.807  12.469  0.00  0.00    +0.000 C 
ATOM     18  C   UNL     1       7.456   4.847  13.354  0.00  0.00    +0.000 C 
ENDBRANCH  16  18
ENDBRANCH  10  16
ENDBRANCH   1  13
BRANCH   2  19
ATOM     19  C   UNL     1       4.415   2.030  19.658  0.00  0.00    +0.000 C 
ATOM     20  O   UNL     1       5.162   1.572  20.507  0.00  0.00    +0.000 OA
BRANCH  19  21
ATOM     21  O   UNL     1       4.056   1.296  18.562  0.00  0.00    +0.000 OA
ATOM     22  H   UNL     1       4.020   1.901  17.787  0.00  0.00    +0.000 HD
ENDBRANCH  19  21
ENDBRANCH   2  19
BRANCH   6  23
ATOM     23  N   UNL     1       0.605   7.963  21.244  0.00  0.00    +0.000 N 
ATOM     24  H   UNL     1      -0.276   8.146  20.771  0.00  0.00    +0.000 HD
BRANCH  23  25
ATOM     25  C   UNL     1       1.133   9.177  21.866  0.00  0.00    +0.000 C 
BRANCH  25  26
ATOM     26  C   UNL     1       0.037  10.214  21.955  0.00  0.00    +0.000 A 
ATOM     27  C   UNL     1      -0.285  10.986  20.829  0.00  0.00    +0.000 A 
ATOM     28  C   UNL     1      -1.313  11.930  20.878  0.00  0.00    +0.000 A 
ATOM     29  C   UNL     1      -2.045  12.127  22.054  0.00  0.00    +0.000 A 
ATOM     30  C   UNL     1      -1.733  11.352  23.180  0.00  0.00    +0.000 A 
ATOM     31  C   UNL     1      -0.700  10.407  23.133  0.00  0.00    +0.000 A 
BRANCH  29  32
ATOM     32  C   UNL     1      -3.146  13.156  22.097  0.00  0.00    +0.000 C 
ATOM     33  C   UNL     1      -3.761  13.423  20.731  0.00  0.00    +0.000 C 
ENDBRANCH  29  32
ENDBRANCH  25  26
ENDBRANCH  23  25
ENDBRANCH   6  23
TORSDOF 9
ENDMDL
MODEL 2
REMARK VINA RESULT:      -8.1      2.193      2.680
REMARK  Name = 
REMARK  11 active torsions:
REMARK  status: ('A' for Active; 'I' for Inactive)
REMARK    1  A    between atoms: C_1  and  C_2
REMARK    2  A    between atoms: C_2  and  O_3
REMARK    3  A    between atoms: O_3  and  C_4
REMARK    4  A    between atoms: C_7  and  N_8
REMARK    5  A    between atoms: C_9  and  C_10
REMARK    6  A    between atoms: C_10  and  O_12
REMARK    7  A    between atoms: C_16  and  N_17
REMARK    8  A    between atoms: N_17  and  C_18
REMARK    9  A    between atoms: C_18  and  C_19
REMARK   10  A    between atoms: C_22  and  C_23
REMARK   11  A    between atoms: C_23  and  C_24
REMARK                            x       y       z     vdW  Elec       q    Type
REMARK                         _______ _______ _______ _____ _____    ______ ____
ROOT
ATOM      1  N   UNL     1       3.445   5.069  19.301  0.00  0.00    +0.000 N 
ATOM      2  C   UNL     1       2.968   4.182  20.270  0.00  0.00    +0.000 A 
ATOM      3  N   UNL     1       2.021   4.738  21.025  0.00  0.00    +0.000 NA
ATOM      4  C   UNL     1       1.912   6.030  20.581  0.00  0.00    +0.000 A 
ATOM      5  C   UNL     1       1.098   7.089  21.023  0.00  0.00    +0.000 A 
ATOM      6  C   UNL     1       1.140   8.313  20.339  0.00  0.00    +0.000 A 
ATOM      7  C   UNL     1       2.055   8.400  19.283  0.00  0.00    +0.000 A 
ATOM      8  N   UNL     1       2.876   7.419  18.824  0.00  0.00    +0.000 NA
ATOM      9  C   UNL     1       2.770   6.266  19.519  0.00  0.00    +0.000 A 
ENDROOT
BRANCH   1  13
ATOM     10  C   UNL     1       6.348   4.585  16.260  0.00  0.00    +0.000 A 
ATOM     11  C   UNL     1       6.724   5.000  17.534  0.00  0.00    +0.000 A 
ATOM     12  C   UNL     1       5.781   5.103  18.557  0.00  0.00    +0.000 A 
ATOM     13  C   UNL     1       4.434   4.847  18.299  0.00  0.00    +0.000 A 
ATOM     14  C   UNL     1       4.062   4.388  17.025  0.00  0.00    +0.000 A 
ATOM     15  C   UNL     1       5.014   4.271  16.007  0.00  0.00    +0.000 A 
BRANCH  10  16
ATOM     16  O   UNL     1       7.361   4.551  15.349  0.00  0.00    +0.000 OA
BRANCH  16  18
ATOM     17  C   UNL     1       7.916   5.336  13.189  0.00  0.00    +0.000 C 
ATOM     18  C   UNL     1       6.979   4.443  13.979  0.00  0.00    +0.000 C 
ENDBRANCH  16  18
ENDBRANCH  10  16
ENDBRANCH   1  13
BRANCH   2  19
ATOM     19  C   UNL     1       3.438   2.844  20.593  0.00  0.00    +0.000 C 
ATOM     20  O   UNL     1       4.149   2.100  19.939  0.00  0.00    +0.000 OA
BRANCH  19  21
ATOM     21  O   UNL     1       2.977   2.476  21.827  0.00  0.00    +0.000 OA
ATOM     22  H   UNL     1       1.995   2.539  21.818  0.00  0.00    +0.000 HD
ENDBRANCH  19  21
ENDBRANCH   2  19
BRANCH   6  23
ATOM     23  N   UNL     1       0.392   9.394  20.814  0.00  0.00    +0.000 N 
ATOM     24  H   UNL     1      -0.562   9.150  21.069  0.00  0.00    +0.000 HD
BRANCH  23  25
ATOM     25  C   UNL     1       0.442  10.689  20.137  0.00  0.00    +0.000 C 
BRANCH  25  26
ATOM     26  C   UNL     1      -0.721  10.802  19.178  0.00  0.00    +0.000 A 
ATOM     27  C   UNL     1      -0.740  10.023  18.011  0.00  0.00    +0.000 A 
ATOM     28  C   UNL     1      -1.817  10.088  17.125  0.00  0.00    +0.000 A 
ATOM     29  C   UNL     1      -2.902  10.932  17.381  0.00  0.00    +0.000 A 
ATOM     30  C   UNL     1      -2.892  11.706  18.551  0.00  0.00    +0.000 A 
ATOM     31  C   UNL     1      -1.811  11.644  19.439  0.00  0.00    +0.000 A 
BRANCH  29  32
ATOM     32  C   UNL     1      -4.054  11.001  16.411  0.00  0.00    +0.000 C 
ATOM     33  C   UNL     1      -3.725  10.390  15.056  0.00  0.00    +0.000 C 
ENDBRANCH  29  32
ENDBRANCH  25  26
ENDBRANCH  23  25
ENDBRANCH   6  23
TORSDOF 9
ENDMDL
MODEL 3
REMARK VINA RESULT:      -7.9      1.845      2.408
REMARK  Name = 
REMARK  11 active torsions:
REMARK  status: ('A' for Active; 'I' for Inactive)
REMARK    1  A    between atoms: C_1  and  C_2
REMARK    2  A    between atoms: C_2  and  O_3
REMARK    3  A    between atoms: O_3  and  C_4
REMARK    4  A    between atoms: C_7  and  N_8
REMARK    5  A    between atoms: C_9  and  C_10
REMARK    6  A    between atoms: C_10  and  O_12
REMARK    7  A    between atoms: C_16  and  N_17
REMARK    8  A    between atoms: N_17  and  C_18
REMARK    9  A    between atoms: C_18  and  C_19
REMARK   10  A    between atoms: C_22  and  C_23
REMARK   11  A    between atoms: C_23  and  C_24
REMARK                            x       y       z     vdW  Elec       q    Type
REMARK                         _______ _______ _______ _____ _____    ______ ____
ROOT
ATOM      1  N   UNL     1       3.888   4.943  18.746  0.00  0.00    +0.000 N 
ATOM      2  C   UNL     1       3.495   3.912  19.603  0.00  0.00    +0.000 A 
ATOM      3  N   UNL     1       2.532   4.303  20.438  0.00  0.00    +0.000 NA
ATOM      4  C   UNL     1       2.328   5.630  20.163  0.00  0.00    +0.000 A 
ATOM      5  C   UNL     1       1.457   6.567  20.748  0.00  0.00    +0.000 A 
ATOM      6  C   UNL     1       1.403   7.868  20.224  0.00  0.00    +0.000 A 
ATOM      7  C   UNL     1       2.283   8.148  19.173  0.00  0.00    +0.000 A 
ATOM      8  N   UNL     1       3.155   7.290  18.580  0.00  0.00    +0.000 NA
ATOM      9  C   UNL     1       3.142   6.055  19.125  0.00  0.00    +0.000 A 
ENDROOT
BRANCH   1  13
ATOM     10  C   UNL     1       6.817   4.680  15.703  0.00  0.00    +0.000 A 
ATOM     11  C   UNL     1       5.469   4.512  15.400  0.00  0.00    +0.000 A 
ATOM     12  C   UNL     1       4.494   4.658  16.387  0.00  0.00    +0.000 A 
ATOM     13  C   UNL     1       4.864   4.916  17.708  0.00  0.00    +0.000 A 
ATOM     14  C   UNL     1       6.220   5.126  18.004  0.00  0.00    +0.000 A 
ATOM     15  C   UNL     1       7.193   4.995  17.007  0.00  0.00    +0.000 A 
BRANCH  10  16
ATOM     16  O   UNL     1       7.665   4.485  14.655  0.00  0.00    +0.000 OA
BRANCH  16  18
ATOM     17  C   UNL     1       7.931   5.476  12.524  0.00  0.00    +0.000 C 
ATOM     18  C   UNL     1       7.085   4.528  13.353  0.00  0.00    +0.000 C 
ENDBRANCH  16  18
ENDBRANCH  10  16
ENDBRANCH   1  13
BRANCH   2  19
ATOM     19  C   UNL     1       4.059   2.579  19.747  0.00  0.00    +0.000 C 
ATOM     20  O   UNL     1       4.977   2.205  20.458  0.00  0.00    +0.000 OA
BRANCH  19  21
ATOM     21  O   UNL     1       3.383   1.700  18.947  0.00  0.00    +0.000 OA
ATOM     22  H   UNL     1       3.150   0.912  19.487  0.00  0.00    +0.000 HD
ENDBRANCH  19  21
ENDBRANCH   2  19
BRANCH   6  23
ATOM     23  N   UNL     1       0.597   8.827  20.844  0.00  0.00    +0.000 N 
ATOM     24  H   UNL     1      -0.367   8.531  20.970  0.00  0.00    +0.000 HD
BRANCH  23  25
ATOM     25  C   UNL     1       0.670  10.232  20.443  0.00  0.00    +0.000 C 
BRANCH  25  26
ATOM     26  C   UNL     1      -0.486  10.554  19.524  0.00  0.00    +0.000 A 
ATOM     27  C   UNL     1      -0.594   9.903  18.286  0.00  0.00    +0.000 A 
ATOM     28  C   UNL     1      -1.668  10.162  17.433  0.00  0.00    +0.000 A 
ATOM     29  C   UNL     1      -2.661  11.078  17.793  0.00  0.00    +0.000 A 
ATOM     30  C   UNL     1      -2.563  11.725  19.033  0.00  0.00    +0.000 A 
ATOM     31  C   UNL     1      -1.484  11.469  19.889  0.00  0.00    +0.000 A 
BRANCH  29  32
ATOM     32  C   UNL     1      -3.811  11.357  16.858  0.00  0.00    +0.000 C 
ATOM     33  C   UNL     1      -3.542  10.892  15.434  0.00  0.00    +0.000 C 
ENDBRANCH  29  32
ENDBRANCH  25  26
ENDBRANCH  23  25
ENDBRANCH   6  23
TORSDOF 9
ENDMDL
MODEL 4
REMARK VINA RESULT:      -7.8      0.884      1.439
REMARK  Name = 
REMARK  11 active torsions:
REMARK  status: ('A' for Active; 'I' for Inactive)
REMARK    1  A    between atoms: C_1  and  C_2
REMARK    2  A    between atoms: C_2  and  O_3
REMARK    3  A    between atoms: O_3  and  C_4
REMARK    4  A    between atoms: C_7  and  N_8
REMARK    5  A    between atoms: C_9  and  C_10
REMARK    6  A    between atoms: C_10  and  O_12
REMARK    7  A    between atoms: C_16  and  N_17
REMARK    8  A    between atoms: N_17  and  C_18
REMARK    9  A    between atoms: C_18  and  C_19
REMARK   10  A    between atoms: C_22  and  C_23
REMARK   11  A    between atoms: C_23  and  C_24
REMARK                            x       y       z     vdW  Elec       q    Type
REMARK                         _______ _______ _______ _____ _____    ______ ____
ROOT
ATOM      1  N   UNL     1       4.027   4.933  18.554  0.00  0.00    +0.000 N 
ATOM      2  C   UNL     1       3.707   3.903  19.443  0.00  0.00    +0.000 A 
ATOM      3  N   UNL     1       2.783   4.282  20.325  0.00  0.00    +0.000 NA
ATOM      4  C   UNL     1       2.531   5.599  20.047  0.00  0.00    +0.000 A 
ATOM      5  C   UNL     1       1.671   6.523  20.669  0.00  0.00    +0.000 A 
ATOM      6  C   UNL     1       1.555   7.815  20.134  0.00  0.00    +0.000 A 
ATOM      7  C   UNL     1       2.369   8.103  19.032  0.00  0.00    +0.000 A 
ATOM      8  N   UNL     1       3.228   7.259  18.402  0.00  0.00    +0.000 NA
ATOM      9  C   UNL     1       3.276   6.031  18.961  0.00  0.00    +0.000 A 
ENDROOT
BRANCH   1  13
ATOM     10  C   UNL     1       6.825   4.721  15.386  0.00  0.00    +0.000 A 
ATOM     11  C   UNL     1       5.538   4.217  15.225  0.00  0.00    +0.000 A 
ATOM     12  C   UNL     1       4.593   4.338  16.243  0.00  0.00    +0.000 A 
ATOM     13  C   UNL     1       4.945   4.916  17.464  0.00  0.00    +0.000 A 
ATOM     14  C   UNL     1       6.230   5.462  17.611  0.00  0.00    +0.000 A 
ATOM     15  C   UNL     1       7.170   5.352  16.579  0.00  0.00    +0.000 A 
BRANCH  10  16
ATOM     16  O   UNL     1       7.655   4.515  14.325  0.00  0.00    +0.000 OA
BRANCH  16  18
ATOM     17  C   UNL     1       7.033   3.752  12.176  0.00  0.00    +0.000 C 
ATOM     18  C   UNL     1       7.192   4.976  13.058  0.00  0.00    +0.000 C 
ENDBRANCH  16  18
ENDBRANCH  10  16
ENDBRANCH   1  13
BRANCH   2  19
ATOM     19  C   UNL     1       4.311   2.586  19.571  0.00  0.00    +0.000 C 
ATOM     20  O   UNL     1       5.036   2.155  20.452  0.00  0.00    +0.000 OA
BRANCH  19  21
ATOM     21  O   UNL     1       3.936   1.800  18.518  0.00  0.00    +0.000 OA
ATOM     22  H   UNL     1       4.750   1.479  18.069  0.00  0.00    +0.000 HD
ENDBRANCH  19  21
ENDBRANCH   2  19
BRANCH   6  23
ATOM     23  N   UNL     1       0.762   8.762  20.786  0.00  0.00    +0.000 N 
ATOM     24  H   UNL     1       0.047   8.355  21.384  0.00  0.00    +0.000 HD
BRANCH  23  25
ATOM     25  C   UNL     1       0.246   9.925  20.064  0.00  0.00    +0.000 C 
BRANCH  25  26
ATOM     26  C   UNL     1      -0.595  10.766  20.998  0.00  0.00    +0.000 A 
ATOM     27  C   UNL     1      -1.352  11.830  20.487  0.00  0.00    +0.000 A 
ATOM     28  C   UNL     1      -2.159  12.602  21.325  0.00  0.00    +0.000 A 
ATOM     29  C   UNL     1      -2.229  12.331  22.696  0.00  0.00    +0.000 A 
ATOM     30  C   UNL     1      -1.481  11.263  23.210  0.00  0.00    +0.000 A 
ATOM     31  C   UNL     1      -0.668  10.489  22.371  0.00  0.00    +0.000 A 
BRANCH  29  32
ATOM     32  C   UNL     1      -3.096  13.179  23.592  0.00  0.00    +0.000 C 
ATOM     33  C   UNL     1      -4.073  12.357  24.421  0.00  0.00    +0.000 C 
ENDBRANCH  29  32
ENDBRANCH  25  26
ENDBRANCH  23  25
ENDBRANCH   6  23
TORSDOF 9
ENDMDL
MODEL 5
REMARK VINA RESULT:      -7.7      0.784      1.445
REMARK  Name = 
REMARK  11 active torsions:
REMARK  status: ('A' for Active; 'I' for Inactive)
REMARK    1  A    between atoms: C_1  and  C_2
REMARK    2  A    between atoms: C_2  and  O_3
REMARK    3  A    between atoms: O_3  and  C_4
REMARK    4  A    between atoms: C_7  and  N_8
REMARK    5  A    between atoms: C_9  and  C_10
REMARK    6  A    between atoms: C_10  and  O_12
REMARK    7  A    between atoms: C_16  and  N_17
REMARK    8  A    between atoms: N_17  and  C_18
REMARK    9  A    between atoms: C_18  and  C_19
REMARK   10  A    between atoms: C_22  and  C_23
REMARK   11  A    between atoms: C_23  and  C_24
REMARK                            x       y       z     vdW  Elec       q    Type
REMARK                         _______ _______ _______ _____ _____    ______ ____
ROOT
ATOM      1  N   UNL     1       3.891   4.683  18.720  0.00  0.00    +0.000 N 
ATOM      2  C   UNL     1       3.595   3.658  19.622  0.00  0.00    +0.000 A 
ATOM      3  N   UNL     1       2.707   4.045  20.537  0.00  0.00    +0.000 NA
ATOM      4  C   UNL     1       2.456   5.365  20.265  0.00  0.00    +0.000 A 
ATOM      5  C   UNL     1       1.628   6.297  20.917  0.00  0.00    +0.000 A 
ATOM      6  C   UNL     1       1.504   7.589  20.384  0.00  0.00    +0.000 A 
ATOM      7  C   UNL     1       2.279   7.868  19.253  0.00  0.00    +0.000 A 
ATOM      8  N   UNL     1       3.107   7.016  18.593  0.00  0.00    +0.000 NA
ATOM      9  C   UNL     1       3.164   5.788  19.152  0.00  0.00    +0.000 A 
ENDROOT
BRANCH   1  13
ATOM     10  C   UNL     1       6.531   4.423  15.422  0.00  0.00    +0.000 A 
ATOM     11  C   UNL     1       5.161   4.249  15.245  0.00  0.00    +0.000 A 
ATOM     12  C   UNL     1       4.280   4.394  16.316  0.00  0.00    +0.000 A 
ATOM     13  C   UNL     1       4.768   4.657  17.597  0.00  0.00    +0.000 A 
ATOM     14  C   UNL     1       6.145   4.873  17.767  0.00  0.00    +0.000 A 
ATOM     15  C   UNL     1       7.023   4.743  16.686  0.00  0.00    +0.000 A 
BRANCH  10  16
ATOM     16  O   UNL     1       7.280   4.229  14.301  0.00  0.00    +0.000 OA
BRANCH  16  18
ATOM     17  C   UNL     1       7.282   4.479  11.950  0.00  0.00    +0.000 C 
ATOM     18  C   UNL     1       6.575   3.834  13.126  0.00  0.00    +0.000 C 
ENDBRANCH  16  18
ENDBRANCH  10  16
ENDBRANCH   1  13
BRANCH   2  19
ATOM     19  C   UNL     1       4.192   2.335  19.729  0.00  0.00    +0.000 C 
ATOM     20  O   UNL     1       5.050   1.940  20.501  0.00  0.00    +0.000 OA
BRANCH  19  21
ATOM     21  O   UNL     1       3.630   1.497  18.807  0.00  0.00    +0.000 OA
ATOM     22  H   UNL     1       3.334   0.683  19.274  0.00  0.00    +0.000 HD
ENDBRANCH  19  21
ENDBRANCH   2  19
BRANCH   6  23
ATOM     23  N   UNL     1       0.743   8.544  21.063  0.00  0.00    +0.000 N 
ATOM     24  H   UNL     1      -0.234   8.283  21.178  0.00  0.00    +0.000 HD
BRANCH  23  25
ATOM     25  C   UNL     1       0.875   9.965  20.745  0.00  0.00    +0.000 C 
BRANCH  25  26
ATOM     26  C   UNL     1      -0.285  10.726  21.346  0.00  0.00    +0.000 A 
ATOM     27  C   UNL     1      -0.616  10.539  22.696  0.00  0.00    +0.000 A 
ATOM     28  C   UNL     1      -1.664  11.251  23.282  0.00  0.00    +0.000 A 
ATOM     29  C   UNL     1      -2.408  12.169  22.534  0.00  0.00    +0.000 A 
ATOM     30  C   UNL     1      -2.076  12.367  21.186  0.00  0.00    +0.000 A 
ATOM     31  C   UNL     1      -1.027  11.650  20.596  0.00  0.00    +0.000 A 
BRANCH  29  32
ATOM     32  C   UNL     1      -3.545  12.925  23.175  0.00  0.00    +0.000 C 
ATOM     33  C   UNL     1      -3.791  14.282  22.531  0.00  0.00    +0.000 C 
ENDBRANCH  29  32
ENDBRANCH  25  26
ENDBRANCH  23  25
ENDBRANCH   6  23
TORSDOF 9
ENDMDL
MODEL 6
REMARK VINA RESULT:      -7.7      4.656     11.113
REMARK  Name = 
REMARK  11 active torsions:
REMARK  status: ('A' for Active; 'I' for Inactive)
REMARK    1  A    between atoms: C_1  and  C_2
REMARK    2  A    between atoms: C_2  and  O_3
REMARK    3  A    between atoms: O_3  and  C_4
REMARK    4  A    between atoms: C_7  and  N_8
REMARK    5  A    between atoms: C_9  and  C_10
REMARK    6  A    between atoms: C_10  and  O_12
REMARK    7  A    between atoms: C_16  and  N_17
REMARK    8  A    between atoms: N_17  and  C_18
REMARK    9  A    between atoms: C_18  and  C_19
REMARK   10  A    between atoms: C_22  and  C_23
REMARK   11  A    between atoms: C_23  and  C_24
REMARK                            x       y       z     vdW  Elec       q    Type
REMARK                         _______ _______ _______ _____ _____    ______ ____
ROOT
ATOM      1  N   UNL     1      -0.188  11.376  20.387  0.00  0.00    +0.000 N 
ATOM      2  C   UNL     1      -0.149  11.723  19.034  0.00  0.00    +0.000 A 
ATOM      3  N   UNL     1       0.477  10.800  18.305  0.00  0.00    +0.000 NA
ATOM      4  C   UNL     1       0.905   9.856  19.201  0.00  0.00    +0.000 A 
ATOM      5  C   UNL     1       1.645   8.675  19.010  0.00  0.00    +0.000 A 
ATOM      6  C   UNL     1       1.898   7.842  20.111  0.00  0.00    +0.000 A 
ATOM      7  C   UNL     1       1.432   8.298  21.350  0.00  0.00    +0.000 A 
ATOM      8  N   UNL     1       0.729   9.435  21.597  0.00  0.00    +0.000 NA
ATOM      9  C   UNL     1       0.510  10.176  20.490  0.00  0.00    +0.000 A 
ENDROOT
BRANCH   1  13
ATOM     10  C   UNL     1      -2.033  13.593  23.484  0.00  0.00    +0.000 A 
ATOM     11  C   UNL     1      -2.625  12.429  23.001  0.00  0.00    +0.000 A 
ATOM     12  C   UNL     1      -1.992  11.661  22.023  0.00  0.00    +0.000 A 
ATOM     13  C   UNL     1      -0.781  12.084  21.473  0.00  0.00    +0.000 A 
ATOM     14  C   UNL     1      -0.165  13.235  21.989  0.00  0.00    +0.000 A 
ATOM     15  C   UNL     1      -0.797  13.993  22.982  0.00  0.00    +0.000 A 
BRANCH  10  16
ATOM     16  O   UNL     1      -2.768  14.261  24.418  0.00  0.00    +0.000 OA
BRANCH  16  18
ATOM     17  C   UNL     1      -2.768  16.566  24.942  0.00  0.00    +0.000 C 
ATOM     18  C   UNL     1      -2.074  15.240  25.189  0.00  0.00    +0.000 C 
ENDBRANCH  16  18
ENDBRANCH  10  16
ENDBRANCH   1  13
BRANCH   2  19
ATOM     19  C   UNL     1      -0.592  12.952  18.394  0.00  0.00    +0.000 C 
ATOM     20  O   UNL     1      -0.346  14.108  18.696  0.00  0.00    +0.000 OA
BRANCH  19  21
ATOM     21  O   UNL     1      -1.365  12.656  17.307  0.00  0.00    +0.000 OA
ATOM     22  H   UNL     1      -1.166  13.312  16.601  0.00  0.00    +0.000 HD
ENDBRANCH  19  21
ENDBRANCH   2  19
BRANCH   6  23
ATOM     23  N   UNL     1       2.694   6.705  19.946  0.00  0.00    +0.000 N 
ATOM     24  H   UNL     1       3.688   6.907  19.887  0.00  0.00    +0.000 HD
BRANCH  23  25
ATOM     25  C   UNL     1       2.310   5.659  18.999  0.00  0.00    +0.000 C 
BRANCH  25  26
ATOM     26  C   UNL     1       3.393   5.502  17.957  0.00  0.00    +0.000 A 
ATOM     27  C   UNL     1       3.662   4.236  17.416  0.00  0.00    +0.000 A 
ATOM     28  C   UNL     1       4.637   4.070  16.431  0.00  0.00    +0.000 A 
ATOM     29  C   UNL     1       5.370   5.165  15.961  0.00  0.00    +0.000 A 
ATOM     30  C   UNL     1       5.099   6.435  16.492  0.00  0.00    +0.000 A 
ATOM     31  C   UNL     1       4.123   6.602  17.482  0.00  0.00    +0.000 A 
BRANCH  29  32
ATOM     32  C   UNL     1       6.428   4.972  14.904  0.00  0.00    +0.000 C 
ATOM     33  C   UNL     1       6.039   3.934  13.860  0.00  0.00    +0.000 C 
ENDBRANCH  29  32
ENDBRANCH  25  26
ENDBRANCH  23  25
ENDBRANCH   6  23
TORSDOF 9
ENDMDL
MODEL 7
REMARK VINA RESULT:      -7.7      2.004      2.625
REMARK  Name = 
REMARK  11 active torsions:
REMARK  status: ('A' for Active; 'I' for Inactive)
REMARK    1  A    between atoms: C_1  and  C_2
REMARK    2  A    between atoms: C_2  and  O_3
REMARK    3  A    between atoms: O_3  and  C_4
REMARK    4  A    between atoms: C_7  and  N_8
REMARK    5  A    between atoms: C_9  and  C_10
REMARK    6  A    between atoms: C_10  and  O_12
REMARK    7  A    between atoms: C_16  and  N_17
REMARK    8  A    between atoms: N_17  and  C_18
REMARK    9  A    between atoms: C_18  and  C_19
REMARK   10  A    between atoms: C_22  and  C_23
REMARK   11  A    between atoms: C_23  and  C_24
REMARK                            x       y       z     vdW  Elec       q    Type
REMARK                         _______ _______ _______ _____ _____    ______ ____
ROOT
ATOM      1  N   UNL     1       4.045   5.095  18.098  0.00  0.00    +0.000 N 
ATOM      2  C   UNL     1       3.775   4.175  19.114  0.00  0.00    +0.000 A 
ATOM      3  N   UNL     1       2.924   4.668  20.014  0.00  0.00    +0.000 NA
ATOM      4  C   UNL     1       2.673   5.953  19.612  0.00  0.00    +0.000 A 
ATOM      5  C   UNL     1       1.875   6.958  20.189  0.00  0.00    +0.000 A 
ATOM      6  C   UNL     1       1.740   8.188  19.526  0.00  0.00    +0.000 A 
ATOM      7  C   UNL     1       2.475   8.336  18.344  0.00  0.00    +0.000 A 
ATOM      8  N   UNL     1       3.272   7.409  17.750  0.00  0.00    +0.000 NA
ATOM      9  C   UNL     1       3.342   6.248  18.435  0.00  0.00    +0.000 A 
ENDROOT
BRANCH   1  13
ATOM     10  C   UNL     1       6.584   4.469  14.771  0.00  0.00    +0.000 A 
ATOM     11  C   UNL     1       5.248   4.081  14.721  0.00  0.00    +0.000 A 
ATOM     12  C   UNL     1       4.391   4.340  15.790  0.00  0.00    +0.000 A 
ATOM     13  C   UNL     1       4.879   4.939  16.953  0.00  0.00    +0.000 A 
ATOM     14  C   UNL     1       6.216   5.367  16.986  0.00  0.00    +0.000 A 
ATOM     15  C   UNL     1       7.068   5.120  15.904  0.00  0.00    +0.000 A 
BRANCH  10  16
ATOM     16  O   UNL     1       7.317   4.134  13.671  0.00  0.00    +0.000 OA
BRANCH  16  18
ATOM     17  C   UNL     1       6.970   2.769  11.773  0.00  0.00    +0.000 C 
ATOM     18  C   UNL     1       6.614   4.088  12.431  0.00  0.00    +0.000 C 
ENDBRANCH  16  18
ENDBRANCH  10  16
ENDBRANCH   1  13
BRANCH   2  19
ATOM     19  C   UNL     1       4.367   2.865  19.341  0.00  0.00    +0.000 C 
ATOM     20  O   UNL     1       5.154   2.517  20.205  0.00  0.00    +0.000 OA
BRANCH  19  21
ATOM     21  O   UNL     1       3.894   1.976  18.417  0.00  0.00    +0.000 OA
ATOM     22  H   UNL     1       4.181   1.074  18.685  0.00  0.00    +0.000 HD
ENDBRANCH  19  21
ENDBRANCH   2  19
BRANCH   6  23
ATOM     23  N   UNL     1       1.012   9.218  20.126  0.00  0.00    +0.000 N 
ATOM     24  H   UNL     1       0.109   8.923  20.488  0.00  0.00    +0.000 HD
BRANCH  23  25
ATOM     25  C   UNL     1       0.922  10.533  19.493  0.00  0.00    +0.000 C 
BRANCH  25  26
ATOM     26  C   UNL     1      -0.442  10.696  18.863  0.00  0.00    +0.000 A 
ATOM     27  C   UNL     1      -0.770   9.964  17.712  0.00  0.00    +0.000 A 
ATOM     28  C   UNL     1      -2.034  10.076  17.128  0.00  0.00    +0.000 A 
ATOM     29  C   UNL     1      -3.002  10.922  17.679  0.00  0.00    +0.000 A 
ATOM     30  C   UNL     1      -2.682  11.649  18.834  0.00  0.00    +0.000 A 
ATOM     31  C   UNL     1      -1.414  11.541  19.419  0.00  0.00    +0.000 A 
BRANCH  29  32
ATOM     32  C   UNL     1      -4.359  11.041  17.034  0.00  0.00    +0.000 C 
ATOM     33  C   UNL     1      -5.490  11.147  18.047  0.00  0.00    +0.000 C 
ENDBRANCH  29  32
ENDBRANCH  25  26
ENDBRANCH  23  25
ENDBRANCH   6  23
TORSDOF 9
ENDMDL
MODEL 8
REMARK VINA RESULT:      -7.7      0.440      1.067
REMARK  Name = 
REMARK  11 active torsions:
REMARK  status: ('A' for Active; 'I' for Inactive)
REMARK    1  A    between atoms: C_1  and  C_2
REMARK    2  A    between atoms: C_2  and  O_3
REMARK    3  A    between atoms: O_3  and  C_4
REMARK    4  A    between atoms: C_7  and  N_8
REMARK    5  A    between atoms: C_9  and  C_10
REMARK    6  A    between atoms: C_10  and  O_12
REMARK    7  A    between atoms: C_16  and  N_17
REMARK    8  A    between atoms: N_17  and  C_18
REMARK    9  A    between atoms: C_18  and  C_19
REMARK   10  A    between atoms: C_22  and  C_23
REMARK   11  A    between atoms: C_23  and  C_24
REMARK                            x       y       z     vdW  Elec       q    Type
REMARK                         _______ _______ _______ _____ _____    ______ ____
ROOT
ATOM      1  N   UNL     1       4.024   4.540  18.829  0.00  0.00    +0.000 N 
ATOM      2  C   UNL     1       3.745   3.437  19.639  0.00  0.00    +0.000 A 
ATOM      3  N   UNL     1       2.801   3.710  20.540  0.00  0.00    +0.000 NA
ATOM      4  C   UNL     1       2.494   5.033  20.355  0.00  0.00    +0.000 A 
ATOM      5  C   UNL     1       1.593   5.872  21.036  0.00  0.00    +0.000 A 
ATOM      6  C   UNL     1       1.424   7.193  20.595  0.00  0.00    +0.000 A 
ATOM      7  C   UNL     1       2.230   7.594  19.523  0.00  0.00    +0.000 A 
ATOM      8  N   UNL     1       3.127   6.836  18.840  0.00  0.00    +0.000 NA
ATOM      9  C   UNL     1       3.224   5.573  19.309  0.00  0.00    +0.000 A 
ENDROOT
BRANCH   1  13
ATOM     10  C   UNL     1       6.774   5.028  15.650  0.00  0.00    +0.000 A 
ATOM     11  C   UNL     1       7.218   4.656  16.915  0.00  0.00    +0.000 A 
ATOM     12  C   UNL     1       6.312   4.435  17.952  0.00  0.00    +0.000 A 
ATOM     13  C   UNL     1       4.946   4.642  17.747  0.00  0.00    +0.000 A 
ATOM     14  C   UNL     1       4.496   4.975  16.460  0.00  0.00    +0.000 A 
ATOM     15  C   UNL     1       5.408   5.180  15.419  0.00  0.00    +0.000 A 
BRANCH  10  16
ATOM     16  O   UNL     1       7.763   5.236  14.736  0.00  0.00    +0.000 OA
BRANCH  16  18
ATOM     17  C   UNL     1       6.683   3.822  13.180  0.00  0.00    +0.000 C 
ATOM     18  C   UNL     1       7.388   5.152  13.363  0.00  0.00    +0.000 C 
ENDBRANCH  16  18
ENDBRANCH  10  16
ENDBRANCH   1  13
BRANCH   2  19
ATOM     19  C   UNL     1       4.404   2.140  19.675  0.00  0.00    +0.000 C 
ATOM     20  O   UNL     1       5.176   1.694  20.507  0.00  0.00    +0.000 OA
BRANCH  19  21
ATOM     21  O   UNL     1       4.022   1.395  18.595  0.00  0.00    +0.000 OA
ATOM     22  H   UNL     1       3.038   1.382  18.564  0.00  0.00    +0.000 HD
ENDBRANCH  19  21
ENDBRANCH   2  19
BRANCH   6  23
ATOM     23  N   UNL     1       0.588   8.056  21.308  0.00  0.00    +0.000 N 
ATOM     24  H   UNL     1      -0.334   8.167  20.894  0.00  0.00    +0.000 HD
BRANCH  23  25
ATOM     25  C   UNL     1       1.094   9.330  21.820  0.00  0.00    +0.000 C 
BRANCH  25  26
ATOM     26  C   UNL     1      -0.036  10.332  21.882  0.00  0.00    +0.000 A 
ATOM     27  C   UNL     1      -0.758  10.494  23.072  0.00  0.00    +0.000 A 
ATOM     28  C   UNL     1      -1.787  11.434  23.164  0.00  0.00    +0.000 A 
ATOM     29  C   UNL     1      -2.120  12.236  22.067  0.00  0.00    +0.000 A 
ATOM     30  C   UNL     1      -1.394  12.084  20.876  0.00  0.00    +0.000 A 
ATOM     31  C   UNL     1      -0.365  11.139  20.783  0.00  0.00    +0.000 A 
BRANCH  29  32
ATOM     32  C   UNL     1      -3.239  13.240  22.174  0.00  0.00    +0.000 C 
ATOM     33  C   UNL     1      -2.805  14.653  21.810  0.00  0.00    +0.000 C 
ENDBRANCH  29  32
ENDBRANCH  25  26
ENDBRANCH  23  25
ENDBRANCH   6  23
TORSDOF 9
ENDMDL
MODEL 9
REMARK VINA RESULT:      -7.7      1.606      1.985
REMARK  Name = 
REMARK  11 active torsions:
REMARK  status: ('A' for Active; 'I' for Inactive)
REMARK    1  A    between atoms: C_1  and  C_2
REMARK    2  A    between atoms: C_2  and  O_3
REMARK    3  A    between atoms: O_3  and  C_4
REMARK    4  A    between atoms: C_7  and  N_8
REMARK    5  A    between atoms: C_9  and  C_10
REMARK    6  A    between atoms: C_10  and  O_12
REMARK    7  A    between atoms: C_16  and  N_17
REMARK    8  A    between atoms: N_17  and  C_18
REMARK    9  A    between atoms: C_18  and  C_19
REMARK   10  A    between atoms: C_22  and  C_23
REMARK   11  A    between atoms: C_23  and  C_24
REMARK                            x       y       z     vdW  Elec       q    Type
REMARK                         _______ _______ _______ _____ _____    ______ ____
ROOT
ATOM      1  N   UNL     1       3.942   4.460  18.691  0.00  0.00    +0.000 N 
ATOM      2  C   UNL     1       3.536   3.325  19.398  0.00  0.00    +0.000 A 
ATOM      3  N   UNL     1       2.595   3.612  20.297  0.00  0.00    +0.000 NA
ATOM      4  C   UNL     1       2.419   4.969  20.219  0.00  0.00    +0.000 A 
ATOM      5  C   UNL     1       1.580   5.832  20.948  0.00  0.00    +0.000 A 
ATOM      6  C   UNL     1       1.550   7.195  20.618  0.00  0.00    +0.000 A 
ATOM      7  C   UNL     1       2.421   7.604  19.602  0.00  0.00    +0.000 A 
ATOM      8  N   UNL     1       3.264   6.821  18.876  0.00  0.00    +0.000 NA
ATOM      9  C   UNL     1       3.228   5.521  19.239  0.00  0.00    +0.000 A 
ENDROOT
BRANCH   1  13
ATOM     10  C   UNL     1       6.740   4.941  15.554  0.00  0.00    +0.000 A 
ATOM     11  C   UNL     1       7.132   5.108  16.879  0.00  0.00    +0.000 A 
ATOM     12  C   UNL     1       6.229   4.891  17.920  0.00  0.00    +0.000 A 
ATOM     13  C   UNL     1       4.902   4.561  17.643  0.00  0.00    +0.000 A 
ATOM     14  C   UNL     1       4.519   4.352  16.308  0.00  0.00    +0.000 A 
ATOM     15  C   UNL     1       5.432   4.555  15.268  0.00  0.00    +0.000 A 
BRANCH  10  16
ATOM     16  O   UNL     1       7.710   5.208  14.634  0.00  0.00    +0.000 OA
BRANCH  16  18
ATOM     17  C   UNL     1       8.235   5.787  12.403  0.00  0.00    +0.000 C 
ATOM     18  C   UNL     1       7.417   4.860  13.283  0.00  0.00    +0.000 C 
ENDBRANCH  16  18
ENDBRANCH  10  16
ENDBRANCH   1  13
BRANCH   2  19
ATOM     19  C   UNL     1       4.070   1.972  19.339  0.00  0.00    +0.000 C 
ATOM     20  O   UNL     1       3.711   1.034  18.647  0.00  0.00    +0.000 OA
BRANCH  19  21
ATOM     21  O   UNL     1       5.123   1.852  20.201  0.00  0.00    +0.000 OA
ATOM     22  H   UNL     1       5.429   2.756  20.439  0.00  0.00    +0.000 HD
ENDBRANCH  19  21
ENDBRANCH   2  19
BRANCH   6  23
ATOM     23  N   UNL     1       0.777   8.072  21.382  0.00  0.00    +0.000 N 
ATOM     24  H   UNL     1       0.605   7.746  22.330  0.00  0.00    +0.000 HD
BRANCH  23  25
ATOM     25  C   UNL     1      -0.417   8.700  20.816  0.00  0.00    +0.000 C 
BRANCH  25  26
ATOM     26  C   UNL     1      -0.081  10.101  20.359  0.00  0.00    +0.000 A 
ATOM     27  C   UNL     1       0.853  10.862  21.077  0.00  0.00    +0.000 A 
ATOM     28  C   UNL     1       1.202  12.148  20.658  0.00  0.00    +0.000 A 
ATOM     29  C   UNL     1       0.627  12.705  19.510  0.00  0.00    +0.000 A 
ATOM     30  C   UNL     1      -0.300  11.944  18.784  0.00  0.00    +0.000 A 
ATOM     31  C   UNL     1      -0.654  10.656  19.206  0.00  0.00    +0.000 A 
BRANCH  29  32
ATOM     32  C   UNL     1       1.005  14.098  19.074  0.00  0.00    +0.000 C 
ATOM     33  C   UNL     1      -0.204  14.978  18.790  0.00  0.00    +0.000 C 
ENDBRANCH  29  32
ENDBRANCH  25  26
ENDBRANCH  23  25
ENDBRANCH   6  23
TORSDOF 9
ENDMDL
