MODEL 1
REMARK VINA RESULT:      -7.3      0.000      0.000
REMARK  Name = 
REMARK  10 active torsions:
REMARK  status: ('A' for Active; 'I' for Inactive)
REMARK    1  A    between atoms: C_3  and  C_4
REMARK    2  A    between atoms: C_11  and  O_12
REMARK    3  A    between atoms: O_12  and  C_13
REMARK    4  A    between atoms: C_13  and  C_14
REMARK    5  A    between atoms: C_14  and  O_15
REMARK    6  A    between atoms: O_15  and  C_16
REMARK    7  A    between atoms: C_16  and  C_17
REMARK    8  A    between atoms: C_17  and  O_18
REMARK    9  A    between atoms: O_18  and  C_19
REMARK   10  A    between atoms: C_22  and  C_23
REMARK                            x       y       z     vdW  Elec       q    Type
REMARK                         _______ _______ _______ _____ _____    ______ ____
ROOT
ATOM      1  O   UNL     1       0.438   3.286  20.208  0.00  0.00    +0.000 OA
ENDROOT
BRANCH   1   2
ATOM      2  C   UNL     1       0.387   2.693  18.910  0.00  0.00    +0.000 C 
BRANCH   2   3
ATOM      3  C   UNL     1       1.764   2.278  18.404  0.00  0.00    +0.000 C 
BRANCH   3   4
ATOM      4  O   UNL     1       2.158   3.091  17.300  0.00  0.00    +0.000 OA
BRANCH   4  10
ATOM      5  C   UNL     1       4.363   3.307  18.363  0.00  0.00    +0.000 A 
ATOM      6  C   UNL     1       5.669   3.787  18.267  0.00  0.00    +0.000 A 
ATOM      7  C   UNL     1       6.126   4.415  17.098  0.00  0.00    +0.000 A 
ATOM      8  C   UNL     1       5.248   4.501  16.006  0.00  0.00    +0.000 A 
ATOM      9  C   UNL     1       3.938   4.019  16.104  0.00  0.00    +0.000 A 
ATOM     10  C   UNL     1       3.480   3.450  17.292  0.00  0.00    +0.000 A 
BRANCH   7  11
ATOM     11  C   UNL     1       7.471   5.125  17.149  0.00  0.00    +0.000 C 
ATOM     12  N   UNL     1       7.529   6.419  16.498  0.00  0.00    +0.000 NA
ATOM     13  C   UNL     1       7.462   7.431  17.540  0.00  0.00    +0.000 C 
ATOM     14  C   UNL     1       8.009   6.741  18.773  0.00  0.00    +0.000 C 
ATOM     15  N   UNL     1       7.877   5.307  18.538  0.00  0.00    +0.000 NA
ATOM     16  H   UNL     1       6.791   6.522  15.810  0.00  0.00    +0.000 HD
ATOM     17  H   UNL     1       7.148   4.929  19.140  0.00  0.00    +0.000 HD
ENDBRANCH   7  11
ENDBRANCH   4  10
ENDBRANCH   3   4
ENDBRANCH   2   3
ENDBRANCH   1   2
BRANCH   1  18
ATOM     18  C   UNL     1       1.722   3.327  20.840  0.00  0.00    +0.000 C 
BRANCH  18  19
ATOM     19  C   UNL     1       2.191   4.728  21.239  0.00  0.00    +0.000 C 
BRANCH  19  20
ATOM     20  O   UNL     1       2.934   5.273  20.147  0.00  0.00    +0.000 OA
BRANCH  20  21
ATOM     21  C   UNL     1       2.489   6.469  19.665  0.00  0.00    +0.000 A 
ATOM     22  C   UNL     1       1.812   7.269  20.582  0.00  0.00    +0.000 A 
ATOM     23  C   UNL     1       1.313   8.520  20.200  0.00  0.00    +0.000 A 
ATOM     24  C   UNL     1       1.502   8.999  18.898  0.00  0.00    +0.000 A 
ATOM     25  C   UNL     1       2.199   8.186  17.992  0.00  0.00    +0.000 A 
ATOM     26  C   UNL     1       2.691   6.934  18.370  0.00  0.00    +0.000 A 
BRANCH  24  27
ATOM     27  C   UNL     1       0.947  10.354  18.493  0.00  0.00    +0.000 C 
ATOM     28  N   UNL     1      -0.264  10.253  17.691  0.00  0.00    +0.000 NA
ATOM     29  C   UNL     1      -1.377  10.556  18.575  0.00  0.00    +0.000 C 
ATOM     30  C   UNL     1      -0.777  11.550  19.547  0.00  0.00    +0.000 C 
ATOM     31  N   UNL     1       0.636  11.189  19.651  0.00  0.00    +0.000 NA
ATOM     32  H   UNL     1      -0.343   9.325  17.284  0.00  0.00    +0.000 HD
ATOM     33  H   UNL     1       0.804  10.654  20.498  0.00  0.00    +0.000 HD
ENDBRANCH  24  27
ENDBRANCH  20  21
ENDBRANCH  19  20
ENDBRANCH  18  19
ENDBRANCH   1  18
TORSDOF 10
ENDMDL
MODEL 2
REMARK VINA RESULT:      -6.9      1.518      2.226
REMARK  Name = 
REMARK  10 active torsions:
REMARK  status: ('A' for Active; 'I' for Inactive)
REMARK    1  A    between atoms: C_3  and  C_4
REMARK    2  A    between atoms: C_11  and  O_12
REMARK    3  A    between atoms: O_12  and  C_13
REMARK    4  A    between atoms: C_13  and  C_14
REMARK    5  A    between atoms: C_14  and  O_15
REMARK    6  A    between atoms: O_15  and  C_16
REMARK    7  A    between atoms: C_16  and  C_17
REMARK    8  A    between atoms: C_17  and  O_18
REMARK    9  A    between atoms: O_18  and  C_19
REMARK   10  A    between atoms: C_22  and  C_23
REMARK                            x       y       z     vdW  Elec       q    Type
REMARK                         _______ _______ _______ _____ _____    ______ ____
ROOT
ATOM      1  O   UNL     1       1.956   4.730  21.232  0.00  0.00    +0.000 OA
ENDROOT
BRANCH   1   2
ATOM      2  C   UNL     1       1.562   3.357  21.240  0.00  0.00    +0.000 C 
BRANCH   2   3
ATOM      3  C   UNL     1       1.547   2.747  19.843  0.00  0.00    +0.000 C 
BRANCH   3   4
ATOM      4  O   UNL     1       2.781   2.083  19.574  0.00  0.00    +0.000 OA
BRANCH   4  10
ATOM      5  C   UNL     1       4.794   3.475  19.358  0.00  0.00    +0.000 A 
ATOM      6  C   UNL     1       5.593   4.260  18.527  0.00  0.00    +0.000 A 
ATOM      7  C   UNL     1       5.302   4.398  17.160  0.00  0.00    +0.000 A 
ATOM      8  C   UNL     1       4.213   3.681  16.640  0.00  0.00    +0.000 A 
ATOM      9  C   UNL     1       3.413   2.894  17.475  0.00  0.00    +0.000 A 
ATOM     10  C   UNL     1       3.680   2.813  18.842  0.00  0.00    +0.000 A 
BRANCH   7  11
ATOM     11  C   UNL     1       6.064   5.454  16.372  0.00  0.00    +0.000 C 
ATOM     12  N   UNL     1       5.471   6.776  16.347  0.00  0.00    +0.000 NA
ATOM     13  C   UNL     1       6.207   7.597  17.294  0.00  0.00    +0.000 C 
ATOM     14  C   UNL     1       7.578   6.955  17.366  0.00  0.00    +0.000 C 
ATOM     15  N   UNL     1       7.416   5.582  16.903  0.00  0.00    +0.000 NA
ATOM     16  H   UNL     1       4.479   6.741  16.555  0.00  0.00    +0.000 HD
ATOM     17  H   UNL     1       7.516   4.942  17.689  0.00  0.00    +0.000 HD
ENDBRANCH   7  11
ENDBRANCH   4  10
ENDBRANCH   3   4
ENDBRANCH   2   3
ENDBRANCH   1   2
BRANCH   1  18
ATOM     18  C   UNL     1       1.460   5.529  20.153  0.00  0.00    +0.000 C 
BRANCH  18  19
ATOM     19  C   UNL     1       2.401   6.651  19.707  0.00  0.00    +0.000 C 
BRANCH  19  20
ATOM     20  O   UNL     1       2.104   7.813  20.483  0.00  0.00    +0.000 OA
BRANCH  20  21
ATOM     21  C   UNL     1       1.312   8.744  19.878  0.00  0.00    +0.000 A 
ATOM     22  C   UNL     1       0.332   9.313  20.688  0.00  0.00    +0.000 A 
ATOM     23  C   UNL     1      -0.537  10.283  20.175  0.00  0.00    +0.000 A 
ATOM     24  C   UNL     1      -0.425  10.714  18.848  0.00  0.00    +0.000 A 
ATOM     25  C   UNL     1       0.577  10.142  18.051  0.00  0.00    +0.000 A 
ATOM     26  C   UNL     1       1.441   9.168  18.560  0.00  0.00    +0.000 A 
BRANCH  24  27
ATOM     27  C   UNL     1      -1.381  11.761  18.301  0.00  0.00    +0.000 C 
ATOM     28  N   UNL     1      -1.751  11.520  16.913  0.00  0.00    +0.000 NA
ATOM     29  C   UNL     1      -3.087  10.949  16.930  0.00  0.00    +0.000 C 
ATOM     30  C   UNL     1      -3.718  11.598  18.143  0.00  0.00    +0.000 C 
ATOM     31  N   UNL     1      -2.617  11.835  19.076  0.00  0.00    +0.000 NA
ATOM     32  H   UNL     1      -1.078  10.902  16.470  0.00  0.00    +0.000 HD
ATOM     33  H   UNL     1      -2.601  11.116  19.794  0.00  0.00    +0.000 HD
ENDBRANCH  24  27
ENDBRANCH  20  21
ENDBRANCH  19  20
ENDBRANCH  18  19
ENDBRANCH   1  18
TORSDOF 10
ENDMDL
MODEL 3
REMARK VINA RESULT:      -6.7      2.429      3.415
REMARK  Name = 
REMARK  10 active torsions:
REMARK  status: ('A' for Active; 'I' for Inactive)
REMARK    1  A    between atoms: C_3  and  C_4
REMARK    2  A    between atoms: C_11  and  O_12
REMARK    3  A    between atoms: O_12  and  C_13
REMARK    4  A    between atoms: C_13  and  C_14
REMARK    5  A    between atoms: C_14  and  O_15
REMARK    6  A    between atoms: O_15  and  C_16
REMARK    7  A    between atoms: C_16  and  C_17
REMARK    8  A    between atoms: C_17  and  O_18
REMARK    9  A    between atoms: O_18  and  C_19
REMARK   10  A    between atoms: C_22  and  C_23
REMARK                            x       y       z     vdW  Elec       q    Type
REMARK                         _______ _______ _______ _____ _____    ______ ____
ROOT
ATOM      1  O   UNL     1       1.859   5.507  20.913  0.00  0.00    +0.000 OA
ENDROOT
BRANCH   1   2
ATOM      2  C   UNL     1       0.998   4.403  20.629  0.00  0.00    +0.000 C 
BRANCH   2   3
ATOM      3  C   UNL     1       1.574   3.075  21.109  0.00  0.00    +0.000 C 
BRANCH   3   4
ATOM      4  O   UNL     1       1.917   2.249  19.999  0.00  0.00    +0.000 OA
BRANCH   4  10
ATOM      5  C   UNL     1       4.162   3.179  19.637  0.00  0.00    +0.000 A 
ATOM      6  C   UNL     1       5.065   3.746  18.738  0.00  0.00    +0.000 A 
ATOM      7  C   UNL     1       4.744   3.888  17.379  0.00  0.00    +0.000 A 
ATOM      8  C   UNL     1       3.506   3.395  16.937  0.00  0.00    +0.000 A 
ATOM      9  C   UNL     1       2.601   2.827  17.840  0.00  0.00    +0.000 A 
ATOM     10  C   UNL     1       2.911   2.745  19.197  0.00  0.00    +0.000 A 
BRANCH   7  11
ATOM     11  C   UNL     1       5.669   4.729  16.511  0.00  0.00    +0.000 C 
ATOM     12  N   UNL     1       5.227   6.083  16.242  0.00  0.00    +0.000 NA
ATOM     13  C   UNL     1       5.982   6.966  17.117  0.00  0.00    +0.000 C 
ATOM     14  C   UNL     1       7.266   6.212  17.398  0.00  0.00    +0.000 C 
ATOM     15  N   UNL     1       6.987   4.806  17.131  0.00  0.00    +0.000 NA
ATOM     16  H   UNL     1       4.225   6.178  16.367  0.00  0.00    +0.000 HD
ATOM     17  H   UNL     1       6.962   4.290  18.008  0.00  0.00    +0.000 HD
ENDBRANCH   7  11
ENDBRANCH   4  10
ENDBRANCH   3   4
ENDBRANCH   2   3
ENDBRANCH   1   2
BRANCH   1  18
ATOM     18  C   UNL     1       2.176   6.367  19.815  0.00  0.00    +0.000 C 
BRANCH  18  19
ATOM     19  C   UNL     1       1.983   7.859  20.098  0.00  0.00    +0.000 C 
BRANCH  19  20
ATOM     20  O   UNL     1       1.442   7.993  21.413  0.00  0.00    +0.000 OA
BRANCH  20  21
ATOM     21  C   UNL     1       0.736   9.135  21.651  0.00  0.00    +0.000 A 
ATOM     22  C   UNL     1      -0.090   9.105  22.772  0.00  0.00    +0.000 A 
ATOM     23  C   UNL     1      -0.860  10.222  23.116  0.00  0.00    +0.000 A 
ATOM     24  C   UNL     1      -0.800  11.395  22.355  0.00  0.00    +0.000 A 
ATOM     25  C   UNL     1       0.048  11.413  21.237  0.00  0.00    +0.000 A 
ATOM     26  C   UNL     1       0.812  10.296  20.889  0.00  0.00    +0.000 A 
BRANCH  24  27
ATOM     27  C   UNL     1      -1.649  12.597  22.733  0.00  0.00    +0.000 C 
ATOM     28  N   UNL     1      -2.088  13.368  21.578  0.00  0.00    +0.000 NA
ATOM     29  C   UNL     1      -3.478  13.016  21.345  0.00  0.00    +0.000 C 
ATOM     30  C   UNL     1      -3.993  12.729  22.740  0.00  0.00    +0.000 C 
ATOM     31  N   UNL     1      -2.843  12.213  23.481  0.00  0.00    +0.000 NA
ATOM     32  H   UNL     1      -1.504  13.161  20.772  0.00  0.00    +0.000 HD
ATOM     33  H   UNL     1      -2.885  11.199  23.540  0.00  0.00    +0.000 HD
ENDBRANCH  24  27
ENDBRANCH  20  21
ENDBRANCH  19  20
ENDBRANCH  18  19
ENDBRANCH   1  18
TORSDOF 10
ENDMDL
MODEL 4
REMARK VINA RESULT:      -6.6      1.139      6.955
REMARK  Name = 
REMARK  10 active torsions:
REMARK  status: ('A' for Active; 'I' for Inactive)
REMARK    1  A    between atoms: C_3  and  C_4
REMARK    2  A    between atoms: C_11  and  O_12
REMARK    3  A    between atoms: O_12  and  C_13
REMARK    4  A    between atoms: C_13  and  C_14
REMARK    5  A    between atoms: C_14  and  O_15
REMARK    6  A    between atoms: O_15  and  C_16
REMARK    7  A    between atoms: C_16  and  C_17
REMARK    8  A    between atoms: C_17  and  O_18
REMARK    9  A    between atoms: O_18  and  C_19
REMARK   10  A    between atoms: C_22  and  C_23
REMARK                            x       y       z     vdW  Elec       q    Type
REMARK                         _______ _______ _______ _____ _____    ______ ____
ROOT
ATOM      1  O   UNL     1       1.244   3.740  20.589  0.00  0.00    +0.000 OA
ENDROOT
BRANCH   1   2
ATOM      2  C   UNL     1       1.303   5.142  20.860  0.00  0.00    +0.000 C 
BRANCH   2   3
ATOM      3  C   UNL     1       2.613   5.770  20.398  0.00  0.00    +0.000 C 
BRANCH   3   4
ATOM      4  O   UNL     1       2.433   6.444  19.154  0.00  0.00    +0.000 OA
BRANCH   4  10
ATOM      5  C   UNL     1       1.453   8.318  20.406  0.00  0.00    +0.000 A 
ATOM      6  C   UNL     1       0.962   9.623  20.370  0.00  0.00    +0.000 A 
ATOM      7  C   UNL     1       1.005  10.382  19.189  0.00  0.00    +0.000 A 
ATOM      8  C   UNL     1       1.607   9.810  18.057  0.00  0.00    +0.000 A 
ATOM      9  C   UNL     1       2.099   8.501  18.095  0.00  0.00    +0.000 A 
ATOM     10  C   UNL     1       1.996   7.739  19.258  0.00  0.00    +0.000 A 
BRANCH   7  11
ATOM     11  C   UNL     1       0.238  11.695  19.157  0.00  0.00    +0.000 C 
ATOM     12  N   UNL     1      -0.360  12.048  17.885  0.00  0.00    +0.000 NA
ATOM     13  C   UNL     1      -1.779  11.740  17.974  0.00  0.00    +0.000 C 
ATOM     14  C   UNL     1      -2.092  11.829  19.454  0.00  0.00    +0.000 C 
ATOM     15  N   UNL     1      -0.824  11.667  20.156  0.00  0.00    +0.000 NA
ATOM     16  H   UNL     1       0.092  11.566  17.116  0.00  0.00    +0.000 HD
ATOM     17  H   UNL     1      -0.805  10.763  20.623  0.00  0.00    +0.000 HD
ENDBRANCH   7  11
ENDBRANCH   4  10
ENDBRANCH   3   4
ENDBRANCH   2   3
ENDBRANCH   1   2
BRANCH   1  18
ATOM     18  C   UNL     1       0.752   3.360  19.300  0.00  0.00    +0.000 C 
BRANCH  18  19
ATOM     19  C   UNL     1       1.399   2.101  18.717  0.00  0.00    +0.000 C 
BRANCH  19  20
ATOM     20  O   UNL     1       2.757   2.056  19.158  0.00  0.00    +0.000 OA
BRANCH  20  21
ATOM     21  C   UNL     1       3.623   2.873  18.493  0.00  0.00    +0.000 A 
ATOM     22  C   UNL     1       4.699   3.340  19.244  0.00  0.00    +0.000 A 
ATOM     23  C   UNL     1       5.656   4.183  18.665  0.00  0.00    +0.000 A 
ATOM     24  C   UNL     1       5.561   4.555  17.319  0.00  0.00    +0.000 A 
ATOM     25  C   UNL     1       4.479   4.062  16.574  0.00  0.00    +0.000 A 
ATOM     26  C   UNL     1       3.520   3.227  17.153  0.00  0.00    +0.000 A 
BRANCH  24  27
ATOM     27  C   UNL     1       6.600   5.479  16.705  0.00  0.00    +0.000 C 
ATOM     28  N   UNL     1       6.045   6.760  16.291  0.00  0.00    +0.000 NA
ATOM     29  C   UNL     1       6.428   7.727  17.304  0.00  0.00    +0.000 C 
ATOM     30  C   UNL     1       7.768   7.208  17.781  0.00  0.00    +0.000 C 
ATOM     31  N   UNL     1       7.700   5.755  17.625  0.00  0.00    +0.000 NA
ATOM     32  H   UNL     1       5.036   6.692  16.191  0.00  0.00    +0.000 HD
ATOM     33  H   UNL     1       7.504   5.312  18.518  0.00  0.00    +0.000 HD
ENDBRANCH  24  27
ENDBRANCH  20  21
ENDBRANCH  19  20
ENDBRANCH  18  19
ENDBRANCH   1  18
TORSDOF 10
ENDMDL
MODEL 5
REMARK VINA RESULT:      -6.5      5.075      7.270
REMARK  Name = 
REMARK  10 active torsions:
REMARK  status: ('A' for Active; 'I' for Inactive)
REMARK    1  A    between atoms: C_3  and  C_4
REMARK    2  A    between atoms: C_11  and  O_12
REMARK    3  A    between atoms: O_12  and  C_13
REMARK    4  A    between atoms: C_13  and  C_14
REMARK    5  A    between atoms: C_14  and  O_15
REMARK    6  A    between atoms: O_15  and  C_16
REMARK    7  A    between atoms: C_16  and  C_17
REMARK    8  A    between atoms: C_17  and  O_18
REMARK    9  A    between atoms: O_18  and  C_19
REMARK   10  A    between atoms: C_22  and  C_23
REMARK                            x       y       z     vdW  Elec       q    Type
REMARK                         _______ _______ _______ _____ _____    ______ ____
ROOT
ATOM      1  O   UNL     1       8.272   9.557  18.328  0.00  0.00    +0.000 OA
ENDROOT
BRANCH   1   2
ATOM      2  C   UNL     1       8.365   8.134  18.410  0.00  0.00    +0.000 C 
BRANCH   2   3
ATOM      3  C   UNL     1       7.446   7.431  17.416  0.00  0.00    +0.000 C 
BRANCH   3   4
ATOM      4  O   UNL     1       7.684   6.025  17.425  0.00  0.00    +0.000 OA
BRANCH   4  10
ATOM      5  C   UNL     1       5.945   4.901  16.101  0.00  0.00    +0.000 A 
ATOM      6  C   UNL     1       4.753   4.178  16.104  0.00  0.00    +0.000 A 
ATOM      7  C   UNL     1       4.149   3.781  17.308  0.00  0.00    +0.000 A 
ATOM      8  C   UNL     1       4.806   4.087  18.510  0.00  0.00    +0.000 A 
ATOM      9  C   UNL     1       6.002   4.813  18.505  0.00  0.00    +0.000 A 
ATOM     10  C   UNL     1       6.559   5.251  17.304  0.00  0.00    +0.000 A 
BRANCH   7  11
ATOM     11  C   UNL     1       2.738   3.213  17.246  0.00  0.00    +0.000 C 
ATOM     12  N   UNL     1       2.563   1.889  17.809  0.00  0.00    +0.000 NA
ATOM     13  C   UNL     1       1.955   2.054  19.119  0.00  0.00    +0.000 C 
ATOM     14  C   UNL     1       1.210   3.370  19.028  0.00  0.00    +0.000 C 
ATOM     15  N   UNL     1       1.817   4.113  17.929  0.00  0.00    +0.000 NA
ATOM     16  H   UNL     1       3.442   1.385  17.851  0.00  0.00    +0.000 HD
ATOM     17  H   UNL     1       2.347   4.899  18.300  0.00  0.00    +0.000 HD
ENDBRANCH   7  11
ENDBRANCH   4  10
ENDBRANCH   3   4
ENDBRANCH   2   3
ENDBRANCH   1   2
BRANCH   1  18
ATOM     18  C   UNL     1       9.211  10.303  19.109  0.00  0.00    +0.000 C 
BRANCH  18  19
ATOM     19  C   UNL     1      10.102  11.249  18.300  0.00  0.00    +0.000 C 
BRANCH  19  20
ATOM     20  O   UNL     1      10.031  12.544  18.898  0.00  0.00    +0.000 OA
BRANCH  20  21
ATOM     21  C   UNL     1       8.870  13.229  18.695  0.00  0.00    +0.000 A 
ATOM     22  C   UNL     1       8.501  14.097  19.720  0.00  0.00    +0.000 A 
ATOM     23  C   UNL     1       7.328  14.856  19.620  0.00  0.00    +0.000 A 
ATOM     24  C   UNL     1       6.517  14.772  18.482  0.00  0.00    +0.000 A 
ATOM     25  C   UNL     1       6.911  13.903  17.454  0.00  0.00    +0.000 A 
ATOM     26  C   UNL     1       8.078  13.140  17.556  0.00  0.00    +0.000 A 
BRANCH  24  27
ATOM     27  C   UNL     1       5.241  15.593  18.391  0.00  0.00    +0.000 C 
ATOM     28  N   UNL     1       4.288  15.054  17.431  0.00  0.00    +0.000 NA
ATOM     29  C   UNL     1       3.265  14.366  18.200  0.00  0.00    +0.000 C 
ATOM     30  C   UNL     1       3.205  15.171  19.481  0.00  0.00    +0.000 C 
ATOM     31  N   UNL     1       4.558  15.691  19.678  0.00  0.00    +0.000 NA
ATOM     32  H   UNL     1       4.757  14.431  16.779  0.00  0.00    +0.000 HD
ATOM     33  H   UNL     1       5.058  15.130  20.361  0.00  0.00    +0.000 HD
ENDBRANCH  24  27
ENDBRANCH  20  21
ENDBRANCH  19  20
ENDBRANCH  18  19
ENDBRANCH   1  18
TORSDOF 10
ENDMDL
MODEL 6
REMARK VINA RESULT:      -6.4      6.340      9.183
REMARK  Name = 
REMARK  10 active torsions:
REMARK  status: ('A' for Active; 'I' for Inactive)
REMARK    1  A    between atoms: C_3  and  C_4
REMARK    2  A    between atoms: C_11  and  O_12
REMARK    3  A    between atoms: O_12  and  C_13
REMARK    4  A    between atoms: C_13  and  C_14
REMARK    5  A    between atoms: C_14  and  O_15
REMARK    6  A    between atoms: O_15  and  C_16
REMARK    7  A    between atoms: C_16  and  C_17
REMARK    8  A    between atoms: C_17  and  O_18
REMARK    9  A    between atoms: O_18  and  C_19
REMARK   10  A    between atoms: C_22  and  C_23
REMARK                            x       y       z     vdW  Elec       q    Type
REMARK                         _______ _______ _______ _____ _____    ______ ____
ROOT
ATOM      1  O   UNL     1       7.420   8.716  17.967  0.00  0.00    +0.000 OA
ENDROOT
BRANCH   1   2
ATOM      2  C   UNL     1       8.441   9.694  17.764  0.00  0.00    +0.000 C 
BRANCH   2   3
ATOM      3  C   UNL     1       9.095  10.132  19.070  0.00  0.00    +0.000 C 
BRANCH   3   4
ATOM      4  O   UNL     1      10.347  10.765  18.814  0.00  0.00    +0.000 OA
BRANCH   4  10
ATOM      5  C   UNL     1      10.019  12.799  20.152  0.00  0.00    +0.000 A 
ATOM      6  C   UNL     1       9.972  14.193  20.175  0.00  0.00    +0.000 A 
ATOM      7  C   UNL     1      10.257  14.947  19.026  0.00  0.00    +0.000 A 
ATOM      8  C   UNL     1      10.644  14.261  17.864  0.00  0.00    +0.000 A 
ATOM      9  C   UNL     1      10.690  12.863  17.842  0.00  0.00    +0.000 A 
ATOM     10  C   UNL     1      10.348  12.126  18.976  0.00  0.00    +0.000 A 
BRANCH   7  11
ATOM     11  C   UNL     1       9.951  16.438  19.056  0.00  0.00    +0.000 C 
ATOM     12  N   UNL     1      10.985  17.285  19.617  0.00  0.00    +0.000 NA
ATOM     13  C   UNL     1      11.684  17.908  18.505  0.00  0.00    +0.000 C 
ATOM     14  C   UNL     1      10.666  17.930  17.383  0.00  0.00    +0.000 C 
ATOM     15  N   UNL     1       9.675  16.909  17.704  0.00  0.00    +0.000 NA
ATOM     16  H   UNL     1      11.609  16.759  20.220  0.00  0.00    +0.000 HD
ATOM     17  H   UNL     1       9.772  16.125  17.062  0.00  0.00    +0.000 HD
ENDBRANCH   7  11
ENDBRANCH   4  10
ENDBRANCH   3   4
ENDBRANCH   2   3
ENDBRANCH   1   2
BRANCH   1  18
ATOM     18  C   UNL     1       7.852   7.356  18.075  0.00  0.00    +0.000 C 
BRANCH  18  19
ATOM     19  C   UNL     1       7.299   6.424  16.993  0.00  0.00    +0.000 C 
BRANCH  19  20
ATOM     20  O   UNL     1       6.062   6.969  16.530  0.00  0.00    +0.000 OA
BRANCH  20  21
ATOM     21  C   UNL     1       4.935   6.334  16.960  0.00  0.00    +0.000 A 
ATOM     22  C   UNL     1       4.856   4.979  16.647  0.00  0.00    +0.000 A 
ATOM     23  C   UNL     1       3.745   4.223  17.041  0.00  0.00    +0.000 A 
ATOM     24  C   UNL     1       2.705   4.808  17.773  0.00  0.00    +0.000 A 
ATOM     25  C   UNL     1       2.809   6.170  18.092  0.00  0.00    +0.000 A 
ATOM     26  C   UNL     1       3.913   6.927  17.693  0.00  0.00    +0.000 A 
BRANCH  24  27
ATOM     27  C   UNL     1       1.501   3.979  18.186  0.00  0.00    +0.000 C 
ATOM     28  N   UNL     1       1.705   2.549  18.000  0.00  0.00    +0.000 NA
ATOM     29  C   UNL     1       1.982   1.994  19.314  0.00  0.00    +0.000 C 
ATOM     30  C   UNL     1       1.173   2.881  20.235  0.00  0.00    +0.000 C 
ATOM     31  N   UNL     1       1.141   4.191  19.586  0.00  0.00    +0.000 NA
ATOM     32  H   UNL     1       2.467   2.383  17.349  0.00  0.00    +0.000 HD
ATOM     33  H   UNL     1       1.823   4.814  20.011  0.00  0.00    +0.000 HD
ENDBRANCH  24  27
ENDBRANCH  20  21
ENDBRANCH  19  20
ENDBRANCH  18  19
ENDBRANCH   1  18
TORSDOF 10
ENDMDL
MODEL 7
REMARK VINA RESULT:      -6.4      1.795      2.774
REMARK  Name = 
REMARK  10 active torsions:
REMARK  status: ('A' for Active; 'I' for Inactive)
REMARK    1  A    between atoms: C_3  and  C_4
REMARK    2  A    between atoms: C_11  and  O_12
REMARK    3  A    between atoms: O_12  and  C_13
REMARK    4  A    between atoms: C_13  and  C_14
REMARK    5  A    between atoms: C_14  and  O_15
REMARK    6  A    between atoms: O_15  and  C_16
REMARK    7  A    between atoms: C_16  and  C_17
REMARK    8  A    between atoms: C_17  and  O_18
REMARK    9  A    between atoms: O_18  and  C_19
REMARK   10  A    between atoms: C_22  and  C_23
REMARK                            x       y       z     vdW  Elec       q    Type
REMARK                         _______ _______ _______ _____ _____    ______ ____
ROOT
ATOM      1  O   UNL     1       1.156   4.788  19.895  0.00  0.00    +0.000 OA
ENDROOT
BRANCH   1   2
ATOM      2  C   UNL     1       0.889   3.568  20.587  0.00  0.00    +0.000 C 
BRANCH   2   3
ATOM      3  C   UNL     1       2.161   2.878  21.065  0.00  0.00    +0.000 C 
BRANCH   3   4
ATOM      4  O   UNL     1       2.755   2.133  20.004  0.00  0.00    +0.000 OA
BRANCH   4  10
ATOM      5  C   UNL     1       4.736   3.560  19.729  0.00  0.00    +0.000 A 
ATOM      6  C   UNL     1       5.533   4.306  18.861  0.00  0.00    +0.000 A 
ATOM      7  C   UNL     1       5.269   4.339  17.482  0.00  0.00    +0.000 A 
ATOM      8  C   UNL     1       4.211   3.556  16.993  0.00  0.00    +0.000 A 
ATOM      9  C   UNL     1       3.412   2.810  17.865  0.00  0.00    +0.000 A 
ATOM     10  C   UNL     1       3.651   2.833  19.239  0.00  0.00    +0.000 A 
BRANCH   7  11
ATOM     11  C   UNL     1       6.020   5.356  16.636  0.00  0.00    +0.000 C 
ATOM     12  N   UNL     1       7.319   4.937  16.148  0.00  0.00    +0.000 NA
ATOM     13  C   UNL     1       7.156   4.566  14.751  0.00  0.00    +0.000 C 
ATOM     14  C   UNL     1       5.958   5.367  14.284  0.00  0.00    +0.000 C 
ATOM     15  N   UNL     1       5.210   5.729  15.483  0.00  0.00    +0.000 NA
ATOM     16  H   UNL     1       7.700   4.181  16.707  0.00  0.00    +0.000 HD
ATOM     17  H   UNL     1       4.340   5.201  15.514  0.00  0.00    +0.000 HD
ENDBRANCH   7  11
ENDBRANCH   4  10
ENDBRANCH   3   4
ENDBRANCH   2   3
ENDBRANCH   1   2
BRANCH   1  18
ATOM     18  C   UNL     1       1.962   5.750  20.585  0.00  0.00    +0.000 C 
BRANCH  18  19
ATOM     19  C   UNL     1       1.203   6.991  21.062  0.00  0.00    +0.000 C 
BRANCH  19  20
ATOM     20  O   UNL     1       1.861   8.143  20.533  0.00  0.00    +0.000 OA
BRANCH  20  21
ATOM     21  C   UNL     1       1.067   9.022  19.857  0.00  0.00    +0.000 A 
ATOM     22  C   UNL     1       0.038   9.592  20.602  0.00  0.00    +0.000 A 
ATOM     23  C   UNL     1      -0.839  10.512  20.014  0.00  0.00    +0.000 A 
ATOM     24  C   UNL     1      -0.685  10.891  18.676  0.00  0.00    +0.000 A 
ATOM     25  C   UNL     1       0.366  10.318  17.944  0.00  0.00    +0.000 A 
ATOM     26  C   UNL     1       1.237   9.395  18.529  0.00  0.00    +0.000 A 
BRANCH  24  27
ATOM     27  C   UNL     1      -1.649  11.883  18.046  0.00  0.00    +0.000 C 
ATOM     28  N   UNL     1      -2.039  11.513  16.693  0.00  0.00    +0.000 NA
ATOM     29  C   UNL     1      -3.374  10.948  16.783  0.00  0.00    +0.000 C 
ATOM     30  C   UNL     1      -3.988  11.709  17.939  0.00  0.00    +0.000 C 
ATOM     31  N   UNL     1      -2.874  12.031  18.829  0.00  0.00    +0.000 NA
ATOM     32  H   UNL     1      -1.373  10.855  16.300  0.00  0.00    +0.000 HD
ATOM     33  H   UNL     1      -2.846  11.383  19.611  0.00  0.00    +0.000 HD
ENDBRANCH  24  27
ENDBRANCH  20  21
ENDBRANCH  19  20
ENDBRANCH  18  19
ENDBRANCH   1  18
TORSDOF 10
ENDMDL
MODEL 8
REMARK VINA RESULT:      -6.3      1.959      8.091
REMARK  Name = 
REMARK  10 active torsions:
REMARK  status: ('A' for Active; 'I' for Inactive)
REMARK    1  A    between atoms: C_3  and  C_4
REMARK    2  A    between atoms: C_11  and  O_12
REMARK    3  A    between atoms: O_12  and  C_13
REMARK    4  A    between atoms: C_13  and  C_14
REMARK    5  A    between atoms: C_14  and  O_15
REMARK    6  A    between atoms: O_15  and  C_16
REMARK    7  A    between atoms: C_16  and  C_17
REMARK    8  A    between atoms: C_17  and  O_18
REMARK    9  A    between atoms: O_18  and  C_19
REMARK   10  A    between atoms: C_22  and  C_23
REMARK                            x       y       z     vdW  Elec       q    Type
REMARK                         _______ _______ _______ _____ _____    ______ ____
ROOT
ATOM      1  O   UNL     1       0.788   4.950  20.477  0.00  0.00    +0.000 OA
ENDROOT
BRANCH   1   2
ATOM      2  C   UNL     1       2.021   5.669  20.440  0.00  0.00    +0.000 C 
BRANCH   2   3
ATOM      3  C   UNL     1       1.817   7.179  20.452  0.00  0.00    +0.000 C 
BRANCH   3   4
ATOM      4  O   UNL     1       1.021   7.567  21.570  0.00  0.00    +0.000 OA
BRANCH   4  10
ATOM      5  C   UNL     1      -0.024   9.544  22.589  0.00  0.00    +0.000 A 
ATOM      6  C   UNL     1      -0.553  10.820  22.398  0.00  0.00    +0.000 A 
ATOM      7  C   UNL     1      -0.521  11.437  21.137  0.00  0.00    +0.000 A 
ATOM      8  C   UNL     1       0.106  10.755  20.083  0.00  0.00    +0.000 A 
ATOM      9  C   UNL     1       0.636   9.475  20.276  0.00  0.00    +0.000 A 
ATOM     10  C   UNL     1       0.545   8.851  21.520  0.00  0.00    +0.000 A 
BRANCH   7  11
ATOM     11  C   UNL     1      -1.327  12.714  20.948  0.00  0.00    +0.000 C 
ATOM     12  N   UNL     1      -2.013  12.847  19.679  0.00  0.00    +0.000 NA
ATOM     13  C   UNL     1      -3.414  12.532  19.910  0.00  0.00    +0.000 C 
ATOM     14  C   UNL     1      -3.637  12.852  21.374  0.00  0.00    +0.000 C 
ATOM     15  N   UNL     1      -2.323  12.827  22.007  0.00  0.00    +0.000 NA
ATOM     16  H   UNL     1      -1.596  12.257  18.967  0.00  0.00    +0.000 HD
ATOM     17  H   UNL     1      -2.249  12.010  22.609  0.00  0.00    +0.000 HD
ENDBRANCH   7  11
ENDBRANCH   4  10
ENDBRANCH   3   4
ENDBRANCH   2   3
ENDBRANCH   1   2
BRANCH   1  18
ATOM     18  C   UNL     1       0.840   3.572  20.092  0.00  0.00    +0.000 C 
BRANCH  18  19
ATOM     19  C   UNL     1       2.049   2.806  20.636  0.00  0.00    +0.000 C 
BRANCH  19  20
ATOM     20  O   UNL     1       2.674   2.131  19.542  0.00  0.00    +0.000 OA
BRANCH  20  21
ATOM     21  C   UNL     1       3.520   2.886  18.785  0.00  0.00    +0.000 A 
ATOM     22  C   UNL     1       4.597   3.445  19.470  0.00  0.00    +0.000 A 
ATOM     23  C   UNL     1       5.534   4.237  18.794  0.00  0.00    +0.000 A 
ATOM     24  C   UNL     1       5.419   4.463  17.418  0.00  0.00    +0.000 A 
ATOM     25  C   UNL     1       4.337   3.879  16.741  0.00  0.00    +0.000 A 
ATOM     26  C   UNL     1       3.397   3.095  17.416  0.00  0.00    +0.000 A 
BRANCH  24  27
ATOM     27  C   UNL     1       6.437   5.332  16.698  0.00  0.00    +0.000 C 
ATOM     28  N   UNL     1       5.885   6.606  16.259  0.00  0.00    +0.000 NA
ATOM     29  C   UNL     1       6.352   7.609  17.200  0.00  0.00    +0.000 C 
ATOM     30  C   UNL     1       7.708   7.079  17.617  0.00  0.00    +0.000 C 
ATOM     31  N   UNL     1       7.599   5.623  17.534  0.00  0.00    +0.000 NA
ATOM     32  H   UNL     1       4.871   6.559  16.225  0.00  0.00    +0.000 HD
ATOM     33  H   UNL     1       7.450   5.226  18.457  0.00  0.00    +0.000 HD
ENDBRANCH  24  27
ENDBRANCH  20  21
ENDBRANCH  19  20
ENDBRANCH  18  19
ENDBRANCH   1  18
TORSDOF 10
ENDMDL
MODEL 9
REMARK VINA RESULT:      -6.3      1.506      7.440
REMARK  Name = 
REMARK  10 active torsions:
REMARK  status: ('A' for Active; 'I' for Inactive)
REMARK    1  A    between atoms: C_3  and  C_4
REMARK    2  A    between atoms: C_11  and  O_12
REMARK    3  A    between atoms: O_12  and  C_13
REMARK    4  A    between atoms: C_13  and  C_14
REMARK    5  A    between atoms: C_14  and  O_15
REMARK    6  A    between atoms: O_15  and  C_16
REMARK    7  A    between atoms: C_16  and  C_17
REMARK    8  A    between atoms: C_17  and  O_18
REMARK    9  A    between atoms: O_18  and  C_19
REMARK   10  A    between atoms: C_22  and  C_23
REMARK                            x       y       z     vdW  Elec       q    Type
REMARK                         _______ _______ _______ _____ _____    ______ ____
ROOT
ATOM      1  O   UNL     1       0.692   4.239  20.387  0.00  0.00    +0.000 OA
ENDROOT
BRANCH   1   2
ATOM      2  C   UNL     1       1.806   5.024  20.816  0.00  0.00    +0.000 C 
BRANCH   2   3
ATOM      3  C   UNL     1       1.861   6.382  20.126  0.00  0.00    +0.000 C 
BRANCH   3   4
ATOM      4  O   UNL     1       1.825   7.434  21.089  0.00  0.00    +0.000 OA
BRANCH   4  10
ATOM      5  C   UNL     1       0.242   9.283  21.423  0.00  0.00    +0.000 A 
ATOM      6  C   UNL     1      -0.413  10.381  20.865  0.00  0.00    +0.000 A 
ATOM      7  C   UNL     1      -0.143  10.796  19.551  0.00  0.00    +0.000 A 
ATOM      8  C   UNL     1       0.845  10.108  18.830  0.00  0.00    +0.000 A 
ATOM      9  C   UNL     1       1.501   9.007  19.391  0.00  0.00    +0.000 A 
ATOM     10  C   UNL     1       1.180   8.571  20.676  0.00  0.00    +0.000 A 
BRANCH   7  11
ATOM     11  C   UNL     1      -1.062  11.838  18.929  0.00  0.00    +0.000 C 
ATOM     12  N   UNL     1      -1.776  12.688  19.860  0.00  0.00    +0.000 NA
ATOM     13  C   UNL     1      -1.087  13.969  19.891  0.00  0.00    +0.000 C 
ATOM     14  C   UNL     1      -0.404  14.064  18.542  0.00  0.00    +0.000 C 
ATOM     15  N   UNL     1      -0.293  12.699  18.038  0.00  0.00    +0.000 NA
ATOM     16  H   UNL     1      -1.841  12.261  20.778  0.00  0.00    +0.000 HD
ATOM     17  H   UNL     1       0.680  12.404  18.063  0.00  0.00    +0.000 HD
ENDBRANCH   7  11
ENDBRANCH   4  10
ENDBRANCH   3   4
ENDBRANCH   2   3
ENDBRANCH   1   2
BRANCH   1  18
ATOM     18  C   UNL     1       0.976   2.894  19.988  0.00  0.00    +0.000 C 
BRANCH  18  19
ATOM     19  C   UNL     1       2.328   2.360  20.467  0.00  0.00    +0.000 C 
BRANCH  19  20
ATOM     20  O   UNL     1       3.004   1.794  19.343  0.00  0.00    +0.000 OA
BRANCH  20  21
ATOM     21  C   UNL     1       3.729   2.666  18.586  0.00  0.00    +0.000 A 
ATOM     22  C   UNL     1       4.757   3.327  19.255  0.00  0.00    +0.000 A 
ATOM     23  C   UNL     1       5.570   4.243  18.578  0.00  0.00    +0.000 A 
ATOM     24  C   UNL     1       5.381   4.497  17.214  0.00  0.00    +0.000 A 
ATOM     25  C   UNL     1       4.352   3.811  16.553  0.00  0.00    +0.000 A 
ATOM     26  C   UNL     1       3.534   2.901  17.230  0.00  0.00    +0.000 A 
BRANCH  24  27
ATOM     27  C   UNL     1       6.264   5.501  16.493  0.00  0.00    +0.000 C 
ATOM     28  N   UNL     1       5.638   6.808  16.352  0.00  0.00    +0.000 NA
ATOM     29  C   UNL     1       6.238   7.669  17.357  0.00  0.00    +0.000 C 
ATOM     30  C   UNL     1       7.647   7.128  17.470  0.00  0.00    +0.000 C 
ATOM     31  N   UNL     1       7.541   5.700  17.175  0.00  0.00    +0.000 NA
ATOM     32  H   UNL     1       4.631   6.732  16.468  0.00  0.00    +0.000 HD
ATOM     33  H   UNL     1       7.543   5.159  18.036  0.00  0.00    +0.000 HD
ENDBRANCH  24  27
ENDBRANCH  20  21
ENDBRANCH  19  20
ENDBRANCH  18  19
ENDBRANCH   1  18
TORSDOF 10
ENDMDL
