MODEL 1
REMARK VINA RESULT:      -8.9      0.000      0.000
REMARK  Name = 
REMARK  4 active torsions:
REMARK  status: ('A' for Active; 'I' for Inactive)
REMARK    1  A    between atoms: C_4  and  C_5
REMARK    2  A    between atoms: C_13  and  C_14
REMARK    3  A    between atoms: C_14  and  C_15
REMARK    4  A    between atoms: C_16  and  C_17
REMARK                            x       y       z     vdW  Elec       q    Type
REMARK                         _______ _______ _______ _____ _____    ______ ____
ROOT
ATOM      1  C   UNL     1       2.535   7.050  17.686  0.00  0.00    +0.000 C 
ENDROOT
BRANCH   1  10
ATOM      2  C   UNL     1       1.542   6.693  20.113  0.00  0.00    +0.000 A 
ATOM      3  N   UNL     1       1.144   7.533  21.127  0.00  0.00    +0.000 N 
ATOM      4  C   UNL     1       1.163   8.842  20.762  0.00  0.00    +0.000 A 
ATOM      5  C   UNL     1       0.936   9.969  21.570  0.00  0.00    +0.000 A 
ATOM      6  C   UNL     1       0.979  11.219  20.966  0.00  0.00    +0.000 A 
ATOM      7  C   UNL     1       1.255  11.310  19.606  0.00  0.00    +0.000 A 
ATOM      8  C   UNL     1       1.524  10.162  18.824  0.00  0.00    +0.000 A 
ATOM      9  C   UNL     1       1.472   8.867  19.402  0.00  0.00    +0.000 A 
ATOM     10  C   UNL     1       1.751   7.469  18.958  0.00  0.00    +0.000 A 
ATOM     11  H   UNL     1       0.925   7.231  22.063  0.00  0.00    +0.000 HD
BRANCH   2  15
ATOM     12  C   UNL     1       1.502   2.635  21.364  0.00  0.00    +0.000 A 
ATOM     13  C   UNL     1       0.718   3.041  20.287  0.00  0.00    +0.000 A 
ATOM     14  C   UNL     1       0.786   4.358  19.835  0.00  0.00    +0.000 A 
ATOM     15  C   UNL     1       1.645   5.268  20.435  0.00  0.00    +0.000 A 
ATOM     16  C   UNL     1       2.474   4.826  21.478  0.00  0.00    +0.000 A 
ATOM     17  C   UNL     1       2.385   3.518  21.958  0.00  0.00    +0.000 A 
ENDBRANCH   2  15
ENDBRANCH   1  10
BRANCH   1  18
ATOM     18  C   UNL     1       3.976   6.541  17.487  0.00  0.00    +0.000 A 
ATOM     19  C   UNL     1       4.430   5.587  18.462  0.00  0.00    +0.000 A 
ATOM     20  N   UNL     1       5.741   6.091  18.547  0.00  0.00    +0.000 N 
ATOM     21  C   UNL     1       6.190   6.005  17.228  0.00  0.00    +0.000 A 
ATOM     22  C   UNL     1       7.459   5.653  16.765  0.00  0.00    +0.000 A 
ATOM     23  C   UNL     1       7.483   4.999  15.542  0.00  0.00    +0.000 A 
ATOM     24  C   UNL     1       6.303   4.806  14.828  0.00  0.00    +0.000 A 
ATOM     25  C   UNL     1       5.061   5.385  15.245  0.00  0.00    +0.000 A 
ATOM     26  C   UNL     1       5.000   6.056  16.490  0.00  0.00    +0.000 A 
ATOM     27  H   UNL     1       6.006   6.875  19.119  0.00  0.00    +0.000 HD
BRANCH  19  28
ATOM     28  C   UNL     1       4.157   4.079  18.319  0.00  0.00    +0.000 A 
ATOM     29  C   UNL     1       3.183   3.560  17.455  0.00  0.00    +0.000 A 
ATOM     30  C   UNL     1       2.824   2.200  17.503  0.00  0.00    +0.000 A 
ATOM     31  C   UNL     1       3.427   1.331  18.412  0.00  0.00    +0.000 A 
ATOM     32  C   UNL     1       4.388   1.821  19.282  0.00  0.00    +0.000 A 
ATOM     33  C   UNL     1       4.743   3.171  19.230  0.00  0.00    +0.000 A 
ENDBRANCH  19  28
ENDBRANCH   1  18
TORSDOF 4
ENDMDL
MODEL 2
REMARK VINA RESULT:      -8.8      1.934      7.424
REMARK  Name = 
REMARK  4 active torsions:
REMARK  status: ('A' for Active; 'I' for Inactive)
REMARK    1  A    between atoms: C_4  and  C_5
REMARK    2  A    between atoms: C_13  and  C_14
REMARK    3  A    between atoms: C_14  and  C_15
REMARK    4  A    between atoms: C_16  and  C_17
REMARK                            x       y       z     vdW  Elec       q    Type
REMARK                         _______ _______ _______ _____ _____    ______ ____
ROOT
ATOM      1  C   UNL     1       3.876   4.494  15.944  0.00  0.00    +0.000 C 
ENDROOT
BRANCH   1  10
ATOM      2  C   UNL     1       6.440   5.062  15.626  0.00  0.00    +0.000 A 
ATOM      3  N   UNL     1       7.384   4.764  14.672  0.00  0.00    +0.000 N 
ATOM      4  C   UNL     1       6.859   4.124  13.594  0.00  0.00    +0.000 A 
ATOM      5  C   UNL     1       7.541   3.571  12.498  0.00  0.00    +0.000 A 
ATOM      6  C   UNL     1       6.785   2.986  11.491  0.00  0.00    +0.000 A 
ATOM      7  C   UNL     1       5.398   2.958  11.609  0.00  0.00    +0.000 A 
ATOM      8  C   UNL     1       4.738   3.483  12.745  0.00  0.00    +0.000 A 
ATOM      9  C   UNL     1       5.477   4.104  13.785  0.00  0.00    +0.000 A 
ATOM     10  C   UNL     1       5.179   4.691  15.126  0.00  0.00    +0.000 A 
ATOM     11  H   UNL     1       8.373   4.935  14.777  0.00  0.00    +0.000 HD
BRANCH   2  15
ATOM     12  C   UNL     1       8.266   6.821  19.034  0.00  0.00    +0.000 A 
ATOM     13  C   UNL     1       7.710   7.629  18.045  0.00  0.00    +0.000 A 
ATOM     14  C   UNL     1       7.051   7.049  16.962  0.00  0.00    +0.000 A 
ATOM     15  C   UNL     1       6.922   5.670  16.869  0.00  0.00    +0.000 A 
ATOM     16  C   UNL     1       7.433   4.874  17.907  0.00  0.00    +0.000 A 
ATOM     17  C   UNL     1       8.125   5.447  18.975  0.00  0.00    +0.000 A 
ENDBRANCH   2  15
ENDBRANCH   1  10
BRANCH   1  18
ATOM     18  C   UNL     1       3.633   4.214  17.440  0.00  0.00    +0.000 A 
ATOM     19  C   UNL     1       3.974   5.290  18.329  0.00  0.00    +0.000 A 
ATOM     20  N   UNL     1       4.504   4.469  19.341  0.00  0.00    +0.000 N 
ATOM     21  C   UNL     1       3.434   3.627  19.647  0.00  0.00    +0.000 A 
ATOM     22  C   UNL     1       3.035   3.149  20.897  0.00  0.00    +0.000 A 
ATOM     23  C   UNL     1       1.672   2.941  21.045  0.00  0.00    +0.000 A 
ATOM     24  C   UNL     1       0.813   3.132  19.965  0.00  0.00    +0.000 A 
ATOM     25  C   UNL     1       1.302   3.407  18.647  0.00  0.00    +0.000 A 
ATOM     26  C   UNL     1       2.687   3.629  18.461  0.00  0.00    +0.000 A 
ATOM     27  H   UNL     1       5.443   4.108  19.339  0.00  0.00    +0.000 HD
BRANCH  19  28
ATOM     28  C   UNL     1       2.989   6.428  18.651  0.00  0.00    +0.000 A 
ATOM     29  C   UNL     1       2.682   7.450  17.742  0.00  0.00    +0.000 A 
ATOM     30  C   UNL     1       1.940   8.577  18.144  0.00  0.00    +0.000 A 
ATOM     31  C   UNL     1       1.491   8.709  19.458  0.00  0.00    +0.000 A 
ATOM     32  C   UNL     1       1.788   7.715  20.378  0.00  0.00    +0.000 A 
ATOM     33  C   UNL     1       2.522   6.597  19.974  0.00  0.00    +0.000 A 
ENDBRANCH  19  28
ENDBRANCH   1  18
TORSDOF 4
ENDMDL
MODEL 3
REMARK VINA RESULT:      -8.6      2.025      7.480
REMARK  Name = 
REMARK  4 active torsions:
REMARK  status: ('A' for Active; 'I' for Inactive)
REMARK    1  A    between atoms: C_4  and  C_5
REMARK    2  A    between atoms: C_13  and  C_14
REMARK    3  A    between atoms: C_14  and  C_15
REMARK    4  A    between atoms: C_16  and  C_17
REMARK                            x       y       z     vdW  Elec       q    Type
REMARK                         _______ _______ _______ _____ _____    ______ ____
ROOT
ATOM      1  C   UNL     1       4.012   4.638  15.814  0.00  0.00    +0.000 C 
ENDROOT
BRANCH   1  10
ATOM      2  C   UNL     1       6.607   4.873  15.358  0.00  0.00    +0.000 A 
ATOM      3  N   UNL     1       7.456   4.446  14.364  0.00  0.00    +0.000 N 
ATOM      4  C   UNL     1       6.799   3.865  13.326  0.00  0.00    +0.000 A 
ATOM      5  C   UNL     1       7.349   3.216  12.208  0.00  0.00    +0.000 A 
ATOM      6  C   UNL     1       6.474   2.719  11.250  0.00  0.00    +0.000 A 
ATOM      7  C   UNL     1       5.103   2.868  11.438  0.00  0.00    +0.000 A 
ATOM      8  C   UNL     1       4.574   3.487  12.595  0.00  0.00    +0.000 A 
ATOM      9  C   UNL     1       5.438   4.022  13.586  0.00  0.00    +0.000 A 
ATOM     10  C   UNL     1       5.286   4.659  14.928  0.00  0.00    +0.000 A 
ATOM     11  H   UNL     1       8.462   4.492  14.416  0.00  0.00    +0.000 HD
BRANCH   2  15
ATOM     12  C   UNL     1       7.975   6.462  19.052  0.00  0.00    +0.000 A 
ATOM     13  C   UNL     1       8.055   5.093  18.809  0.00  0.00    +0.000 A 
ATOM     14  C   UNL     1       7.670   4.584  17.569  0.00  0.00    +0.000 A 
ATOM     15  C   UNL     1       7.226   5.430  16.563  0.00  0.00    +0.000 A 
ATOM     16  C   UNL     1       7.212   6.813  16.805  0.00  0.00    +0.000 A 
ATOM     17  C   UNL     1       7.562   7.326  18.055  0.00  0.00    +0.000 A 
ENDBRANCH   2  15
ENDBRANCH   1  10
BRANCH   1  18
ATOM     18  C   UNL     1       3.776   4.181  17.266  0.00  0.00    +0.000 A 
ATOM     19  C   UNL     1       4.268   5.075  18.279  0.00  0.00    +0.000 A 
ATOM     20  N   UNL     1       4.722   4.065  19.146  0.00  0.00    +0.000 N 
ATOM     21  C   UNL     1       3.567   3.317  19.380  0.00  0.00    +0.000 A 
ATOM     22  C   UNL     1       3.147   2.717  20.569  0.00  0.00    +0.000 A 
ATOM     23  C   UNL     1       1.773   2.649  20.745  0.00  0.00    +0.000 A 
ATOM     24  C   UNL     1       0.915   3.087  19.739  0.00  0.00    +0.000 A 
ATOM     25  C   UNL     1       1.398   3.486  18.451  0.00  0.00    +0.000 A 
ATOM     26  C   UNL     1       2.795   3.571  18.238  0.00  0.00    +0.000 A 
ATOM     27  H   UNL     1       5.610   3.602  19.054  0.00  0.00    +0.000 HD
BRANCH  19  28
ATOM     28  C   UNL     1       3.436   6.262  18.795  0.00  0.00    +0.000 A 
ATOM     29  C   UNL     1       2.820   6.271  20.054  0.00  0.00    +0.000 A 
ATOM     30  C   UNL     1       1.904   7.280  20.406  0.00  0.00    +0.000 A 
ATOM     31  C   UNL     1       1.583   8.300  19.510  0.00  0.00    +0.000 A 
ATOM     32  C   UNL     1       2.173   8.310  18.255  0.00  0.00    +0.000 A 
ATOM     33  C   UNL     1       3.083   7.308  17.912  0.00  0.00    +0.000 A 
ENDBRANCH  19  28
ENDBRANCH   1  18
TORSDOF 4
ENDMDL
MODEL 4
REMARK VINA RESULT:      -8.2      2.025      7.322
REMARK  Name = 
REMARK  4 active torsions:
REMARK  status: ('A' for Active; 'I' for Inactive)
REMARK    1  A    between atoms: C_4  and  C_5
REMARK    2  A    between atoms: C_13  and  C_14
REMARK    3  A    between atoms: C_14  and  C_15
REMARK    4  A    between atoms: C_16  and  C_17
REMARK                            x       y       z     vdW  Elec       q    Type
REMARK                         _______ _______ _______ _____ _____    ______ ____
ROOT
ATOM      1  C   UNL     1       5.058   3.149  16.545  0.00  0.00    +0.000 C 
ENDROOT
BRANCH   1  10
ATOM      2  C   UNL     1       6.787   5.080  16.015  0.00  0.00    +0.000 A 
ATOM      3  N   UNL     1       7.445   5.504  14.885  0.00  0.00    +0.000 N 
ATOM      4  C   UNL     1       7.035   4.855  13.763  0.00  0.00    +0.000 A 
ATOM      5  C   UNL     1       7.567   4.947  12.466  0.00  0.00    +0.000 A 
ATOM      6  C   UNL     1       6.959   4.205  11.462  0.00  0.00    +0.000 A 
ATOM      7  C   UNL     1       5.869   3.397  11.775  0.00  0.00    +0.000 A 
ATOM      8  C   UNL     1       5.381   3.289  13.099  0.00  0.00    +0.000 A 
ATOM      9  C   UNL     1       5.965   4.046  14.147  0.00  0.00    +0.000 A 
ATOM     10  C   UNL     1       5.800   4.156  15.627  0.00  0.00    +0.000 A 
ATOM     11  H   UNL     1       8.199   6.173  14.882  0.00  0.00    +0.000 HD
BRANCH   2  15
ATOM     12  C   UNL     1       8.492   6.721  19.542  0.00  0.00    +0.000 A 
ATOM     13  C   UNL     1       8.031   7.563  18.533  0.00  0.00    +0.000 A 
ATOM     14  C   UNL     1       7.409   7.024  17.408  0.00  0.00    +0.000 A 
ATOM     15  C   UNL     1       7.224   5.653  17.290  0.00  0.00    +0.000 A 
ATOM     16  C   UNL     1       7.637   4.825  18.346  0.00  0.00    +0.000 A 
ATOM     17  C   UNL     1       8.292   5.355  19.459  0.00  0.00    +0.000 A 
ENDBRANCH   2  15
ENDBRANCH   1  10
BRANCH   1  18
ATOM     18  C   UNL     1       4.307   3.332  17.878  0.00  0.00    +0.000 A 
ATOM     19  C   UNL     1       4.534   4.586  18.543  0.00  0.00    +0.000 A 
ATOM     20  N   UNL     1       4.561   4.049  19.843  0.00  0.00    +0.000 N 
ATOM     21  C   UNL     1       3.318   3.423  19.945  0.00  0.00    +0.000 A 
ATOM     22  C   UNL     1       2.465   3.359  21.048  0.00  0.00    +0.000 A 
ATOM     23  C   UNL     1       1.111   3.318  20.750  0.00  0.00    +0.000 A 
ATOM     24  C   UNL     1       0.688   3.261  19.424  0.00  0.00    +0.000 A 
ATOM     25  C   UNL     1       1.609   3.104  18.340  0.00  0.00    +0.000 A 
ATOM     26  C   UNL     1       2.999   3.146  18.608  0.00  0.00    +0.000 A 
ATOM     27  H   UNL     1       5.373   3.626  20.260  0.00  0.00    +0.000 HD
BRANCH  19  28
ATOM     28  C   UNL     1       3.716   5.847  18.211  0.00  0.00    +0.000 A 
ATOM     29  C   UNL     1       3.910   6.596  17.042  0.00  0.00    +0.000 A 
ATOM     30  C   UNL     1       3.290   7.848  16.873  0.00  0.00    +0.000 A 
ATOM     31  C   UNL     1       2.464   8.379  17.864  0.00  0.00    +0.000 A 
ATOM     32  C   UNL     1       2.262   7.660  19.033  0.00  0.00    +0.000 A 
ATOM     33  C   UNL     1       2.877   6.417  19.196  0.00  0.00    +0.000 A 
ENDBRANCH  19  28
ENDBRANCH   1  18
TORSDOF 4
ENDMDL
MODEL 5
REMARK VINA RESULT:      -7.5      2.025      6.993
REMARK  Name = 
REMARK  4 active torsions:
REMARK  status: ('A' for Active; 'I' for Inactive)
REMARK    1  A    between atoms: C_4  and  C_5
REMARK    2  A    between atoms: C_13  and  C_14
REMARK    3  A    between atoms: C_14  and  C_15
REMARK    4  A    between atoms: C_16  and  C_17
REMARK                            x       y       z     vdW  Elec       q    Type
REMARK                         _______ _______ _______ _____ _____    ______ ____
ROOT
ATOM      1  C   UNL     1       5.298   3.180  17.006  0.00  0.00    +0.000 C 
ENDROOT
BRANCH   1  10
ATOM      2  C   UNL     1       6.554   4.758  15.294  0.00  0.00    +0.000 A 
ATOM      3  N   UNL     1       7.283   5.918  15.406  0.00  0.00    +0.000 N 
ATOM      4  C   UNL     1       7.500   6.280  16.697  0.00  0.00    +0.000 A 
ATOM      5  C   UNL     1       8.098   7.457  17.179  0.00  0.00    +0.000 A 
ATOM      6  C   UNL     1       8.242   7.597  18.553  0.00  0.00    +0.000 A 
ATOM      7  C   UNL     1       7.782   6.586  19.392  0.00  0.00    +0.000 A 
ATOM      8  C   UNL     1       7.144   5.430  18.884  0.00  0.00    +0.000 A 
ATOM      9  C   UNL     1       6.996   5.245  17.485  0.00  0.00    +0.000 A 
ATOM     10  C   UNL     1       6.345   4.245  16.587  0.00  0.00    +0.000 A 
ATOM     11  H   UNL     1       7.574   6.485  14.624  0.00  0.00    +0.000 HD
BRANCH   2  15
ATOM     12  C   UNL     1       5.548   3.086  11.521  0.00  0.00    +0.000 A 
ATOM     13  C   UNL     1       4.547   3.373  12.446  0.00  0.00    +0.000 A 
ATOM     14  C   UNL     1       4.873   3.986  13.655  0.00  0.00    +0.000 A 
ATOM     15  C   UNL     1       6.187   4.334  13.941  0.00  0.00    +0.000 A 
ATOM     16  C   UNL     1       7.173   4.095  12.970  0.00  0.00    +0.000 A 
ATOM     17  C   UNL     1       6.858   3.450  11.773  0.00  0.00    +0.000 A 
ENDBRANCH   2  15
ENDBRANCH   1  10
BRANCH   1  18
ATOM     18  C   UNL     1       4.299   3.125  18.179  0.00  0.00    +0.000 A 
ATOM     19  C   UNL     1       4.333   4.255  19.067  0.00  0.00    +0.000 A 
ATOM     20  N   UNL     1       4.139   3.510  20.245  0.00  0.00    +0.000 N 
ATOM     21  C   UNL     1       2.932   2.853  20.000  0.00  0.00    +0.000 A 
ATOM     22  C   UNL     1       1.890   2.592  20.891  0.00  0.00    +0.000 A 
ATOM     23  C   UNL     1       0.620   2.576  20.330  0.00  0.00    +0.000 A 
ATOM     24  C   UNL     1       0.460   2.734  18.956  0.00  0.00    +0.000 A 
ATOM     25  C   UNL     1       1.578   2.776  18.062  0.00  0.00    +0.000 A 
ATOM     26  C   UNL     1       2.887   2.797  18.599  0.00  0.00    +0.000 A 
ATOM     27  H   UNL     1       4.877   3.037  20.739  0.00  0.00    +0.000 HD
BRANCH  19  28
ATOM     28  C   UNL     1       3.531   5.538  18.788  0.00  0.00    +0.000 A 
ATOM     29  C   UNL     1       3.706   6.310  17.630  0.00  0.00    +0.000 A 
ATOM     30  C   UNL     1       3.106   7.577  17.507  0.00  0.00    +0.000 A 
ATOM     31  C   UNL     1       2.322   8.102  18.534  0.00  0.00    +0.000 A 
ATOM     32  C   UNL     1       2.139   7.361  19.692  0.00  0.00    +0.000 A 
ATOM     33  C   UNL     1       2.734   6.103  19.809  0.00  0.00    +0.000 A 
ENDBRANCH  19  28
ENDBRANCH   1  18
TORSDOF 4
ENDMDL
MODEL 6
REMARK VINA RESULT:      -7.3      1.553      5.012
REMARK  Name = 
REMARK  4 active torsions:
REMARK  status: ('A' for Active; 'I' for Inactive)
REMARK    1  A    between atoms: C_4  and  C_5
REMARK    2  A    between atoms: C_13  and  C_14
REMARK    3  A    between atoms: C_14  and  C_15
REMARK    4  A    between atoms: C_16  and  C_17
REMARK                            x       y       z     vdW  Elec       q    Type
REMARK                         _______ _______ _______ _____ _____    ______ ____
ROOT
ATOM      1  C   UNL     1       2.991   6.859  17.914  0.00  0.00    +0.000 C 
ENDROOT
BRANCH   1  10
ATOM      2  C   UNL     1       1.958   6.985  20.346  0.00  0.00    +0.000 A 
ATOM      3  N   UNL     1       1.693   6.063  21.332  0.00  0.00    +0.000 N 
ATOM      4  C   UNL     1       2.167   4.824  21.034  0.00  0.00    +0.000 A 
ATOM      5  C   UNL     1       1.976   3.629  21.747  0.00  0.00    +0.000 A 
ATOM      6  C   UNL     1       2.587   2.480  21.264  0.00  0.00    +0.000 A 
ATOM      7  C   UNL     1       3.344   2.550  20.098  0.00  0.00    +0.000 A 
ATOM      8  C   UNL     1       3.484   3.757  19.374  0.00  0.00    +0.000 A 
ATOM      9  C   UNL     1       2.889   4.955  19.848  0.00  0.00    +0.000 A 
ATOM     10  C   UNL     1       2.745   6.360  19.362  0.00  0.00    +0.000 A 
ATOM     11  H   UNL     1       1.149   6.254  22.159  0.00  0.00    +0.000 HD
BRANCH   2  15
ATOM     12  C   UNL     1      -0.068  10.684  20.843  0.00  0.00    +0.000 A 
ATOM     13  C   UNL     1       0.292   9.931  21.958  0.00  0.00    +0.000 A 
ATOM     14  C   UNL     1       1.018   8.752  21.794  0.00  0.00    +0.000 A 
ATOM     15  C   UNL     1       1.406   8.329  20.530  0.00  0.00    +0.000 A 
ATOM     16  C   UNL     1       1.089   9.133  19.424  0.00  0.00    +0.000 A 
ATOM     17  C   UNL     1       0.332  10.296  19.577  0.00  0.00    +0.000 A 
ENDBRANCH   2  15
ENDBRANCH   1  10
BRANCH   1  18
ATOM     18  C   UNL     1       3.961   6.387  16.813  0.00  0.00    +0.000 A 
ATOM     19  C   UNL     1       5.151   7.179  16.662  0.00  0.00    +0.000 A 
ATOM     20  N   UNL     1       5.187   7.105  15.257  0.00  0.00    +0.000 N 
ATOM     21  C   UNL     1       5.232   5.730  15.021  0.00  0.00    +0.000 A 
ATOM     22  C   UNL     1       5.954   5.040  14.046  0.00  0.00    +0.000 A 
ATOM     23  C   UNL     1       6.377   3.770  14.410  0.00  0.00    +0.000 A 
ATOM     24  C   UNL     1       6.009   3.235  15.642  0.00  0.00    +0.000 A 
ATOM     25  C   UNL     1       5.083   3.898  16.510  0.00  0.00    +0.000 A 
ATOM     26  C   UNL     1       4.633   5.197  16.172  0.00  0.00    +0.000 A 
ATOM     27  H   UNL     1       4.653   7.702  14.649  0.00  0.00    +0.000 HD
BRANCH  19  28
ATOM     28  C   UNL     1       6.410   6.933  17.511  0.00  0.00    +0.000 A 
ATOM     29  C   UNL     1       6.529   5.859  18.405  0.00  0.00    +0.000 A 
ATOM     30  C   UNL     1       7.605   5.785  19.308  0.00  0.00    +0.000 A 
ATOM     31  C   UNL     1       8.585   6.778  19.340  0.00  0.00    +0.000 A 
ATOM     32  C   UNL     1       8.486   7.853  18.471  0.00  0.00    +0.000 A 
ATOM     33  C   UNL     1       7.417   7.922  17.574  0.00  0.00    +0.000 A 
ENDBRANCH  19  28
ENDBRANCH   1  18
TORSDOF 4
ENDMDL
MODEL 7
REMARK VINA RESULT:      -7.1      6.419     10.346
REMARK  Name = 
REMARK  4 active torsions:
REMARK  status: ('A' for Active; 'I' for Inactive)
REMARK    1  A    between atoms: C_4  and  C_5
REMARK    2  A    between atoms: C_13  and  C_14
REMARK    3  A    between atoms: C_14  and  C_15
REMARK    4  A    between atoms: C_16  and  C_17
REMARK                            x       y       z     vdW  Elec       q    Type
REMARK                         _______ _______ _______ _____ _____    ______ ____
ROOT
ATOM      1  C   UNL     1      -0.056  14.030  19.176  0.00  0.00    +0.000 C 
ENDROOT
BRANCH   1  10
ATOM      2  C   UNL     1      -0.760  16.580  19.238  0.00  0.00    +0.000 A 
ATOM      3  N   UNL     1      -1.789  17.284  19.818  0.00  0.00    +0.000 N 
ATOM      4  C   UNL     1      -2.558  16.515  20.633  0.00  0.00    +0.000 A 
ATOM      5  C   UNL     1      -3.750  16.870  21.288  0.00  0.00    +0.000 A 
ATOM      6  C   UNL     1      -4.351  15.918  22.101  0.00  0.00    +0.000 A 
ATOM      7  C   UNL     1      -3.768  14.661  22.225  0.00  0.00    +0.000 A 
ATOM      8  C   UNL     1      -2.591  14.315  21.520  0.00  0.00    +0.000 A 
ATOM      9  C   UNL     1      -1.939  15.267  20.694  0.00  0.00    +0.000 A 
ATOM     10  C   UNL     1      -0.770  15.276  19.765  0.00  0.00    +0.000 A 
ATOM     11  H   UNL     1      -2.002  18.249  19.618  0.00  0.00    +0.000 HD
BRANCH   2  15
ATOM     12  C   UNL     1       1.597  18.290  16.147  0.00  0.00    +0.000 A 
ATOM     13  C   UNL     1       0.232  18.559  16.212  0.00  0.00    +0.000 A 
ATOM     14  C   UNL     1      -0.525  18.052  17.268  0.00  0.00    +0.000 A 
ATOM     15  C   UNL     1       0.071  17.299  18.269  0.00  0.00    +0.000 A 
ATOM     16  C   UNL     1       1.459  17.092  18.221  0.00  0.00    +0.000 A 
ATOM     17  C   UNL     1       2.217  17.566  17.149  0.00  0.00    +0.000 A 
ENDBRANCH   2  15
ENDBRANCH   1  10
BRANCH   1  18
ATOM     18  C   UNL     1      -0.599  12.690  18.644  0.00  0.00    +0.000 A 
ATOM     19  C   UNL     1       0.069  11.517  19.138  0.00  0.00    +0.000 A 
ATOM     20  N   UNL     1       0.028  10.812  17.921  0.00  0.00    +0.000 N 
ATOM     21  C   UNL     1      -1.338  10.767  17.636  0.00  0.00    +0.000 A 
ATOM     22  C   UNL     1      -2.074   9.720  17.079  0.00  0.00    +0.000 A 
ATOM     23  C   UNL     1      -3.390   9.627  17.508  0.00  0.00    +0.000 A 
ATOM     24  C   UNL     1      -3.915  10.586  18.372  0.00  0.00    +0.000 A 
ATOM     25  C   UNL     1      -3.182  11.761  18.735  0.00  0.00    +0.000 A 
ATOM     26  C   UNL     1      -1.835  11.887  18.318  0.00  0.00    +0.000 A 
ATOM     27  H   UNL     1       0.693  10.937  17.176  0.00  0.00    +0.000 HD
BRANCH  19  28
ATOM     28  C   UNL     1      -0.327  10.849  20.466  0.00  0.00    +0.000 A 
ATOM     29  C   UNL     1      -0.686  11.579  21.609  0.00  0.00    +0.000 A 
ATOM     30  C   UNL     1      -0.842  10.943  22.854  0.00  0.00    +0.000 A 
ATOM     31  C   UNL     1      -0.645   9.568  22.987  0.00  0.00    +0.000 A 
ATOM     32  C   UNL     1      -0.283   8.825  21.873  0.00  0.00    +0.000 A 
ATOM     33  C   UNL     1      -0.131   9.461  20.639  0.00  0.00    +0.000 A 
ENDBRANCH  19  28
ENDBRANCH   1  18
TORSDOF 4
ENDMDL
MODEL 8
REMARK VINA RESULT:      -6.9      5.322      9.342
REMARK  Name = 
REMARK  4 active torsions:
REMARK  status: ('A' for Active; 'I' for Inactive)
REMARK    1  A    between atoms: C_4  and  C_5
REMARK    2  A    between atoms: C_13  and  C_14
REMARK    3  A    between atoms: C_14  and  C_15
REMARK    4  A    between atoms: C_16  and  C_17
REMARK                            x       y       z     vdW  Elec       q    Type
REMARK                         _______ _______ _______ _____ _____    ______ ____
ROOT
ATOM      1  C   UNL     1      -2.652  12.513  20.092  0.00  0.00    +0.000 C 
ENDROOT
BRANCH   1  10
ATOM      2  C   UNL     1      -4.707  11.526  18.750  0.00  0.00    +0.000 A 
ATOM      3  N   UNL     1      -6.041  11.341  19.025  0.00  0.00    +0.000 N 
ATOM      4  C   UNL     1      -6.413  11.888  20.213  0.00  0.00    +0.000 A 
ATOM      5  C   UNL     1      -7.657  11.789  20.860  0.00  0.00    +0.000 A 
ATOM      6  C   UNL     1      -7.817  12.463  22.064  0.00  0.00    +0.000 A 
ATOM      7  C   UNL     1      -6.751  13.189  22.585  0.00  0.00    +0.000 A 
ATOM      8  C   UNL     1      -5.495  13.236  21.935  0.00  0.00    +0.000 A 
ATOM      9  C   UNL     1      -5.300  12.575  20.695  0.00  0.00    +0.000 A 
ATOM     10  C   UNL     1      -4.157  12.330  19.765  0.00  0.00    +0.000 A 
ATOM     11  H   UNL     1      -6.672  10.804  18.451  0.00  0.00    +0.000 HD
BRANCH   2  15
ATOM     12  C   UNL     1      -2.831   9.981  15.267  0.00  0.00    +0.000 A 
ATOM     13  C   UNL     1      -2.607   9.381  16.503  0.00  0.00    +0.000 A 
ATOM     14  C   UNL     1      -3.279   9.847  17.633  0.00  0.00    +0.000 A 
ATOM     15  C   UNL     1      -4.187  10.892  17.536  0.00  0.00    +0.000 A 
ATOM     16  C   UNL     1      -4.447  11.443  16.271  0.00  0.00    +0.000 A 
ATOM     17  C   UNL     1      -3.753  11.004  15.142  0.00  0.00    +0.000 A 
ENDBRANCH   2  15
ENDBRANCH   1  10
BRANCH   1  18
ATOM     18  C   UNL     1      -1.424  11.623  19.820  0.00  0.00    +0.000 A 
ATOM     19  C   UNL     1      -0.294  12.296  19.240  0.00  0.00    +0.000 A 
ATOM     20  N   UNL     1       0.066  11.243  18.379  0.00  0.00    +0.000 N 
ATOM     21  C   UNL     1       0.268  10.179  19.261  0.00  0.00    +0.000 A 
ATOM     22  C   UNL     1       1.243   9.182  19.210  0.00  0.00    +0.000 A 
ATOM     23  C   UNL     1       1.667   8.703  20.441  0.00  0.00    +0.000 A 
ATOM     24  C   UNL     1       1.069   9.160  21.613  0.00  0.00    +0.000 A 
ATOM     25  C   UNL     1      -0.078  10.017  21.595  0.00  0.00    +0.000 A 
ATOM     26  C   UNL     1      -0.535  10.527  20.357  0.00  0.00    +0.000 A 
ATOM     27  H   UNL     1      -0.359  11.078  17.482  0.00  0.00    +0.000 HD
BRANCH  19  28
ATOM     28  C   UNL     1       0.753  13.025  20.100  0.00  0.00    +0.000 A 
ATOM     29  C   UNL     1       0.417  13.787  21.227  0.00  0.00    +0.000 A 
ATOM     30  C   UNL     1       1.373  14.600  21.863  0.00  0.00    +0.000 A 
ATOM     31  C   UNL     1       2.684  14.670  21.390  0.00  0.00    +0.000 A 
ATOM     32  C   UNL     1       3.040  13.930  20.272  0.00  0.00    +0.000 A 
ATOM     33  C   UNL     1       2.088  13.123  19.646  0.00  0.00    +0.000 A 
ENDBRANCH  19  28
ENDBRANCH   1  18
TORSDOF 4
ENDMDL
MODEL 9
REMARK VINA RESULT:      -6.9      5.940      9.795
REMARK  Name = 
REMARK  4 active torsions:
REMARK  status: ('A' for Active; 'I' for Inactive)
REMARK    1  A    between atoms: C_4  and  C_5
REMARK    2  A    between atoms: C_13  and  C_14
REMARK    3  A    between atoms: C_14  and  C_15
REMARK    4  A    between atoms: C_16  and  C_17
REMARK                            x       y       z     vdW  Elec       q    Type
REMARK                         _______ _______ _______ _____ _____    ______ ____
ROOT
ATOM      1  C   UNL     1      -2.540  13.395  20.682  0.00  0.00    +0.000 C 
ENDROOT
BRANCH   1  10
ATOM      2  C   UNL     1      -5.104  13.883  21.113  0.00  0.00    +0.000 A 
ATOM      3  N   UNL     1      -5.810  14.554  22.084  0.00  0.00    +0.000 N 
ATOM      4  C   UNL     1      -5.004  15.206  22.963  0.00  0.00    +0.000 A 
ATOM      5  C   UNL     1      -5.373  15.885  24.136  0.00  0.00    +0.000 A 
ATOM      6  C   UNL     1      -4.371  16.508  24.868  0.00  0.00    +0.000 A 
ATOM      7  C   UNL     1      -3.053  16.424  24.427  0.00  0.00    +0.000 A 
ATOM      8  C   UNL     1      -2.703  15.696  23.266  0.00  0.00    +0.000 A 
ATOM      9  C   UNL     1      -3.702  15.062  22.483  0.00  0.00    +0.000 A 
ATOM     10  C   UNL     1      -3.739  14.175  21.283  0.00  0.00    +0.000 A 
ATOM     11  H   UNL     1      -6.812  14.520  22.185  0.00  0.00    +0.000 HD
BRANCH   2  15
ATOM     12  C   UNL     1      -6.947  11.317  18.273  0.00  0.00    +0.000 A 
ATOM     13  C   UNL     1      -6.897  10.950  19.616  0.00  0.00    +0.000 A 
ATOM     14  C   UNL     1      -6.353  11.825  20.556  0.00  0.00    +0.000 A 
ATOM     15  C   UNL     1      -5.879  13.072  20.171  0.00  0.00    +0.000 A 
ATOM     16  C   UNL     1      -5.996  13.451  18.824  0.00  0.00    +0.000 A 
ATOM     17  C   UNL     1      -6.507  12.566  17.872  0.00  0.00    +0.000 A 
ENDBRANCH   2  15
ENDBRANCH   1  10
BRANCH   1  18
ATOM     18  C   UNL     1      -2.359  12.660  19.340  0.00  0.00    +0.000 A 
ATOM     19  C   UNL     1      -0.996  12.449  18.933  0.00  0.00    +0.000 A 
ATOM     20  N   UNL     1      -1.221  12.694  17.566  0.00  0.00    +0.000 N 
ATOM     21  C   UNL     1      -2.198  11.751  17.240  0.00  0.00    +0.000 A 
ATOM     22  C   UNL     1      -2.325  11.003  16.069  0.00  0.00    +0.000 A 
ATOM     23  C   UNL     1      -2.882   9.742  16.229  0.00  0.00    +0.000 A 
ATOM     24  C   UNL     1      -3.342   9.333  17.479  0.00  0.00    +0.000 A 
ATOM     25  C   UNL     1      -3.391  10.225  18.598  0.00  0.00    +0.000 A 
ATOM     26  C   UNL     1      -2.828  11.518  18.471  0.00  0.00    +0.000 A 
ATOM     27  H   UNL     1      -1.253  13.613  17.157  0.00  0.00    +0.000 HD
BRANCH  19  28
ATOM     28  C   UNL     1      -0.181  11.234  19.408  0.00  0.00    +0.000 A 
ATOM     29  C   UNL     1       0.672  10.511  18.562  0.00  0.00    +0.000 A 
ATOM     30  C   UNL     1       1.239   9.291  18.976  0.00  0.00    +0.000 A 
ATOM     31  C   UNL     1       0.967   8.766  20.239  0.00  0.00    +0.000 A 
ATOM     32  C   UNL     1       0.121   9.459  21.092  0.00  0.00    +0.000 A 
ATOM     33  C   UNL     1      -0.437  10.670  20.678  0.00  0.00    +0.000 A 
ENDBRANCH  19  28
ENDBRANCH   1  18
TORSDOF 4
ENDMDL
