MODEL 1
REMARK VINA RESULT:      -8.2      0.000      0.000
REMARK  Name = 
REMARK  5 active torsions:
REMARK  status: ('A' for Active; 'I' for Inactive)
REMARK    1  A    between atoms: C_1  and  C_2
REMARK    2  A    between atoms: C_5  and  C_6
REMARK    3  A    between atoms: C_9  and  C_10
REMARK    4  A    between atoms: C_13  and  C_14
REMARK    5  A    between atoms: N_15  and  C_16
REMARK                            x       y       z     vdW  Elec       q    Type
REMARK                         _______ _______ _______ _____ _____    ______ ____
ROOT
ATOM      1  C   UNL     1       1.336   9.739  19.443  0.00  0.00    +0.000 A 
ATOM      2  C   UNL     1       1.711   9.477  18.114  0.00  0.00    +0.000 A 
ATOM      3  C   UNL     1       2.246   8.225  17.747  0.00  0.00    +0.000 A 
ATOM      4  C   UNL     1       2.415   7.215  18.700  0.00  0.00    +0.000 A 
ATOM      5  C   UNL     1       1.961   7.424  20.002  0.00  0.00    +0.000 A 
ATOM      6  C   UNL     1       1.430   8.671  20.363  0.00  0.00    +0.000 A 
ENDROOT
BRANCH   1  10
ATOM      7  C   UNL     1      -1.432  11.577  18.874  0.00  0.00    +0.000 C 
ATOM      8  O   UNL     1      -1.364  10.651  19.974  0.00  0.00    +0.000 OA
ATOM      9  O   UNL     1      -0.222  11.051  20.821  0.00  0.00    +0.000 OA
ATOM     10  C   UNL     1       0.943  11.135  19.973  0.00  0.00    +0.000 C 
ATOM     11  O   UNL     1       0.784  12.174  18.967  0.00  0.00    +0.000 OA
ATOM     12  O   UNL     1      -0.620  12.726  19.086  0.00  0.00    +0.000 OA
BRANCH   7  17
ATOM     13  C   UNL     1      -7.048  12.298  17.560  0.00  0.00    +0.000 C 
ATOM     14  C   UNL     1      -5.581  12.072  17.774  0.00  0.00    +0.000 A 
ATOM     15  C   UNL     1      -4.718  11.532  16.809  0.00  0.00    +0.000 A 
ATOM     16  C   UNL     1      -3.356  11.308  17.101  0.00  0.00    +0.000 A 
ATOM     17  C   UNL     1      -2.858  11.614  18.370  0.00  0.00    +0.000 A 
ATOM     18  C   UNL     1      -3.750  12.171  19.320  0.00  0.00    +0.000 A 
ATOM     19  C   UNL     1      -5.084  12.389  19.034  0.00  0.00    +0.000 A 
ENDBRANCH   7  17
ENDBRANCH   1  10
BRANCH   4  20
ATOM     20  C   UNL     1       3.108   5.941  18.377  0.00  0.00    +0.000 C 
ATOM     21  N   UNL     1       4.380   5.890  18.143  0.00  0.00    +0.000 NA
BRANCH  21  22
ATOM     22  C   UNL     1       4.912   4.549  17.812  0.00  0.00    +0.000 C 
ATOM     23  C   UNL     1       4.611   4.261  16.331  0.00  0.00    +0.000 C 
ATOM     24  C   UNL     1       5.476   5.074  15.372  0.00  0.00    +0.000 C 
ATOM     25  C   UNL     1       6.959   4.883  15.666  0.00  0.00    +0.000 C 
ATOM     26  C   UNL     1       7.281   5.253  17.108  0.00  0.00    +0.000 C 
ATOM     27  C   UNL     1       6.421   4.478  18.107  0.00  0.00    +0.000 C 
ENDBRANCH  21  22
ENDBRANCH   4  20
TORSDOF 4
ENDMDL
MODEL 2
REMARK VINA RESULT:      -8.2      1.219      2.065
REMARK  Name = 
REMARK  5 active torsions:
REMARK  status: ('A' for Active; 'I' for Inactive)
REMARK    1  A    between atoms: C_1  and  C_2
REMARK    2  A    between atoms: C_5  and  C_6
REMARK    3  A    between atoms: C_9  and  C_10
REMARK    4  A    between atoms: C_13  and  C_14
REMARK    5  A    between atoms: N_15  and  C_16
REMARK                            x       y       z     vdW  Elec       q    Type
REMARK                         _______ _______ _______ _____ _____    ______ ____
ROOT
ATOM      1  C   UNL     1       1.239   9.861  19.622  0.00  0.00    +0.000 A 
ATOM      2  C   UNL     1       1.604   9.735  18.270  0.00  0.00    +0.000 A 
ATOM      3  C   UNL     1       2.207   8.553  17.793  0.00  0.00    +0.000 A 
ATOM      4  C   UNL     1       2.455   7.480  18.655  0.00  0.00    +0.000 A 
ATOM      5  C   UNL     1       2.014   7.551  19.975  0.00  0.00    +0.000 A 
ATOM      6  C   UNL     1       1.415   8.728  20.447  0.00  0.00    +0.000 A 
ENDROOT
BRANCH   1  10
ATOM      7  C   UNL     1      -1.566  11.660  19.110  0.00  0.00    +0.000 C 
ATOM      8  O   UNL     1      -1.514  10.627  20.110  0.00  0.00    +0.000 OA
ATOM      9  O   UNL     1      -0.428  10.972  21.049  0.00  0.00    +0.000 OA
ATOM     10  C   UNL     1       0.770  11.181  20.273  0.00  0.00    +0.000 C 
ATOM     11  O   UNL     1       0.620  12.314  19.373  0.00  0.00    +0.000 OA
ATOM     12  O   UNL     1      -0.807  12.806  19.478  0.00  0.00    +0.000 OA
BRANCH   7  17
ATOM     13  C   UNL     1      -7.118  12.399  17.555  0.00  0.00    +0.000 C 
ATOM     14  C   UNL     1      -5.662  12.170  17.832  0.00  0.00    +0.000 A 
ATOM     15  C   UNL     1      -4.756  11.647  16.898  0.00  0.00    +0.000 A 
ATOM     16  C   UNL     1      -3.408  11.419  17.247  0.00  0.00    +0.000 A 
ATOM     17  C   UNL     1      -2.968  11.705  18.542  0.00  0.00    +0.000 A 
ATOM     18  C   UNL     1      -3.902  12.245  19.460  0.00  0.00    +0.000 A 
ATOM     19  C   UNL     1      -5.223  12.466  19.118  0.00  0.00    +0.000 A 
ENDBRANCH   7  17
ENDBRANCH   1  10
BRANCH   4  20
ATOM     20  C   UNL     1       3.220   6.283  18.217  0.00  0.00    +0.000 C 
ATOM     21  N   UNL     1       3.709   5.432  19.060  0.00  0.00    +0.000 NA
BRANCH  21  22
ATOM     22  C   UNL     1       4.465   4.308  18.463  0.00  0.00    +0.000 C 
ATOM     23  C   UNL     1       4.508   3.158  19.483  0.00  0.00    +0.000 C 
ATOM     24  C   UNL     1       3.167   2.447  19.646  0.00  0.00    +0.000 C 
ATOM     25  C   UNL     1       2.634   1.957  18.306  0.00  0.00    +0.000 C 
ATOM     26  C   UNL     1       2.502   3.109  17.317  0.00  0.00    +0.000 C 
ATOM     27  C   UNL     1       3.819   3.866  17.138  0.00  0.00    +0.000 C 
ENDBRANCH  21  22
ENDBRANCH   4  20
TORSDOF 4
ENDMDL
MODEL 3
REMARK VINA RESULT:      -8.1      1.806      2.400
REMARK  Name = 
REMARK  5 active torsions:
REMARK  status: ('A' for Active; 'I' for Inactive)
REMARK    1  A    between atoms: C_1  and  C_2
REMARK    2  A    between atoms: C_5  and  C_6
REMARK    3  A    between atoms: C_9  and  C_10
REMARK    4  A    between atoms: C_13  and  C_14
REMARK    5  A    between atoms: N_15  and  C_16
REMARK                            x       y       z     vdW  Elec       q    Type
REMARK                         _______ _______ _______ _____ _____    ______ ____
ROOT
ATOM      1  C   UNL     1       1.296   9.892  19.615  0.00  0.00    +0.000 A 
ATOM      2  C   UNL     1       1.794   9.276  18.454  0.00  0.00    +0.000 A 
ATOM      3  C   UNL     1       2.215   7.930  18.475  0.00  0.00    +0.000 A 
ATOM      4  C   UNL     1       2.146   7.179  19.653  0.00  0.00    +0.000 A 
ATOM      5  C   UNL     1       1.568   7.744  20.788  0.00  0.00    +0.000 A 
ATOM      6  C   UNL     1       1.150   9.083  20.764  0.00  0.00    +0.000 A 
ENDROOT
BRANCH   1  10
ATOM      7  C   UNL     1      -1.417  11.673  18.704  0.00  0.00    +0.000 C 
ATOM      8  O   UNL     1      -1.308  11.100  20.019  0.00  0.00    +0.000 OA
ATOM      9  O   UNL     1      -0.087  11.647  20.643  0.00  0.00    +0.000 OA
ATOM     10  C   UNL     1       1.012  11.405  19.739  0.00  0.00    +0.000 C 
ATOM     11  O   UNL     1       0.825  12.120  18.486  0.00  0.00    +0.000 OA
ATOM     12  O   UNL     1      -0.537  12.777  18.522  0.00  0.00    +0.000 OA
BRANCH   7  17
ATOM     13  C   UNL     1      -7.140  12.154  17.809  0.00  0.00    +0.000 C 
ATOM     14  C   UNL     1      -5.652  11.999  17.912  0.00  0.00    +0.000 A 
ATOM     15  C   UNL     1      -4.830  11.573  16.858  0.00  0.00    +0.000 A 
ATOM     16  C   UNL     1      -3.441  11.409  17.045  0.00  0.00    +0.000 A 
ATOM     17  C   UNL     1      -2.875  11.661  18.297  0.00  0.00    +0.000 A 
ATOM     18  C   UNL     1      -3.727  12.103  19.338  0.00  0.00    +0.000 A 
ATOM     19  C   UNL     1      -5.087  12.262  19.156  0.00  0.00    +0.000 A 
ENDBRANCH   7  17
ENDBRANCH   1  10
BRANCH   4  20
ATOM     20  C   UNL     1       2.716   5.809  19.743  0.00  0.00    +0.000 C 
ATOM     21  N   UNL     1       2.093   4.842  20.337  0.00  0.00    +0.000 NA
BRANCH  21  22
ATOM     22  C   UNL     1       2.808   3.546  20.362  0.00  0.00    +0.000 C 
ATOM     23  C   UNL     1       1.773   2.420  20.198  0.00  0.00    +0.000 C 
ATOM     24  C   UNL     1       1.208   2.323  18.784  0.00  0.00    +0.000 C 
ATOM     25  C   UNL     1       2.319   2.185  17.751  0.00  0.00    +0.000 C 
ATOM     26  C   UNL     1       3.301   3.347  17.847  0.00  0.00    +0.000 C 
ATOM     27  C   UNL     1       3.878   3.498  19.255  0.00  0.00    +0.000 C 
ENDBRANCH  21  22
ENDBRANCH   4  20
TORSDOF 4
ENDMDL
MODEL 4
REMARK VINA RESULT:      -8.0      6.853      9.382
REMARK  Name = 
REMARK  5 active torsions:
REMARK  status: ('A' for Active; 'I' for Inactive)
REMARK    1  A    between atoms: C_1  and  C_2
REMARK    2  A    between atoms: C_5  and  C_6
REMARK    3  A    between atoms: C_9  and  C_10
REMARK    4  A    between atoms: C_13  and  C_14
REMARK    5  A    between atoms: N_15  and  C_16
REMARK                            x       y       z     vdW  Elec       q    Type
REMARK                         _______ _______ _______ _____ _____    ______ ____
ROOT
ATOM      1  C   UNL     1       6.939   6.732  17.216  0.00  0.00    +0.000 A 
ATOM      2  C   UNL     1       7.783   6.426  18.299  0.00  0.00    +0.000 A 
ATOM      3  C   UNL     1       8.514   7.440  18.952  0.00  0.00    +0.000 A 
ATOM      4  C   UNL     1       8.416   8.771  18.537  0.00  0.00    +0.000 A 
ATOM      5  C   UNL     1       7.514   9.106  17.528  0.00  0.00    +0.000 A 
ATOM      6  C   UNL     1       6.788   8.096  16.880  0.00  0.00    +0.000 A 
ENDROOT
BRANCH   1  10
ATOM      7  C   UNL     1       4.557   4.459  17.939  0.00  0.00    +0.000 C 
ATOM      8  O   UNL     1       4.214   5.773  17.465  0.00  0.00    +0.000 OA
ATOM      9  O   UNL     1       4.863   5.955  16.150  0.00  0.00    +0.000 OA
ATOM     10  C   UNL     1       6.269   5.672  16.314  0.00  0.00    +0.000 C 
ATOM     11  O   UNL     1       6.482   4.285  16.699  0.00  0.00    +0.000 OA
ATOM     12  O   UNL     1       5.127   3.649  16.917  0.00  0.00    +0.000 OA
BRANCH   7  17
ATOM     13  C   UNL     1       1.057   2.417  22.107  0.00  0.00    +0.000 C 
ATOM     14  C   UNL     1       1.862   3.026  20.997  0.00  0.00    +0.000 A 
ATOM     15  C   UNL     1       1.368   3.984  20.100  0.00  0.00    +0.000 A 
ATOM     16  C   UNL     1       2.175   4.478  19.053  0.00  0.00    +0.000 A 
ATOM     17  C   UNL     1       3.477   4.001  18.896  0.00  0.00    +0.000 A 
ATOM     18  C   UNL     1       3.954   3.043  19.825  0.00  0.00    +0.000 A 
ATOM     19  C   UNL     1       3.164   2.558  20.849  0.00  0.00    +0.000 A 
ENDBRANCH   7  17
ENDBRANCH   1  10
BRANCH   4  20
ATOM     20  C   UNL     1       9.282   9.836  19.107  0.00  0.00    +0.000 C 
ATOM     21  N   UNL     1       9.832  10.745  18.369  0.00  0.00    +0.000 NA
BRANCH  21  22
ATOM     22  C   UNL     1      10.686  11.718  19.088  0.00  0.00    +0.000 C 
ATOM     23  C   UNL     1      11.799  12.182  18.134  0.00  0.00    +0.000 C 
ATOM     24  C   UNL     1      11.298  13.114  17.033  0.00  0.00    +0.000 C 
ATOM     25  C   UNL     1      10.556  14.310  17.616  0.00  0.00    +0.000 C 
ATOM     26  C   UNL     1       9.393  13.857  18.491  0.00  0.00    +0.000 C 
ATOM     27  C   UNL     1       9.844  12.902  19.597  0.00  0.00    +0.000 C 
ENDBRANCH  21  22
ENDBRANCH   4  20
TORSDOF 4
ENDMDL
MODEL 5
REMARK VINA RESULT:      -7.9      1.412      2.363
REMARK  Name = 
REMARK  5 active torsions:
REMARK  status: ('A' for Active; 'I' for Inactive)
REMARK    1  A    between atoms: C_1  and  C_2
REMARK    2  A    between atoms: C_5  and  C_6
REMARK    3  A    between atoms: C_9  and  C_10
REMARK    4  A    between atoms: C_13  and  C_14
REMARK    5  A    between atoms: N_15  and  C_16
REMARK                            x       y       z     vdW  Elec       q    Type
REMARK                         _______ _______ _______ _____ _____    ______ ____
ROOT
ATOM      1  C   UNL     1       1.342   9.843  19.810  0.00  0.00    +0.000 A 
ATOM      2  C   UNL     1       1.505   9.766  18.416  0.00  0.00    +0.000 A 
ATOM      3  C   UNL     1       1.946   8.574  17.804  0.00  0.00    +0.000 A 
ATOM      4  C   UNL     1       2.232   7.442  18.573  0.00  0.00    +0.000 A 
ATOM      5  C   UNL     1       1.985   7.470  19.945  0.00  0.00    +0.000 A 
ATOM      6  C   UNL     1       1.547   8.656  20.550  0.00  0.00    +0.000 A 
ENDROOT
BRANCH   1  10
ATOM      7  C   UNL     1      -1.338  11.886  19.734  0.00  0.00    +0.000 C 
ATOM      8  O   UNL     1      -1.259  10.794  20.667  0.00  0.00    +0.000 OA
ATOM      9  O   UNL     1      -0.045  10.992  21.484  0.00  0.00    +0.000 OA
ATOM     10  C   UNL     1       1.068  11.152  20.580  0.00  0.00    +0.000 C 
ATOM     11  O   UNL     1       0.912  12.348  19.764  0.00  0.00    +0.000 OA
ATOM     12  O   UNL     1      -0.445  12.944  20.066  0.00  0.00    +0.000 OA
BRANCH   7  17
ATOM     13  C   UNL     1      -6.777  11.971  17.686  0.00  0.00    +0.000 C 
ATOM     14  C   UNL     1      -5.420  12.006  18.324  0.00  0.00    +0.000 A 
ATOM     15  C   UNL     1      -5.150  12.597  19.567  0.00  0.00    +0.000 A 
ATOM     16  C   UNL     1      -3.836  12.629  20.083  0.00  0.00    +0.000 A 
ATOM     17  C   UNL     1      -2.787  12.078  19.344  0.00  0.00    +0.000 A 
ATOM     18  C   UNL     1      -3.092  11.476  18.098  0.00  0.00    +0.000 A 
ATOM     19  C   UNL     1      -4.378  11.446  17.592  0.00  0.00    +0.000 A 
ENDBRANCH   7  17
ENDBRANCH   1  10
BRANCH   4  20
ATOM     20  C   UNL     1       2.837   6.222  17.976  0.00  0.00    +0.000 C 
ATOM     21  N   UNL     1       2.237   5.075  17.999  0.00  0.00    +0.000 NA
BRANCH  21  22
ATOM     22  C   UNL     1       2.985   3.955  17.384  0.00  0.00    +0.000 C 
ATOM     23  C   UNL     1       4.441   4.020  17.874  0.00  0.00    +0.000 C 
ATOM     24  C   UNL     1       4.604   3.606  19.334  0.00  0.00    +0.000 C 
ATOM     25  C   UNL     1       4.012   2.225  19.588  0.00  0.00    +0.000 C 
ATOM     26  C   UNL     1       2.542   2.180  19.189  0.00  0.00    +0.000 C 
ATOM     27  C   UNL     1       2.327   2.609  17.737  0.00  0.00    +0.000 C 
ENDBRANCH  21  22
ENDBRANCH   4  20
TORSDOF 4
ENDMDL
MODEL 6
REMARK VINA RESULT:      -7.8      3.071      5.346
REMARK  Name = 
REMARK  5 active torsions:
REMARK  status: ('A' for Active; 'I' for Inactive)
REMARK    1  A    between atoms: C_1  and  C_2
REMARK    2  A    between atoms: C_5  and  C_6
REMARK    3  A    between atoms: C_9  and  C_10
REMARK    4  A    between atoms: C_13  and  C_14
REMARK    5  A    between atoms: N_15  and  C_16
REMARK                            x       y       z     vdW  Elec       q    Type
REMARK                         _______ _______ _______ _____ _____    ______ ____
ROOT
ATOM      1  C   UNL     1       0.771   9.824  19.752  0.00  0.00    +0.000 A 
ATOM      2  C   UNL     1       1.025   9.727  18.373  0.00  0.00    +0.000 A 
ATOM      3  C   UNL     1       1.767   8.648  17.850  0.00  0.00    +0.000 A 
ATOM      4  C   UNL     1       2.268   7.651  18.693  0.00  0.00    +0.000 A 
ATOM      5  C   UNL     1       1.946   7.680  20.049  0.00  0.00    +0.000 A 
ATOM      6  C   UNL     1       1.208   8.755  20.566  0.00  0.00    +0.000 A 
ENDROOT
BRANCH   1  10
ATOM      7  C   UNL     1       1.953  12.970  20.016  0.00  0.00    +0.000 C 
ATOM      8  O   UNL     1       1.125  12.575  18.908  0.00  0.00    +0.000 OA
ATOM      9  O   UNL     1      -0.154  12.084  19.462  0.00  0.00    +0.000 OA
ATOM     10  C   UNL     1       0.155  11.064  20.435  0.00  0.00    +0.000 C 
ATOM     11  O   UNL     1       0.910  11.616  21.550  0.00  0.00    +0.000 OA
ATOM     12  O   UNL     1       1.220  13.062  21.232  0.00  0.00    +0.000 OA
BRANCH   7  17
ATOM     13  C   UNL     1       6.157  16.822  18.882  0.00  0.00    +0.000 C 
ATOM     14  C   UNL     1       5.053  15.818  19.044  0.00  0.00    +0.000 A 
ATOM     15  C   UNL     1       4.292  15.307  17.983  0.00  0.00    +0.000 A 
ATOM     16  C   UNL     1       3.239  14.397  18.220  0.00  0.00    +0.000 A 
ATOM     17  C   UNL     1       2.940  14.009  19.528  0.00  0.00    +0.000 A 
ATOM     18  C   UNL     1       3.734  14.531  20.578  0.00  0.00    +0.000 A 
ATOM     19  C   UNL     1       4.764  15.423  20.346  0.00  0.00    +0.000 A 
ENDBRANCH   7  17
ENDBRANCH   1  10
BRANCH   4  20
ATOM     20  C   UNL     1       3.175   6.584  18.193  0.00  0.00    +0.000 C 
ATOM     21  N   UNL     1       4.289   6.854  17.592  0.00  0.00    +0.000 NA
BRANCH  21  22
ATOM     22  C   UNL     1       5.064   5.679  17.133  0.00  0.00    +0.000 C 
ATOM     23  C   UNL     1       6.352   6.183  16.461  0.00  0.00    +0.000 C 
ATOM     24  C   UNL     1       7.373   6.735  17.453  0.00  0.00    +0.000 C 
ATOM     25  C   UNL     1       7.696   5.717  18.539  0.00  0.00    +0.000 C 
ATOM     26  C   UNL     1       6.433   5.281  19.272  0.00  0.00    +0.000 C 
ATOM     27  C   UNL     1       5.370   4.740  18.314  0.00  0.00    +0.000 C 
ENDBRANCH  21  22
ENDBRANCH   4  20
TORSDOF 4
ENDMDL
MODEL 7
REMARK VINA RESULT:      -7.7      3.529      9.809
REMARK  Name = 
REMARK  5 active torsions:
REMARK  status: ('A' for Active; 'I' for Inactive)
REMARK    1  A    between atoms: C_1  and  C_2
REMARK    2  A    between atoms: C_5  and  C_6
REMARK    3  A    between atoms: C_9  and  C_10
REMARK    4  A    between atoms: C_13  and  C_14
REMARK    5  A    between atoms: N_15  and  C_16
REMARK                            x       y       z     vdW  Elec       q    Type
REMARK                         _______ _______ _______ _____ _____    ______ ____
ROOT
ATOM      1  C   UNL     1       2.520   6.926  19.304  0.00  0.00    +0.000 A 
ATOM      2  C   UNL     1       2.513   7.504  18.022  0.00  0.00    +0.000 A 
ATOM      3  C   UNL     1       1.792   8.689  17.769  0.00  0.00    +0.000 A 
ATOM      4  C   UNL     1       1.068   9.316  18.788  0.00  0.00    +0.000 A 
ATOM      5  C   UNL     1       1.141   8.810  20.085  0.00  0.00    +0.000 A 
ATOM      6  C   UNL     1       1.859   7.631  20.334  0.00  0.00    +0.000 A 
ENDROOT
BRANCH   1  10
ATOM      7  C   UNL     1       4.501   4.925  17.451  0.00  0.00    +0.000 C 
ATOM      8  O   UNL     1       5.058   5.892  18.359  0.00  0.00    +0.000 OA
ATOM      9  O   UNL     1       4.542   5.584  19.708  0.00  0.00    +0.000 OA
ATOM     10  C   UNL     1       3.102   5.532  19.622  0.00  0.00    +0.000 C 
ATOM     11  O   UNL     1       2.669   4.449  18.751  0.00  0.00    +0.000 OA
ATOM     12  O   UNL     1       3.901   3.828  18.132  0.00  0.00    +0.000 OA
BRANCH   7  17
ATOM     13  C   UNL     1       7.361   4.297  12.429  0.00  0.00    +0.000 C 
ATOM     14  C   UNL     1       6.727   4.528  13.769  0.00  0.00    +0.000 A 
ATOM     15  C   UNL     1       7.365   5.168  14.841  0.00  0.00    +0.000 A 
ATOM     16  C   UNL     1       6.718   5.308  16.088  0.00  0.00    +0.000 A 
ATOM     17  C   UNL     1       5.432   4.793  16.264  0.00  0.00    +0.000 A 
ATOM     18  C   UNL     1       4.808   4.163  15.159  0.00  0.00    +0.000 A 
ATOM     19  C   UNL     1       5.442   4.024  13.940  0.00  0.00    +0.000 A 
ENDBRANCH   7  17
ENDBRANCH   1  10
BRANCH   4  20
ATOM     20  C   UNL     1       0.183  10.479  18.520  0.00  0.00    +0.000 C 
ATOM     21  N   UNL     1      -1.080  10.462  18.800  0.00  0.00    +0.000 NA
BRANCH  21  22
ATOM     22  C   UNL     1      -1.826  11.691  18.447  0.00  0.00    +0.000 C 
ATOM     23  C   UNL     1      -1.733  11.893  16.925  0.00  0.00    +0.000 C 
ATOM     24  C   UNL     1      -2.578  10.899  16.133  0.00  0.00    +0.000 C 
ATOM     25  C   UNL     1      -4.031  10.920  16.590  0.00  0.00    +0.000 C 
ATOM     26  C   UNL     1      -4.138  10.629  18.082  0.00  0.00    +0.000 C 
ATOM     27  C   UNL     1      -3.288  11.589  18.917  0.00  0.00    +0.000 C 
ENDBRANCH  21  22
ENDBRANCH   4  20
TORSDOF 4
ENDMDL
MODEL 8
REMARK VINA RESULT:      -7.7      3.128      5.619
REMARK  Name = 
REMARK  5 active torsions:
REMARK  status: ('A' for Active; 'I' for Inactive)
REMARK    1  A    between atoms: C_1  and  C_2
REMARK    2  A    between atoms: C_5  and  C_6
REMARK    3  A    between atoms: C_9  and  C_10
REMARK    4  A    between atoms: C_13  and  C_14
REMARK    5  A    between atoms: N_15  and  C_16
REMARK                            x       y       z     vdW  Elec       q    Type
REMARK                         _______ _______ _______ _____ _____    ______ ____
ROOT
ATOM      1  C   UNL     1       0.688   9.835  19.754  0.00  0.00    +0.000 A 
ATOM      2  C   UNL     1       0.989   9.746  18.384  0.00  0.00    +0.000 A 
ATOM      3  C   UNL     1       1.776   8.687  17.884  0.00  0.00    +0.000 A 
ATOM      4  C   UNL     1       2.274   7.702  18.743  0.00  0.00    +0.000 A 
ATOM      5  C   UNL     1       1.907   7.722  20.087  0.00  0.00    +0.000 A 
ATOM      6  C   UNL     1       1.125   8.776  20.581  0.00  0.00    +0.000 A 
ENDROOT
BRANCH   1  10
ATOM      7  C   UNL     1       1.953  12.874  20.483  0.00  0.00    +0.000 C 
ATOM      8  O   UNL     1       1.321  12.613  19.217  0.00  0.00    +0.000 OA
ATOM      9  O   UNL     1      -0.059  12.164  19.492  0.00  0.00    +0.000 OA
ATOM     10  C   UNL     1       0.018  11.059  20.416  0.00  0.00    +0.000 C 
ATOM     11  O   UNL     1       0.584  11.480  21.690  0.00  0.00    +0.000 OA
ATOM     12  O   UNL     1       1.015  12.923  21.553  0.00  0.00    +0.000 OA
BRANCH   7  17
ATOM     13  C   UNL     1       5.856  16.869  18.871  0.00  0.00    +0.000 C 
ATOM     14  C   UNL     1       4.877  15.869  19.412  0.00  0.00    +0.000 A 
ATOM     15  C   UNL     1       4.704  15.596  20.777  0.00  0.00    +0.000 A 
ATOM     16  C   UNL     1       3.792  14.608  21.207  0.00  0.00    +0.000 A 
ATOM     17  C   UNL     1       3.060  13.882  20.265  0.00  0.00    +0.000 A 
ATOM     18  C   UNL     1       3.246  14.189  18.895  0.00  0.00    +0.000 A 
ATOM     19  C   UNL     1       4.139  15.155  18.473  0.00  0.00    +0.000 A 
ENDBRANCH   7  17
ENDBRANCH   1  10
BRANCH   4  20
ATOM     20  C   UNL     1       3.224   6.660  18.272  0.00  0.00    +0.000 C 
ATOM     21  N   UNL     1       3.566   5.656  19.013  0.00  0.00    +0.000 NA
BRANCH  21  22
ATOM     22  C   UNL     1       4.540   4.721  18.406  0.00  0.00    +0.000 C 
ATOM     23  C   UNL     1       4.752   3.547  19.376  0.00  0.00    +0.000 C 
ATOM     24  C   UNL     1       3.559   2.596  19.440  0.00  0.00    +0.000 C 
ATOM     25  C   UNL     1       3.180   2.088  18.055  0.00  0.00    +0.000 C 
ATOM     26  C   UNL     1       2.880   3.247  17.112  0.00  0.00    +0.000 C 
ATOM     27  C   UNL     1       4.041   4.239  17.032  0.00  0.00    +0.000 C 
ENDBRANCH  21  22
ENDBRANCH   4  20
TORSDOF 4
ENDMDL
MODEL 9
REMARK VINA RESULT:      -7.6      2.056      2.815
REMARK  Name = 
REMARK  5 active torsions:
REMARK  status: ('A' for Active; 'I' for Inactive)
REMARK    1  A    between atoms: C_1  and  C_2
REMARK    2  A    between atoms: C_5  and  C_6
REMARK    3  A    between atoms: C_9  and  C_10
REMARK    4  A    between atoms: C_13  and  C_14
REMARK    5  A    between atoms: N_15  and  C_16
REMARK                            x       y       z     vdW  Elec       q    Type
REMARK                         _______ _______ _______ _____ _____    ______ ____
ROOT
ATOM      1  C   UNL     1       1.338  10.194  19.536  0.00  0.00    +0.000 A 
ATOM      2  C   UNL     1       1.797   9.500  18.403  0.00  0.00    +0.000 A 
ATOM      3  C   UNL     1       2.137   8.133  18.482  0.00  0.00    +0.000 A 
ATOM      4  C   UNL     1       2.024   7.439  19.690  0.00  0.00    +0.000 A 
ATOM      5  C   UNL     1       1.481   8.085  20.799  0.00  0.00    +0.000 A 
ATOM      6  C   UNL     1       1.144   9.444  20.718  0.00  0.00    +0.000 A 
ENDROOT
BRANCH   1  10
ATOM      7  C   UNL     1      -1.438  12.051  19.077  0.00  0.00    +0.000 C 
ATOM      8  O   UNL     1      -1.072  11.567  20.382  0.00  0.00    +0.000 OA
ATOM      9  O   UNL     1       0.275  12.089  20.688  0.00  0.00    +0.000 OA
ATOM     10  C   UNL     1       1.144  11.725  19.595  0.00  0.00    +0.000 C 
ATOM     11  O   UNL     1       0.720  12.359  18.356  0.00  0.00    +0.000 OA
ATOM     12  O   UNL     1      -0.577  13.090  18.626  0.00  0.00    +0.000 OA
BRANCH   7  17
ATOM     13  C   UNL     1      -7.159  11.557  18.175  0.00  0.00    +0.000 C 
ATOM     14  C   UNL     1      -5.712  11.738  18.525  0.00  0.00    +0.000 A 
ATOM     15  C   UNL     1      -5.258  12.372  19.690  0.00  0.00    +0.000 A 
ATOM     16  C   UNL     1      -3.877  12.544  19.929  0.00  0.00    +0.000 A 
ATOM     17  C   UNL     1      -2.949  12.089  18.990  0.00  0.00    +0.000 A 
ATOM     18  C   UNL     1      -3.437  11.440  17.829  0.00  0.00    +0.000 A 
ATOM     19  C   UNL     1      -4.788  11.274  17.594  0.00  0.00    +0.000 A 
ENDBRANCH   7  17
ENDBRANCH   1  10
BRANCH   4  20
ATOM     20  C   UNL     1       2.511   6.043  19.840  0.00  0.00    +0.000 C 
ATOM     21  N   UNL     1       1.908   5.180  20.593  0.00  0.00    +0.000 NA
BRANCH  21  22
ATOM     22  C   UNL     1       2.535   3.841  20.653  0.00  0.00    +0.000 C 
ATOM     23  C   UNL     1       1.419   2.783  20.632  0.00  0.00    +0.000 C 
ATOM     24  C   UNL     1       0.749   2.642  19.267  0.00  0.00    +0.000 C 
ATOM     25  C   UNL     1       1.773   2.364  18.174  0.00  0.00    +0.000 C 
ATOM     26  C   UNL     1       2.834   3.458  18.129  0.00  0.00    +0.000 C 
ATOM     27  C   UNL     1       3.518   3.651  19.483  0.00  0.00    +0.000 C 
ENDBRANCH  21  22
ENDBRANCH   4  20
TORSDOF 4
ENDMDL
