MODEL 1
REMARK VINA RESULT:      -7.6      0.000      0.000
REMARK  Name = 
REMARK  8 active torsions:
REMARK  status: ('A' for Active; 'I' for Inactive)
REMARK    1  A    between atoms: C_1  and  N_2
REMARK    2  A    between atoms: C_4  and  C_5
REMARK    3  A    between atoms: C_5  and  C_6
REMARK    4  A    between atoms: C_6  and  C_7
REMARK    5  A    between atoms: N_9  and  C_10
REMARK    6  A    between atoms: C_10  and  C_11
REMARK    7  A    between atoms: C_10  and  C_17
REMARK    8  A    between atoms: C_19  and  O_20
REMARK                            x       y       z     vdW  Elec       q    Type
REMARK                         _______ _______ _______ _____ _____    ______ ____
ROOT
ATOM      1  C   UNL     1       6.216   4.689  16.232  0.00  0.00    +0.000 C 
ENDROOT
BRANCH   1   2
ATOM      2  C   UNL     1       6.643   4.614  14.776  0.00  0.00    +0.000 A 
ATOM      3  C   UNL     1       5.988   3.748  13.904  0.00  0.00    +0.000 A 
ATOM      4  C   UNL     1       6.368   3.719  12.567  0.00  0.00    +0.000 A 
ATOM      5  C   UNL     1       7.385   4.560  12.131  0.00  0.00    +0.000 A 
ATOM      6  C   UNL     1       7.999   5.379  13.062  0.00  0.00    +0.000 A 
ATOM      7  N   UNL     1       7.670   5.412  14.373  0.00  0.00    +0.000 NA
ENDBRANCH   1   2
BRANCH   1  10
ATOM      8  C   UNL     1       7.552   5.690  18.070  0.00  0.00    +0.000 C 
ATOM      9  O   UNL     1       7.697   4.622  18.654  0.00  0.00    +0.000 OA
ATOM     10  N   UNL     1       6.866   5.812  16.890  0.00  0.00    +0.000 N 
ATOM     11  H   UNL     1       6.759   6.709  16.428  0.00  0.00    +0.000 HD
BRANCH   8  12
ATOM     12  C   UNL     1       8.143   6.983  18.594  0.00  0.00    +0.000 C 
BRANCH  12  13
ATOM     13  C   UNL     1       7.866   8.140  17.639  0.00  0.00    +0.000 C 
BRANCH  13  17
ATOM     14  C   UNL     1       9.209  12.952  18.042  0.00  0.00    +0.000 C 
ATOM     15  N   UNL     1       8.966  11.556  18.309  0.00  0.00    +0.000 N 
ATOM     16  C   UNL     1       8.230  10.690  17.552  0.00  0.00    +0.000 A 
ATOM     17  C   UNL     1       8.383   9.447  18.127  0.00  0.00    +0.000 A 
ATOM     18  C   UNL     1       9.195   9.690  19.258  0.00  0.00    +0.000 A 
ATOM     19  N   UNL     1       9.545  10.973  19.374  0.00  0.00    +0.000 NA
ENDBRANCH  13  17
ENDBRANCH  12  13
ENDBRANCH   8  12
ENDBRANCH   1  10
BRANCH   1  20
ATOM     20  C   UNL     1       4.699   4.886  16.403  0.00  0.00    +0.000 C 
ATOM     21  C   UNL     1       3.828   3.892  17.219  0.00  0.00    +0.000 C 
ATOM     22  C   UNL     1       3.668   4.954  18.325  0.00  0.00    +0.000 C 
ATOM     23  C   UNL     1       4.190   6.017  17.335  0.00  0.00    +0.000 C 
BRANCH  22  24
ATOM     24  O   UNL     1       2.333   5.157  18.828  0.00  0.00    +0.000 OA
ATOM     25  H   UNL     1       2.174   6.114  18.765  0.00  0.00    +0.000 HD
ENDBRANCH  22  24
ENDBRANCH   1  20
TORSDOF 7
ENDMDL
MODEL 2
REMARK VINA RESULT:      -7.6      3.134      6.373
REMARK  Name = 
REMARK  8 active torsions:
REMARK  status: ('A' for Active; 'I' for Inactive)
REMARK    1  A    between atoms: C_1  and  N_2
REMARK    2  A    between atoms: C_4  and  C_5
REMARK    3  A    between atoms: C_5  and  C_6
REMARK    4  A    between atoms: C_6  and  C_7
REMARK    5  A    between atoms: N_9  and  C_10
REMARK    6  A    between atoms: C_10  and  C_11
REMARK    7  A    between atoms: C_10  and  C_17
REMARK    8  A    between atoms: C_19  and  O_20
REMARK                            x       y       z     vdW  Elec       q    Type
REMARK                         _______ _______ _______ _____ _____    ______ ____
ROOT
ATOM      1  C   UNL     1       6.303   5.959  16.205  0.00  0.00    +0.000 C 
ENDROOT
BRANCH   1   2
ATOM      2  C   UNL     1       6.460   5.201  14.898  0.00  0.00    +0.000 A 
ATOM      3  C   UNL     1       5.512   4.249  14.530  0.00  0.00    +0.000 A 
ATOM      4  C   UNL     1       5.652   3.591  13.313  0.00  0.00    +0.000 A 
ATOM      5  C   UNL     1       6.727   3.905  12.490  0.00  0.00    +0.000 A 
ATOM      6  C   UNL     1       7.635   4.850  12.934  0.00  0.00    +0.000 A 
ATOM      7  N   UNL     1       7.541   5.488  14.122  0.00  0.00    +0.000 NA
ENDBRANCH   1   2
BRANCH   1  10
ATOM      8  C   UNL     1       4.203   6.584  17.373  0.00  0.00    +0.000 C 
ATOM      9  O   UNL     1       4.460   7.783  17.363  0.00  0.00    +0.000 OA
ATOM     10  N   UNL     1       5.028   5.637  16.824  0.00  0.00    +0.000 N 
ATOM     11  H   UNL     1       4.792   4.650  16.848  0.00  0.00    +0.000 HD
BRANCH   8  12
ATOM     12  C   UNL     1       2.927   6.037  17.979  0.00  0.00    +0.000 C 
BRANCH  12  13
ATOM     13  C   UNL     1       2.627   4.636  17.456  0.00  0.00    +0.000 C 
BRANCH  13  17
ATOM     14  C   UNL     1       1.452   2.510  21.839  0.00  0.00    +0.000 C 
ATOM     15  N   UNL     1       1.717   2.743  20.442  0.00  0.00    +0.000 N 
ATOM     16  C   UNL     1       1.885   3.951  19.827  0.00  0.00    +0.000 A 
ATOM     17  C   UNL     1       2.239   3.676  18.524  0.00  0.00    +0.000 A 
ATOM     18  C   UNL     1       2.207   2.265  18.450  0.00  0.00    +0.000 A 
ATOM     19  N   UNL     1       1.882   1.696  19.614  0.00  0.00    +0.000 NA
ENDBRANCH  13  17
ENDBRANCH  12  13
ENDBRANCH   8  12
ENDBRANCH   1  10
BRANCH   1  20
ATOM     20  C   UNL     1       7.399   5.619  17.232  0.00  0.00    +0.000 C 
ATOM     21  C   UNL     1       7.806   6.608  18.358  0.00  0.00    +0.000 C 
ATOM     22  C   UNL     1       7.133   5.689  19.396  0.00  0.00    +0.000 C 
ATOM     23  C   UNL     1       7.095   4.570  18.333  0.00  0.00    +0.000 C 
BRANCH  22  24
ATOM     24  O   UNL     1       7.893   5.405  20.587  0.00  0.00    +0.000 OA
ATOM     25  H   UNL     1       8.032   6.265  21.019  0.00  0.00    +0.000 HD
ENDBRANCH  22  24
ENDBRANCH   1  20
TORSDOF 7
ENDMDL
MODEL 3
REMARK VINA RESULT:      -7.5      1.263      1.644
REMARK  Name = 
REMARK  8 active torsions:
REMARK  status: ('A' for Active; 'I' for Inactive)
REMARK    1  A    between atoms: C_1  and  N_2
REMARK    2  A    between atoms: C_4  and  C_5
REMARK    3  A    between atoms: C_5  and  C_6
REMARK    4  A    between atoms: C_6  and  C_7
REMARK    5  A    between atoms: N_9  and  C_10
REMARK    6  A    between atoms: C_10  and  C_11
REMARK    7  A    between atoms: C_10  and  C_17
REMARK    8  A    between atoms: C_19  and  O_20
REMARK                            x       y       z     vdW  Elec       q    Type
REMARK                         _______ _______ _______ _____ _____    ______ ____
ROOT
ATOM      1  C   UNL     1       6.235   5.655  16.570  0.00  0.00    +0.000 C 
ENDROOT
BRANCH   1   2
ATOM      2  C   UNL     1       6.498   5.113  15.176  0.00  0.00    +0.000 A 
ATOM      3  C   UNL     1       5.588   4.238  14.587  0.00  0.00    +0.000 A 
ATOM      4  C   UNL     1       5.827   3.781  13.296  0.00  0.00    +0.000 A 
ATOM      5  C   UNL     1       6.962   4.213  12.622  0.00  0.00    +0.000 A 
ATOM      6  C   UNL     1       7.828   5.068  13.280  0.00  0.00    +0.000 A 
ATOM      7  N   UNL     1       7.637   5.510  14.544  0.00  0.00    +0.000 NA
ENDBRANCH   1   2
BRANCH   1  10
ATOM      8  C   UNL     1       7.538   7.478  17.641  0.00  0.00    +0.000 C 
ATOM      9  O   UNL     1       8.018   6.741  18.495  0.00  0.00    +0.000 OA
ATOM     10  N   UNL     1       6.681   7.036  16.666  0.00  0.00    +0.000 N 
ATOM     11  H   UNL     1       6.296   7.668  15.971  0.00  0.00    +0.000 HD
BRANCH   8  12
ATOM     12  C   UNL     1       7.868   8.954  17.570  0.00  0.00    +0.000 C 
BRANCH  12  13
ATOM     13  C   UNL     1       8.717   9.385  18.762  0.00  0.00    +0.000 C 
BRANCH  13  17
ATOM     14  C   UNL     1      11.661  13.420  19.180  0.00  0.00    +0.000 C 
ATOM     15  N   UNL     1      10.649  12.483  18.759  0.00  0.00    +0.000 N 
ATOM     16  C   UNL     1      10.537  11.173  19.130  0.00  0.00    +0.000 A 
ATOM     17  C   UNL     1       9.356  10.716  18.584  0.00  0.00    +0.000 A 
ATOM     18  C   UNL     1       8.861  11.826  17.862  0.00  0.00    +0.000 A 
ATOM     19  N   UNL     1       9.650  12.898  17.962  0.00  0.00    +0.000 NA
ENDBRANCH  13  17
ENDBRANCH  12  13
ENDBRANCH   8  12
ENDBRANCH   1  10
BRANCH   1  20
ATOM     20  C   UNL     1       4.742   5.640  16.948  0.00  0.00    +0.000 C 
ATOM     21  C   UNL     1       4.169   4.642  17.992  0.00  0.00    +0.000 C 
ATOM     22  C   UNL     1       3.979   5.805  18.985  0.00  0.00    +0.000 C 
ATOM     23  C   UNL     1       4.177   6.794  17.816  0.00  0.00    +0.000 C 
BRANCH  22  24
ATOM     24  O   UNL     1       2.707   5.868  19.660  0.00  0.00    +0.000 OA
ATOM     25  H   UNL     1       2.665   5.070  20.212  0.00  0.00    +0.000 HD
ENDBRANCH  22  24
ENDBRANCH   1  20
TORSDOF 7
ENDMDL
MODEL 4
REMARK VINA RESULT:      -7.4      1.033      1.203
REMARK  Name = 
REMARK  8 active torsions:
REMARK  status: ('A' for Active; 'I' for Inactive)
REMARK    1  A    between atoms: C_1  and  N_2
REMARK    2  A    between atoms: C_4  and  C_5
REMARK    3  A    between atoms: C_5  and  C_6
REMARK    4  A    between atoms: C_6  and  C_7
REMARK    5  A    between atoms: N_9  and  C_10
REMARK    6  A    between atoms: C_10  and  C_11
REMARK    7  A    between atoms: C_10  and  C_17
REMARK    8  A    between atoms: C_19  and  O_20
REMARK                            x       y       z     vdW  Elec       q    Type
REMARK                         _______ _______ _______ _____ _____    ______ ____
ROOT
ATOM      1  C   UNL     1       6.618   5.363  16.341  0.00  0.00    +0.000 C 
ENDROOT
BRANCH   1   2
ATOM      2  C   UNL     1       6.866   4.987  14.891  0.00  0.00    +0.000 A 
ATOM      3  C   UNL     1       6.051   4.044  14.269  0.00  0.00    +0.000 A 
ATOM      4  C   UNL     1       6.270   3.739  12.930  0.00  0.00    +0.000 A 
ATOM      5  C   UNL     1       7.288   4.387  12.243  0.00  0.00    +0.000 A 
ATOM      6  C   UNL     1       8.066   5.299  12.934  0.00  0.00    +0.000 A 
ATOM      7  N   UNL     1       7.895   5.598  14.242  0.00  0.00    +0.000 NA
ENDBRANCH   1   2
BRANCH   1  10
ATOM      8  C   UNL     1       7.568   7.219  17.691  0.00  0.00    +0.000 C 
ATOM      9  O   UNL     1       7.933   6.479  18.598  0.00  0.00    +0.000 OA
ATOM     10  N   UNL     1       6.941   6.764  16.560  0.00  0.00    +0.000 N 
ATOM     11  H   UNL     1       6.647   7.399  15.824  0.00  0.00    +0.000 HD
BRANCH   8  12
ATOM     12  C   UNL     1       7.800   8.716  17.727  0.00  0.00    +0.000 C 
BRANCH  12  13
ATOM     13  C   UNL     1       9.080   9.055  18.485  0.00  0.00    +0.000 C 
BRANCH  13  17
ATOM     14  C   UNL     1       9.552  14.040  18.677  0.00  0.00    +0.000 C 
ATOM     15  N   UNL     1       9.343  12.656  19.021  0.00  0.00    +0.000 N 
ATOM     16  C   UNL     1       9.188  11.609  18.158  0.00  0.00    +0.000 A 
ATOM     17  C   UNL     1       9.144  10.471  18.935  0.00  0.00    +0.000 A 
ATOM     18  C   UNL     1       9.234  10.957  20.259  0.00  0.00    +0.000 A 
ATOM     19  N   UNL     1       9.347  12.286  20.314  0.00  0.00    +0.000 NA
ENDBRANCH  13  17
ENDBRANCH  12  13
ENDBRANCH   8  12
ENDBRANCH   1  10
BRANCH   1  20
ATOM     20  C   UNL     1       5.153   5.168  16.771  0.00  0.00    +0.000 C 
ATOM     21  C   UNL     1       4.770   4.369  18.046  0.00  0.00    +0.000 C 
ATOM     22  C   UNL     1       4.359   5.684  18.736  0.00  0.00    +0.000 C 
ATOM     23  C   UNL     1       4.376   6.376  17.357  0.00  0.00    +0.000 C 
BRANCH  22  24
ATOM     24  O   UNL     1       3.094   5.677  19.426  0.00  0.00    +0.000 OA
ATOM     25  H   UNL     1       2.797   6.602  19.437  0.00  0.00    +0.000 HD
ENDBRANCH  22  24
ENDBRANCH   1  20
TORSDOF 7
ENDMDL
MODEL 5
REMARK VINA RESULT:      -7.3      5.313      7.382
REMARK  Name = 
REMARK  8 active torsions:
REMARK  status: ('A' for Active; 'I' for Inactive)
REMARK    1  A    between atoms: C_1  and  N_2
REMARK    2  A    between atoms: C_4  and  C_5
REMARK    3  A    between atoms: C_5  and  C_6
REMARK    4  A    between atoms: C_6  and  C_7
REMARK    5  A    between atoms: N_9  and  C_10
REMARK    6  A    between atoms: C_10  and  C_11
REMARK    7  A    between atoms: C_10  and  C_17
REMARK    8  A    between atoms: C_19  and  O_20
REMARK                            x       y       z     vdW  Elec       q    Type
REMARK                         _______ _______ _______ _____ _____    ______ ____
ROOT
ATOM      1  C   UNL     1       2.952   5.885  18.180  0.00  0.00    +0.000 C 
ENDROOT
BRANCH   1   2
ATOM      2  C   UNL     1       2.331   4.557  18.576  0.00  0.00    +0.000 A 
ATOM      3  C   UNL     1       1.623   4.450  19.772  0.00  0.00    +0.000 A 
ATOM      4  C   UNL     1       1.031   3.236  20.100  0.00  0.00    +0.000 A 
ATOM      5  C   UNL     1       1.150   2.163  19.226  0.00  0.00    +0.000 A 
ATOM      6  C   UNL     1       1.884   2.342  18.067  0.00  0.00    +0.000 A 
ATOM      7  N   UNL     1       2.493   3.502  17.731  0.00  0.00    +0.000 NA
ENDBRANCH   1   2
BRANCH   1  10
ATOM      8  C   UNL     1       2.138   8.227  18.326  0.00  0.00    +0.000 C 
ATOM      9  O   UNL     1       2.530   8.518  17.201  0.00  0.00    +0.000 OA
ATOM     10  N   UNL     1       2.287   6.978  18.872  0.00  0.00    +0.000 N 
ATOM     11  H   UNL     1       1.955   6.764  19.807  0.00  0.00    +0.000 HD
BRANCH   8  12
ATOM     12  C   UNL     1       1.427   9.225  19.217  0.00  0.00    +0.000 C 
BRANCH  12  13
ATOM     13  C   UNL     1       1.211   8.657  20.616  0.00  0.00    +0.000 C 
BRANCH  13  17
ATOM     14  C   UNL     1      -1.028  12.649  22.658  0.00  0.00    +0.000 C 
ATOM     15  N   UNL     1      -0.513  11.325  22.416  0.00  0.00    +0.000 N 
ATOM     16  C   UNL     1      -0.005  10.841  21.244  0.00  0.00    +0.000 A 
ATOM     17  C   UNL     1       0.476   9.579  21.522  0.00  0.00    +0.000 A 
ATOM     18  C   UNL     1       0.160   9.386  22.886  0.00  0.00    +0.000 A 
ATOM     19  N   UNL     1      -0.448  10.443  23.429  0.00  0.00    +0.000 NA
ENDBRANCH  13  17
ENDBRANCH  12  13
ENDBRANCH   8  12
ENDBRANCH   1  10
BRANCH   1  20
ATOM     20  C   UNL     1       4.448   5.978  18.532  0.00  0.00    +0.000 C 
ATOM     21  C   UNL     1       5.194   4.825  19.258  0.00  0.00    +0.000 C 
ATOM     22  C   UNL     1       5.950   4.504  17.953  0.00  0.00    +0.000 C 
ATOM     23  C   UNL     1       5.494   5.868  17.392  0.00  0.00    +0.000 C 
BRANCH  22  24
ATOM     24  O   UNL     1       7.373   4.310  18.069  0.00  0.00    +0.000 OA
ATOM     25  H   UNL     1       7.663   3.982  17.202  0.00  0.00    +0.000 HD
ENDBRANCH  22  24
ENDBRANCH   1  20
TORSDOF 7
ENDMDL
MODEL 6
REMARK VINA RESULT:      -7.2      5.516      7.533
REMARK  Name = 
REMARK  8 active torsions:
REMARK  status: ('A' for Active; 'I' for Inactive)
REMARK    1  A    between atoms: C_1  and  N_2
REMARK    2  A    between atoms: C_4  and  C_5
REMARK    3  A    between atoms: C_5  and  C_6
REMARK    4  A    between atoms: C_6  and  C_7
REMARK    5  A    between atoms: N_9  and  C_10
REMARK    6  A    between atoms: C_10  and  C_11
REMARK    7  A    between atoms: C_10  and  C_17
REMARK    8  A    between atoms: C_19  and  O_20
REMARK                            x       y       z     vdW  Elec       q    Type
REMARK                         _______ _______ _______ _____ _____    ______ ____
ROOT
ATOM      1  C   UNL     1       2.770   6.133  18.239  0.00  0.00    +0.000 C 
ENDROOT
BRANCH   1   2
ATOM      2  C   UNL     1       2.130   4.838  18.706  0.00  0.00    +0.000 A 
ATOM      3  C   UNL     1       2.056   3.749  17.841  0.00  0.00    +0.000 A 
ATOM      4  C   UNL     1       1.499   2.559  18.298  0.00  0.00    +0.000 A 
ATOM      5  C   UNL     1       1.039   2.482  19.606  0.00  0.00    +0.000 A 
ATOM      6  C   UNL     1       1.132   3.613  20.399  0.00  0.00    +0.000 A 
ATOM      7  N   UNL     1       1.644   4.791  19.977  0.00  0.00    +0.000 NA
ENDBRANCH   1   2
BRANCH   1  10
ATOM      8  C   UNL     1       1.989   8.486  18.380  0.00  0.00    +0.000 C 
ATOM      9  O   UNL     1       2.230   8.721  17.200  0.00  0.00    +0.000 OA
ATOM     10  N   UNL     1       2.205   7.263  18.959  0.00  0.00    +0.000 N 
ATOM     11  H   UNL     1       1.998   7.096  19.939  0.00  0.00    +0.000 HD
BRANCH   8  12
ATOM     12  C   UNL     1       1.403   9.531  19.307  0.00  0.00    +0.000 C 
BRANCH  12  13
ATOM     13  C   UNL     1       1.146   8.951  20.695  0.00  0.00    +0.000 C 
BRANCH  13  17
ATOM     14  C   UNL     1      -1.055  12.916  22.830  0.00  0.00    +0.000 C 
ATOM     15  N   UNL     1      -0.638  11.576  22.500  0.00  0.00    +0.000 N 
ATOM     16  C   UNL     1       0.053  11.180  21.390  0.00  0.00    +0.000 A 
ATOM     17  C   UNL     1       0.334   9.841  21.567  0.00  0.00    +0.000 A 
ATOM     18  C   UNL     1      -0.280   9.523  22.800  0.00  0.00    +0.000 A 
ATOM     19  N   UNL     1      -0.877  10.574  23.365  0.00  0.00    +0.000 NA
ENDBRANCH  13  17
ENDBRANCH  12  13
ENDBRANCH   8  12
ENDBRANCH   1  10
BRANCH   1  20
ATOM     20  C   UNL     1       4.292   6.170  18.472  0.00  0.00    +0.000 C 
ATOM     21  C   UNL     1       5.017   5.100  19.333  0.00  0.00    +0.000 C 
ATOM     22  C   UNL     1       5.649   4.514  18.056  0.00  0.00    +0.000 C 
ATOM     23  C   UNL     1       5.239   5.797  17.302  0.00  0.00    +0.000 C 
BRANCH  22  24
ATOM     24  O   UNL     1       7.062   4.235  18.110  0.00  0.00    +0.000 OA
ATOM     25  H   UNL     1       7.211   3.808  18.971  0.00  0.00    +0.000 HD
ENDBRANCH  22  24
ENDBRANCH   1  20
TORSDOF 7
ENDMDL
MODEL 7
REMARK VINA RESULT:      -7.2      3.234      5.909
REMARK  Name = 
REMARK  8 active torsions:
REMARK  status: ('A' for Active; 'I' for Inactive)
REMARK    1  A    between atoms: C_1  and  N_2
REMARK    2  A    between atoms: C_4  and  C_5
REMARK    3  A    between atoms: C_5  and  C_6
REMARK    4  A    between atoms: C_6  and  C_7
REMARK    5  A    between atoms: N_9  and  C_10
REMARK    6  A    between atoms: C_10  and  C_11
REMARK    7  A    between atoms: C_10  and  C_17
REMARK    8  A    between atoms: C_19  and  O_20
REMARK                            x       y       z     vdW  Elec       q    Type
REMARK                         _______ _______ _______ _____ _____    ______ ____
ROOT
ATOM      1  C   UNL     1       6.142   5.051  15.903  0.00  0.00    +0.000 C 
ENDROOT
BRANCH   1   2
ATOM      2  C   UNL     1       6.567   4.762  14.474  0.00  0.00    +0.000 A 
ATOM      3  C   UNL     1       5.886   3.803  13.728  0.00  0.00    +0.000 A 
ATOM      4  C   UNL     1       6.266   3.578  12.409  0.00  0.00    +0.000 A 
ATOM      5  C   UNL     1       7.307   4.318  11.866  0.00  0.00    +0.000 A 
ATOM      6  C   UNL     1       7.947   5.240  12.676  0.00  0.00    +0.000 A 
ATOM      7  N   UNL     1       7.618   5.464  13.969  0.00  0.00    +0.000 NA
ENDBRANCH   1   2
BRANCH   1  10
ATOM      8  C   UNL     1       4.298   3.831  17.033  0.00  0.00    +0.000 C 
ATOM      9  O   UNL     1       3.541   4.795  17.014  0.00  0.00    +0.000 OA
ATOM     10  N   UNL     1       5.563   3.861  16.506  0.00  0.00    +0.000 N 
ATOM     11  H   UNL     1       6.170   3.048  16.537  0.00  0.00    +0.000 HD
BRANCH   8  12
ATOM     12  C   UNL     1       3.891   2.497  17.625  0.00  0.00    +0.000 C 
BRANCH  12  13
ATOM     13  C   UNL     1       2.429   2.513  18.061  0.00  0.00    +0.000 C 
BRANCH  13  17
ATOM     14  C   UNL     1       1.381   6.365  21.092  0.00  0.00    +0.000 C 
ATOM     15  N   UNL     1       1.708   5.058  20.577  0.00  0.00    +0.000 N 
ATOM     16  C   UNL     1       1.656   4.652  19.274  0.00  0.00    +0.000 A 
ATOM     17  C   UNL     1       2.174   3.374  19.246  0.00  0.00    +0.000 A 
ATOM     18  C   UNL     1       2.462   3.092  20.601  0.00  0.00    +0.000 A 
ATOM     19  N   UNL     1       2.172   4.113  21.412  0.00  0.00    +0.000 NA
ENDBRANCH  13  17
ENDBRANCH  12  13
ENDBRANCH   8  12
ENDBRANCH   1  10
BRANCH   1  20
ATOM     20  C   UNL     1       7.314   5.485  16.802  0.00  0.00    +0.000 C 
ATOM     21  C   UNL     1       7.151   6.577  17.895  0.00  0.00    +0.000 C 
ATOM     22  C   UNL     1       7.265   5.492  18.983  0.00  0.00    +0.000 C 
ATOM     23  C   UNL     1       7.804   4.519  17.913  0.00  0.00    +0.000 C 
BRANCH  22  24
ATOM     24  O   UNL     1       8.152   5.779  20.082  0.00  0.00    +0.000 OA
ATOM     25  H   UNL     1       7.604   6.227  20.749  0.00  0.00    +0.000 HD
ENDBRANCH  22  24
ENDBRANCH   1  20
TORSDOF 7
ENDMDL
MODEL 8
REMARK VINA RESULT:      -7.1      5.321      7.381
REMARK  Name = 
REMARK  8 active torsions:
REMARK  status: ('A' for Active; 'I' for Inactive)
REMARK    1  A    between atoms: C_1  and  N_2
REMARK    2  A    between atoms: C_4  and  C_5
REMARK    3  A    between atoms: C_5  and  C_6
REMARK    4  A    between atoms: C_6  and  C_7
REMARK    5  A    between atoms: N_9  and  C_10
REMARK    6  A    between atoms: C_10  and  C_11
REMARK    7  A    between atoms: C_10  and  C_17
REMARK    8  A    between atoms: C_19  and  O_20
REMARK                            x       y       z     vdW  Elec       q    Type
REMARK                         _______ _______ _______ _____ _____    ______ ____
ROOT
ATOM      1  C   UNL     1       3.044   6.111  18.568  0.00  0.00    +0.000 C 
ENDROOT
BRANCH   1   2
ATOM      2  C   UNL     1       4.547   6.052  18.359  0.00  0.00    +0.000 A 
ATOM      3  C   UNL     1       5.120   6.683  17.257  0.00  0.00    +0.000 A 
ATOM      4  C   UNL     1       6.502   6.650  17.102  0.00  0.00    +0.000 A 
ATOM      5  C   UNL     1       7.277   5.998  18.052  0.00  0.00    +0.000 A 
ATOM      6  C   UNL     1       6.633   5.380  19.109  0.00  0.00    +0.000 A 
ATOM      7  N   UNL     1       5.290   5.372  19.274  0.00  0.00    +0.000 NA
ENDBRANCH   1   2
BRANCH   1  10
ATOM      8  C   UNL     1       1.881   8.297  18.752  0.00  0.00    +0.000 C 
ATOM      9  O   UNL     1       1.751   8.217  19.969  0.00  0.00    +0.000 OA
ATOM     10  N   UNL     1       2.504   7.335  17.999  0.00  0.00    +0.000 N 
ATOM     11  H   UNL     1       2.596   7.426  16.993  0.00  0.00    +0.000 HD
BRANCH   8  12
ATOM     12  C   UNL     1       1.379   9.489  17.964  0.00  0.00    +0.000 C 
BRANCH  12  13
ATOM     13  C   UNL     1       0.531  10.408  18.838  0.00  0.00    +0.000 C 
BRANCH  13  17
ATOM     14  C   UNL     1      -4.314  11.607  18.385  0.00  0.00    +0.000 C 
ATOM     15  N   UNL     1      -2.990  11.086  18.153  0.00  0.00    +0.000 N 
ATOM     16  C   UNL     1      -1.857  11.379  18.855  0.00  0.00    +0.000 A 
ATOM     17  C   UNL     1      -0.869  10.556  18.358  0.00  0.00    +0.000 A 
ATOM     18  C   UNL     1      -1.511   9.839  17.322  0.00  0.00    +0.000 A 
ATOM     19  N   UNL     1      -2.798  10.166  17.191  0.00  0.00    +0.000 NA
ENDBRANCH  13  17
ENDBRANCH  12  13
ENDBRANCH   8  12
ENDBRANCH   1  10
BRANCH   1  20
ATOM     20  C   UNL     1       2.299   4.940  17.901  0.00  0.00    +0.000 C 
ATOM     21  C   UNL     1       3.054   3.738  17.269  0.00  0.00    +0.000 C 
ATOM     22  C   UNL     1       2.570   2.839  18.424  0.00  0.00    +0.000 C 
ATOM     23  C   UNL     1       1.540   3.926  18.796  0.00  0.00    +0.000 C 
BRANCH  22  24
ATOM     24  O   UNL     1       2.031   1.556  18.053  0.00  0.00    +0.000 OA
ATOM     25  H   UNL     1       1.497   1.268  18.812  0.00  0.00    +0.000 HD
ENDBRANCH  22  24
ENDBRANCH   1  20
TORSDOF 7
ENDMDL
MODEL 9
REMARK VINA RESULT:      -7.1      4.294      5.518
REMARK  Name = 
REMARK  8 active torsions:
REMARK  status: ('A' for Active; 'I' for Inactive)
REMARK    1  A    between atoms: C_1  and  N_2
REMARK    2  A    between atoms: C_4  and  C_5
REMARK    3  A    between atoms: C_5  and  C_6
REMARK    4  A    between atoms: C_6  and  C_7
REMARK    5  A    between atoms: N_9  and  C_10
REMARK    6  A    between atoms: C_10  and  C_11
REMARK    7  A    between atoms: C_10  and  C_17
REMARK    8  A    between atoms: C_19  and  O_20
REMARK                            x       y       z     vdW  Elec       q    Type
REMARK                         _______ _______ _______ _____ _____    ______ ____
ROOT
ATOM      1  C   UNL     1       3.427   5.723  18.175  0.00  0.00    +0.000 C 
ENDROOT
BRANCH   1   2
ATOM      2  C   UNL     1       4.760   5.362  17.544  0.00  0.00    +0.000 A 
ATOM      3  C   UNL     1       4.987   5.634  16.197  0.00  0.00    +0.000 A 
ATOM      4  C   UNL     1       6.227   5.329  15.646  0.00  0.00    +0.000 A 
ATOM      5  C   UNL     1       7.211   4.770  16.452  0.00  0.00    +0.000 A 
ATOM      6  C   UNL     1       6.903   4.513  17.776  0.00  0.00    +0.000 A 
ATOM      7  N   UNL     1       5.699   4.774  18.335  0.00  0.00    +0.000 NA
ENDBRANCH   1   2
BRANCH   1  10
ATOM      8  C   UNL     1       2.346   7.936  18.498  0.00  0.00    +0.000 C 
ATOM      9  O   UNL     1       2.130   7.746  19.690  0.00  0.00    +0.000 OA
ATOM     10  N   UNL     1       2.979   7.021  17.696  0.00  0.00    +0.000 N 
ATOM     11  H   UNL     1       3.143   7.203  16.711  0.00  0.00    +0.000 HD
BRANCH   8  12
ATOM     12  C   UNL     1       1.950   9.221  17.800  0.00  0.00    +0.000 C 
BRANCH  12  13
ATOM     13  C   UNL     1       0.731   9.853  18.466  0.00  0.00    +0.000 C 
BRANCH  13  17
ATOM     14  C   UNL     1       2.613  14.143  20.247  0.00  0.00    +0.000 C 
ATOM     15  N   UNL     1       1.880  12.911  20.096  0.00  0.00    +0.000 N 
ATOM     16  C   UNL     1       1.729  12.180  18.953  0.00  0.00    +0.000 A 
ATOM     17  C   UNL     1       1.064  11.028  19.315  0.00  0.00    +0.000 A 
ATOM     18  C   UNL     1       0.821  11.194  20.698  0.00  0.00    +0.000 A 
ATOM     19  N   UNL     1       1.310  12.342  21.172  0.00  0.00    +0.000 NA
ENDBRANCH  13  17
ENDBRANCH  12  13
ENDBRANCH   8  12
ENDBRANCH   1  10
BRANCH   1  20
ATOM     20  C   UNL     1       2.312   4.714  17.843  0.00  0.00    +0.000 C 
ATOM     21  C   UNL     1       2.625   3.291  17.305  0.00  0.00    +0.000 C 
ATOM     22  C   UNL     1       2.188   2.693  18.656  0.00  0.00    +0.000 C 
ATOM     23  C   UNL     1       1.534   4.047  19.007  0.00  0.00    +0.000 C 
BRANCH  22  24
ATOM     24  O   UNL     1       1.303   1.558  18.598  0.00  0.00    +0.000 OA
ATOM     25  H   UNL     1       1.247   1.223  19.508  0.00  0.00    +0.000 HD
ENDBRANCH  22  24
ENDBRANCH   1  20
TORSDOF 7
ENDMDL
