MODEL 1
REMARK VINA RESULT:      -7.2      0.000      0.000
REMARK  Name = 
REMARK  13 active torsions:
REMARK  status: ('A' for Active; 'I' for Inactive)
REMARK    1  A    between atoms: C_1  and  C_2
REMARK    2  A    between atoms: C_2  and  N_3
REMARK    3  A    between atoms: N_3  and  C_4
REMARK    4  A    between atoms: C_4  and  C_5
REMARK    5  A    between atoms: C_6  and  C_8
REMARK    6  A    between atoms: C_9  and  C_10
REMARK    7  A    between atoms: N_11  and  C_12
REMARK    8  A    between atoms: C_12  and  C_13
REMARK    9  A    between atoms: C_13  and  C_14
REMARK   10  A    between atoms: C_14  and  N_15
REMARK   11  A    between atoms: C_23  and  C_24
REMARK   12  A    between atoms: C_24  and  C_25
REMARK   13  A    between atoms: N_27  and  C_28
REMARK                            x       y       z     vdW  Elec       q    Type
REMARK                         _______ _______ _______ _____ _____    ______ ____
ROOT
ATOM      1  C   UNL     1       6.328   5.165  15.711  0.00  0.00    +0.000 C 
ATOM      2  C   UNL     1       5.394   6.140  15.969  0.00  0.00    +0.000 C 
ATOM      3  C   UNL     1       4.903   7.189  14.984  0.00  0.00    +0.000 C 
ATOM      4  N   UNL     1       4.812   6.228  17.276  0.00  0.00    +0.000 N 
ATOM      5  C   UNL     1       4.919   5.203  18.233  0.00  0.00    +0.000 C 
ATOM      6  O   UNL     1       4.539   5.301  19.400  0.00  0.00    +0.000 OA
ATOM      7  C   UNL     1       5.477   3.913  17.716  0.00  0.00    +0.000 C 
ATOM      8  C   UNL     1       6.701   4.338  16.921  0.00  0.00    +0.000 C 
ENDROOT
BRANCH   1  10
ATOM      9  N   UNL     1       6.509   4.305  13.256  0.00  0.00    +0.000 N 
ATOM     10  C   UNL     1       7.034   5.014  14.349  0.00  0.00    +0.000 C 
ATOM     11  O   UNL     1       8.151   5.529  14.207  0.00  0.00    +0.000 OA
BRANCH   9  13
ATOM     12  C   UNL     1       7.469   5.462  11.265  0.00  0.00    +0.000 C 
ATOM     13  C   UNL     1       7.370   4.175  12.072  0.00  0.00    +0.000 C 
ENDBRANCH   9  13
BRANCH   9  14
ATOM     14  C   UNL     1       5.215   3.643  13.236  0.00  0.00    +0.000 C 
ATOM     15  C   UNL     1       4.494   3.285  11.959  0.00  0.00    +0.000 C 
ENDBRANCH   9  14
ENDBRANCH   1  10
BRANCH   4  16
ATOM     16  C   UNL     1       4.116   7.434  17.744  0.00  0.00    +0.000 C 
BRANCH  16  17
ATOM     17  C   UNL     1       2.608   7.272  17.938  0.00  0.00    +0.000 C 
BRANCH  17  18
ATOM     18  C   UNL     1       1.814   8.576  17.893  0.00  0.00    +0.000 C 
BRANCH  18  19
ATOM     19  N   UNL     1       1.298   8.921  19.209  0.00  0.00    +0.000 N 
ATOM     20  C   UNL     1       1.637   8.157  20.388  0.00  0.00    +0.000 C 
ATOM     21  C   UNL     1       0.781   8.784  21.467  0.00  0.00    +0.000 C 
ATOM     22  C   UNL     1       0.688  10.245  21.040  0.00  0.00    +0.000 C 
ATOM     23  C   UNL     1       0.829  10.185  19.538  0.00  0.00    +0.000 C 
ATOM     24  O   UNL     1       0.633  11.118  18.769  0.00  0.00    +0.000 OA
ENDBRANCH  18  19
ENDBRANCH  17  18
ENDBRANCH  16  17
ENDBRANCH   4  16
BRANCH   7  25
ATOM     25  C   UNL     1       4.397   3.139  16.936  0.00  0.00    +0.000 C 
BRANCH  25  26
ATOM     26  C   UNL     1       3.453   2.332  17.813  0.00  0.00    +0.000 C 
ATOM     27  O   UNL     1       3.638   1.152  18.084  0.00  0.00    +0.000 OA
ATOM     28  N   UNL     1       2.380   3.069  18.277  0.00  0.00    +0.000 N 
ATOM     29  H   UNL     1       2.431   4.074  18.166  0.00  0.00    +0.000 HD
BRANCH  28  30
ATOM     30  C   UNL     1       1.399   2.547  19.232  0.00  0.00    +0.000 C 
ATOM     31  C   UNL     1       2.089   1.779  20.367  0.00  0.00    +0.000 C 
ATOM     32  C   UNL     1       2.925   2.701  21.259  0.00  0.00    +0.000 C 
ATOM     33  C   UNL     1       2.118   3.880  21.798  0.00  0.00    +0.000 C 
ATOM     34  C   UNL     1       1.356   4.626  20.705  0.00  0.00    +0.000 C 
ATOM     35  C   UNL     1       0.543   3.675  19.826  0.00  0.00    +0.000 C 
ENDBRANCH  28  30
ENDBRANCH  25  26
ENDBRANCH   7  25
TORSDOF 10
ENDMDL
MODEL 2
REMARK VINA RESULT:      -7.1      4.429     10.843
REMARK  Name = 
REMARK  13 active torsions:
REMARK  status: ('A' for Active; 'I' for Inactive)
REMARK    1  A    between atoms: C_1  and  C_2
REMARK    2  A    between atoms: C_2  and  N_3
REMARK    3  A    between atoms: N_3  and  C_4
REMARK    4  A    between atoms: C_4  and  C_5
REMARK    5  A    between atoms: C_6  and  C_8
REMARK    6  A    between atoms: C_9  and  C_10
REMARK    7  A    between atoms: N_11  and  C_12
REMARK    8  A    between atoms: C_12  and  C_13
REMARK    9  A    between atoms: C_13  and  C_14
REMARK   10  A    between atoms: C_14  and  N_15
REMARK   11  A    between atoms: C_23  and  C_24
REMARK   12  A    between atoms: C_24  and  C_25
REMARK   13  A    between atoms: N_27  and  C_28
REMARK                            x       y       z     vdW  Elec       q    Type
REMARK                         _______ _______ _______ _____ _____    ______ ____
ROOT
ATOM      1  C   UNL     1      -0.920  11.919  20.848  0.00  0.00    +0.000 C 
ATOM      2  C   UNL     1      -0.334  10.779  21.345  0.00  0.00    +0.000 C 
ATOM      3  C   UNL     1      -0.485  10.241  22.759  0.00  0.00    +0.000 C 
ATOM      4  N   UNL     1       0.519  10.001  20.496  0.00  0.00    +0.000 N 
ATOM      5  C   UNL     1       0.570  10.166  19.100  0.00  0.00    +0.000 C 
ATOM      6  O   UNL     1       1.379   9.602  18.363  0.00  0.00    +0.000 OA
ATOM      7  C   UNL     1      -0.500  11.045  18.531  0.00  0.00    +0.000 C 
ATOM      8  C   UNL     1      -0.492  12.265  19.439  0.00  0.00    +0.000 C 
ENDROOT
BRANCH   1  10
ATOM      9  N   UNL     1      -1.374  13.978  22.383  0.00  0.00    +0.000 N 
ATOM     10  C   UNL     1      -1.823  12.839  21.694  0.00  0.00    +0.000 C 
ATOM     11  O   UNL     1      -3.022  12.550  21.796  0.00  0.00    +0.000 OA
BRANCH   9  13
ATOM     12  C   UNL     1      -1.879  14.859  24.661  0.00  0.00    +0.000 C 
ATOM     13  C   UNL     1      -2.355  14.674  23.227  0.00  0.00    +0.000 C 
ENDBRANCH   9  13
BRANCH   9  14
ATOM     14  C   UNL     1      -0.007  14.473  22.373  0.00  0.00    +0.000 C 
ATOM     15  C   UNL     1       0.547  15.335  21.265  0.00  0.00    +0.000 C 
ENDBRANCH   9  14
ENDBRANCH   1  10
BRANCH   4  16
ATOM     16  C   UNL     1       1.465   9.012  21.030  0.00  0.00    +0.000 C 
BRANCH  16  17
ATOM     17  C   UNL     1       1.123   7.556  20.713  0.00  0.00    +0.000 C 
BRANCH  17  18
ATOM     18  C   UNL     1       2.179   6.814  19.897  0.00  0.00    +0.000 C 
BRANCH  18  19
ATOM     19  N   UNL     1       2.221   5.403  20.255  0.00  0.00    +0.000 N 
ATOM     20  C   UNL     1       1.019   4.644  20.515  0.00  0.00    +0.000 C 
ATOM     21  C   UNL     1       1.547   3.302  20.973  0.00  0.00    +0.000 C 
ATOM     22  C   UNL     1       2.849   3.150  20.192  0.00  0.00    +0.000 C 
ATOM     23  C   UNL     1       3.296   4.574  19.967  0.00  0.00    +0.000 C 
ATOM     24  O   UNL     1       4.390   4.915  19.534  0.00  0.00    +0.000 OA
ENDBRANCH  18  19
ENDBRANCH  17  18
ENDBRANCH  16  17
ENDBRANCH   4  16
BRANCH   7  25
ATOM     25  C   UNL     1      -1.832  10.276  18.440  0.00  0.00    +0.000 C 
BRANCH  25  26
ATOM     26  C   UNL     1      -2.973  11.077  17.833  0.00  0.00    +0.000 C 
ATOM     27  O   UNL     1      -3.055  11.319  16.634  0.00  0.00    +0.000 OA
ATOM     28  N   UNL     1      -3.905  11.487  18.765  0.00  0.00    +0.000 N 
ATOM     29  H   UNL     1      -3.853  11.064  19.684  0.00  0.00    +0.000 HD
BRANCH  28  30
ATOM     30  C   UNL     1      -5.152  12.170  18.410  0.00  0.00    +0.000 C 
ATOM     31  C   UNL     1      -6.203  11.172  17.907  0.00  0.00    +0.000 C 
ATOM     32  C   UNL     1      -6.676  10.228  19.014  0.00  0.00    +0.000 C 
ATOM     33  C   UNL     1      -7.171  10.979  20.249  0.00  0.00    +0.000 C 
ATOM     34  C   UNL     1      -6.181  12.034  20.737  0.00  0.00    +0.000 C 
ATOM     35  C   UNL     1      -5.721  12.951  19.603  0.00  0.00    +0.000 C 
ENDBRANCH  28  30
ENDBRANCH  25  26
ENDBRANCH   7  25
TORSDOF 10
ENDMDL
MODEL 3
REMARK VINA RESULT:      -7.0      0.767      1.075
REMARK  Name = 
REMARK  13 active torsions:
REMARK  status: ('A' for Active; 'I' for Inactive)
REMARK    1  A    between atoms: C_1  and  C_2
REMARK    2  A    between atoms: C_2  and  N_3
REMARK    3  A    between atoms: N_3  and  C_4
REMARK    4  A    between atoms: C_4  and  C_5
REMARK    5  A    between atoms: C_6  and  C_8
REMARK    6  A    between atoms: C_9  and  C_10
REMARK    7  A    between atoms: N_11  and  C_12
REMARK    8  A    between atoms: C_12  and  C_13
REMARK    9  A    between atoms: C_13  and  C_14
REMARK   10  A    between atoms: C_14  and  N_15
REMARK   11  A    between atoms: C_23  and  C_24
REMARK   12  A    between atoms: C_24  and  C_25
REMARK   13  A    between atoms: N_27  and  C_28
REMARK                            x       y       z     vdW  Elec       q    Type
REMARK                         _______ _______ _______ _____ _____    ______ ____
ROOT
ATOM      1  C   UNL     1       6.363   5.157  15.717  0.00  0.00    +0.000 C 
ATOM      2  C   UNL     1       5.427   6.125  15.991  0.00  0.00    +0.000 C 
ATOM      3  C   UNL     1       4.928   7.185  15.022  0.00  0.00    +0.000 C 
ATOM      4  N   UNL     1       4.850   6.193  17.302  0.00  0.00    +0.000 N 
ATOM      5  C   UNL     1       4.963   5.157  18.245  0.00  0.00    +0.000 C 
ATOM      6  O   UNL     1       4.587   5.238  19.414  0.00  0.00    +0.000 OA
ATOM      7  C   UNL     1       5.524   3.876  17.709  0.00  0.00    +0.000 C 
ATOM      8  C   UNL     1       6.744   4.316  16.915  0.00  0.00    +0.000 C 
ENDROOT
BRANCH   1  10
ATOM      9  N   UNL     1       6.544   4.319  13.255  0.00  0.00    +0.000 N 
ATOM     10  C   UNL     1       7.065   5.026  14.351  0.00  0.00    +0.000 C 
ATOM     11  O   UNL     1       8.174   5.558  14.208  0.00  0.00    +0.000 OA
BRANCH   9  13
ATOM     12  C   UNL     1       7.500   5.512  11.283  0.00  0.00    +0.000 C 
ATOM     13  C   UNL     1       7.402   4.210  12.066  0.00  0.00    +0.000 C 
ENDBRANCH   9  13
BRANCH   9  14
ATOM     14  C   UNL     1       5.260   3.639  13.235  0.00  0.00    +0.000 C 
ATOM     15  C   UNL     1       4.553   3.252  11.959  0.00  0.00    +0.000 C 
ENDBRANCH   9  14
ENDBRANCH   1  10
BRANCH   4  16
ATOM     16  C   UNL     1       4.151   7.390  17.788  0.00  0.00    +0.000 C 
BRANCH  16  17
ATOM     17  C   UNL     1       2.645   7.219  17.990  0.00  0.00    +0.000 C 
BRANCH  17  18
ATOM     18  C   UNL     1       2.143   7.574  19.389  0.00  0.00    +0.000 C 
BRANCH  18  19
ATOM     19  N   UNL     1       1.467   8.863  19.391  0.00  0.00    +0.000 N 
ATOM     20  C   UNL     1       1.029   9.500  18.170  0.00  0.00    +0.000 C 
ATOM     21  C   UNL     1       0.523  10.846  18.641  0.00  0.00    +0.000 C 
ATOM     22  C   UNL     1      -0.021  10.550  20.035  0.00  0.00    +0.000 C 
ATOM     23  C   UNL     1       0.810   9.379  20.499  0.00  0.00    +0.000 C 
ATOM     24  O   UNL     1       0.830   8.930  21.639  0.00  0.00    +0.000 OA
ENDBRANCH  18  19
ENDBRANCH  17  18
ENDBRANCH  16  17
ENDBRANCH   4  16
BRANCH   7  25
ATOM     25  C   UNL     1       4.444   3.108  16.922  0.00  0.00    +0.000 C 
BRANCH  25  26
ATOM     26  C   UNL     1       3.518   2.270  17.791  0.00  0.00    +0.000 C 
ATOM     27  O   UNL     1       3.748   1.101  18.075  0.00  0.00    +0.000 OA
ATOM     28  N   UNL     1       2.409   2.966  18.230  0.00  0.00    +0.000 N 
ATOM     29  H   UNL     1       2.421   3.971  18.110  0.00  0.00    +0.000 HD
BRANCH  28  30
ATOM     30  C   UNL     1       1.434   2.412  19.173  0.00  0.00    +0.000 C 
ATOM     31  C   UNL     1       2.135   1.697  20.335  0.00  0.00    +0.000 C 
ATOM     32  C   UNL     1       2.905   2.673  21.229  0.00  0.00    +0.000 C 
ATOM     33  C   UNL     1       2.030   3.820  21.730  0.00  0.00    +0.000 C 
ATOM     34  C   UNL     1       1.257   4.510  20.608  0.00  0.00    +0.000 C 
ATOM     35  C   UNL     1       0.511   3.506  19.729  0.00  0.00    +0.000 C 
ENDBRANCH  28  30
ENDBRANCH  25  26
ENDBRANCH   7  25
TORSDOF 10
ENDMDL
MODEL 4
REMARK VINA RESULT:      -7.0      5.417      9.846
REMARK  Name = 
REMARK  13 active torsions:
REMARK  status: ('A' for Active; 'I' for Inactive)
REMARK    1  A    between atoms: C_1  and  C_2
REMARK    2  A    between atoms: C_2  and  N_3
REMARK    3  A    between atoms: N_3  and  C_4
REMARK    4  A    between atoms: C_4  and  C_5
REMARK    5  A    between atoms: C_6  and  C_8
REMARK    6  A    between atoms: C_9  and  C_10
REMARK    7  A    between atoms: N_11  and  C_12
REMARK    8  A    between atoms: C_12  and  C_13
REMARK    9  A    between atoms: C_13  and  C_14
REMARK   10  A    between atoms: C_14  and  N_15
REMARK   11  A    between atoms: C_23  and  C_24
REMARK   12  A    between atoms: C_24  and  C_25
REMARK   13  A    between atoms: N_27  and  C_28
REMARK                            x       y       z     vdW  Elec       q    Type
REMARK                         _______ _______ _______ _____ _____    ______ ____
ROOT
ATOM      1  C   UNL     1       0.393  10.182  18.900  0.00  0.00    +0.000 C 
ATOM      2  C   UNL     1       0.678  11.515  19.082  0.00  0.00    +0.000 C 
ATOM      3  C   UNL     1       2.019  12.185  18.827  0.00  0.00    +0.000 C 
ATOM      4  N   UNL     1      -0.345  12.392  19.572  0.00  0.00    +0.000 N 
ATOM      5  C   UNL     1      -1.705  12.039  19.606  0.00  0.00    +0.000 C 
ATOM      6  O   UNL     1      -2.586  12.719  20.132  0.00  0.00    +0.000 OA
ATOM      7  C   UNL     1      -2.047  10.777  18.876  0.00  0.00    +0.000 C 
ATOM      8  C   UNL     1      -0.995   9.786  19.349  0.00  0.00    +0.000 C 
ENDROOT
BRANCH   1  10
ATOM      9  N   UNL     1       1.918   8.087  19.184  0.00  0.00    +0.000 N 
ATOM     10  C   UNL     1       1.436   9.157  18.413  0.00  0.00    +0.000 C 
ATOM     11  O   UNL     1       1.903   9.292  17.274  0.00  0.00    +0.000 OA
BRANCH   9  13
ATOM     12  C   UNL     1       2.567   5.837  18.324  0.00  0.00    +0.000 C 
ATOM     13  C   UNL     1       2.991   7.273  18.595  0.00  0.00    +0.000 C 
ENDBRANCH   9  13
BRANCH   9  14
ATOM     14  C   UNL     1       1.483   7.769  20.534  0.00  0.00    +0.000 C 
ATOM     15  C   UNL     1       1.523   8.766  21.666  0.00  0.00    +0.000 C 
ENDBRANCH   9  14
ENDBRANCH   1  10
BRANCH   4  16
ATOM     16  C   UNL     1      -0.039  13.709  20.145  0.00  0.00    +0.000 C 
BRANCH  16  17
ATOM     17  C   UNL     1      -0.293  14.893  19.211  0.00  0.00    +0.000 C 
BRANCH  17  18
ATOM     18  C   UNL     1       0.769  15.989  19.264  0.00  0.00    +0.000 C 
BRANCH  18  19
ATOM     19  N   UNL     1       0.609  16.926  18.162  0.00  0.00    +0.000 N 
ATOM     20  C   UNL     1      -0.605  17.686  17.972  0.00  0.00    +0.000 C 
ATOM     21  C   UNL     1      -0.370  18.397  16.658  0.00  0.00    +0.000 C 
ATOM     22  C   UNL     1       1.138  18.631  16.648  0.00  0.00    +0.000 C 
ATOM     23  C   UNL     1       1.678  17.495  17.483  0.00  0.00    +0.000 C 
ATOM     24  O   UNL     1       2.860  17.192  17.590  0.00  0.00    +0.000 OA
ENDBRANCH  18  19
ENDBRANCH  17  18
ENDBRANCH  16  17
ENDBRANCH   4  16
BRANCH   7  25
ATOM     25  C   UNL     1      -2.102  11.035  17.358  0.00  0.00    +0.000 C 
BRANCH  25  26
ATOM     26  C   UNL     1      -3.505  11.259  16.815  0.00  0.00    +0.000 C 
ATOM     27  O   UNL     1      -3.752  11.334  15.617  0.00  0.00    +0.000 OA
ATOM     28  N   UNL     1      -4.462  11.355  17.806  0.00  0.00    +0.000 N 
ATOM     29  H   UNL     1      -4.187  11.076  18.739  0.00  0.00    +0.000 HD
BRANCH  28  30
ATOM     30  C   UNL     1      -5.898  11.454  17.530  0.00  0.00    +0.000 C 
ATOM     31  C   UNL     1      -6.714  10.681  18.574  0.00  0.00    +0.000 C 
ATOM     32  C   UNL     1      -6.624  11.321  19.962  0.00  0.00    +0.000 C 
ATOM     33  C   UNL     1      -7.001  12.801  19.947  0.00  0.00    +0.000 C 
ATOM     34  C   UNL     1      -6.263  13.590  18.870  0.00  0.00    +0.000 C 
ATOM     35  C   UNL     1      -6.362  12.917  17.501  0.00  0.00    +0.000 C 
ENDBRANCH  28  30
ENDBRANCH  25  26
ENDBRANCH   7  25
TORSDOF 10
ENDMDL
MODEL 5
REMARK VINA RESULT:      -6.9      4.421     10.732
REMARK  Name = 
REMARK  13 active torsions:
REMARK  status: ('A' for Active; 'I' for Inactive)
REMARK    1  A    between atoms: C_1  and  C_2
REMARK    2  A    between atoms: C_2  and  N_3
REMARK    3  A    between atoms: N_3  and  C_4
REMARK    4  A    between atoms: C_4  and  C_5
REMARK    5  A    between atoms: C_6  and  C_8
REMARK    6  A    between atoms: C_9  and  C_10
REMARK    7  A    between atoms: N_11  and  C_12
REMARK    8  A    between atoms: C_12  and  C_13
REMARK    9  A    between atoms: C_13  and  C_14
REMARK   10  A    between atoms: C_14  and  N_15
REMARK   11  A    between atoms: C_23  and  C_24
REMARK   12  A    between atoms: C_24  and  C_25
REMARK   13  A    between atoms: N_27  and  C_28
REMARK                            x       y       z     vdW  Elec       q    Type
REMARK                         _______ _______ _______ _____ _____    ______ ____
ROOT
ATOM      1  C   UNL     1      -0.905  11.689  20.562  0.00  0.00    +0.000 C 
ATOM      2  C   UNL     1      -0.279  10.552  21.017  0.00  0.00    +0.000 C 
ATOM      3  C   UNL     1      -0.290  10.039  22.448  0.00  0.00    +0.000 C 
ATOM      4  N   UNL     1       0.478   9.752  20.099  0.00  0.00    +0.000 N 
ATOM      5  C   UNL     1       0.389   9.894  18.703  0.00  0.00    +0.000 C 
ATOM      6  O   UNL     1       1.115   9.310  17.899  0.00  0.00    +0.000 OA
ATOM      7  C   UNL     1      -0.727  10.772  18.229  0.00  0.00    +0.000 C 
ATOM      8  C   UNL     1      -0.619  12.007  19.111  0.00  0.00    +0.000 C 
ENDROOT
BRANCH   1  10
ATOM      9  N   UNL     1      -1.162  13.714  22.183  0.00  0.00    +0.000 N 
ATOM     10  C   UNL     1      -1.711  12.631  21.477  0.00  0.00    +0.000 C 
ATOM     11  O   UNL     1      -2.920  12.412  21.624  0.00  0.00    +0.000 OA
BRANCH   9  13
ATOM     12  C   UNL     1      -1.383  15.612  23.787  0.00  0.00    +0.000 C 
ATOM     13  C   UNL     1      -2.060  14.438  23.094  0.00  0.00    +0.000 C 
ENDBRANCH   9  13
BRANCH   9  14
ATOM     14  C   UNL     1       0.231  14.125  22.129  0.00  0.00    +0.000 C 
ATOM     15  C   UNL     1       0.810  14.918  20.982  0.00  0.00    +0.000 C 
ENDBRANCH   9  14
ENDBRANCH   1  10
BRANCH   4  16
ATOM     16  C   UNL     1       1.466   8.765  20.553  0.00  0.00    +0.000 C 
BRANCH  16  17
ATOM     17  C   UNL     1       0.930   7.341  20.708  0.00  0.00    +0.000 C 
BRANCH  17  18
ATOM     18  C   UNL     1       2.000   6.251  20.714  0.00  0.00    +0.000 C 
BRANCH  18  19
ATOM     19  N   UNL     1       1.755   5.271  19.666  0.00  0.00    +0.000 N 
ATOM     20  C   UNL     1       2.314   5.413  18.341  0.00  0.00    +0.000 C 
ATOM     21  C   UNL     1       1.691   4.266  17.576  0.00  0.00    +0.000 C 
ATOM     22  C   UNL     1       1.526   3.182  18.636  0.00  0.00    +0.000 C 
ATOM     23  C   UNL     1       1.368   3.963  19.919  0.00  0.00    +0.000 C 
ATOM     24  O   UNL     1       1.031   3.493  20.999  0.00  0.00    +0.000 OA
ENDBRANCH  18  19
ENDBRANCH  17  18
ENDBRANCH  16  17
ENDBRANCH   4  16
BRANCH   7  25
ATOM     25  C   UNL     1      -2.066  10.013  18.287  0.00  0.00    +0.000 C 
BRANCH  25  26
ATOM     26  C   UNL     1      -3.228  10.750  17.638  0.00  0.00    +0.000 C 
ATOM     27  O   UNL     1      -3.153  11.269  16.530  0.00  0.00    +0.000 OA
ATOM     28  N   UNL     1      -4.368  10.761  18.417  0.00  0.00    +0.000 N 
ATOM     29  H   UNL     1      -4.386  10.135  19.212  0.00  0.00    +0.000 HD
BRANCH  28  30
ATOM     30  C   UNL     1      -5.650  11.305  17.960  0.00  0.00    +0.000 C 
ATOM     31  C   UNL     1      -6.826  10.560  18.605  0.00  0.00    +0.000 C 
ATOM     32  C   UNL     1      -6.907  10.810  20.112  0.00  0.00    +0.000 C 
ATOM     33  C   UNL     1      -6.938  12.298  20.456  0.00  0.00    +0.000 C 
ATOM     34  C   UNL     1      -5.824  13.087  19.772  0.00  0.00    +0.000 C 
ATOM     35  C   UNL     1      -5.763  12.804  18.271  0.00  0.00    +0.000 C 
ENDBRANCH  28  30
ENDBRANCH  25  26
ENDBRANCH   7  25
TORSDOF 10
ENDMDL
MODEL 6
REMARK VINA RESULT:      -6.6      5.180      9.893
REMARK  Name = 
REMARK  13 active torsions:
REMARK  status: ('A' for Active; 'I' for Inactive)
REMARK    1  A    between atoms: C_1  and  C_2
REMARK    2  A    between atoms: C_2  and  N_3
REMARK    3  A    between atoms: N_3  and  C_4
REMARK    4  A    between atoms: C_4  and  C_5
REMARK    5  A    between atoms: C_6  and  C_8
REMARK    6  A    between atoms: C_9  and  C_10
REMARK    7  A    between atoms: N_11  and  C_12
REMARK    8  A    between atoms: C_12  and  C_13
REMARK    9  A    between atoms: C_13  and  C_14
REMARK   10  A    between atoms: C_14  and  N_15
REMARK   11  A    between atoms: C_23  and  C_24
REMARK   12  A    between atoms: C_24  and  C_25
REMARK   13  A    between atoms: N_27  and  C_28
REMARK                            x       y       z     vdW  Elec       q    Type
REMARK                         _______ _______ _______ _____ _____    ______ ____
ROOT
ATOM      1  C   UNL     1       0.301  10.518  19.017  0.00  0.00    +0.000 C 
ATOM      2  C   UNL     1       0.671  11.839  19.112  0.00  0.00    +0.000 C 
ATOM      3  C   UNL     1       2.049  12.404  18.806  0.00  0.00    +0.000 C 
ATOM      4  N   UNL     1      -0.290  12.808  19.549  0.00  0.00    +0.000 N 
ATOM      5  C   UNL     1      -1.670  12.545  19.614  0.00  0.00    +0.000 C 
ATOM      6  O   UNL     1      -2.501  13.312  20.100  0.00  0.00    +0.000 OA
ATOM      7  C   UNL     1      -2.098  11.263  18.969  0.00  0.00    +0.000 C 
ATOM      8  C   UNL     1      -1.105  10.240  19.499  0.00  0.00    +0.000 C 
ENDROOT
BRANCH   1  10
ATOM      9  N   UNL     1       1.706   8.361  19.432  0.00  0.00    +0.000 N 
ATOM     10  C   UNL     1       1.273   9.399  18.591  0.00  0.00    +0.000 C 
ATOM     11  O   UNL     1       1.725   9.423  17.439  0.00  0.00    +0.000 OA
BRANCH   9  13
ATOM     12  C   UNL     1       2.688   6.071  19.543  0.00  0.00    +0.000 C 
ATOM     13  C   UNL     1       2.718   7.444  18.888  0.00  0.00    +0.000 C 
ENDBRANCH   9  13
BRANCH   9  14
ATOM     14  C   UNL     1       1.279   8.169  20.808  0.00  0.00    +0.000 C 
ATOM     15  C   UNL     1       1.557   9.169  21.903  0.00  0.00    +0.000 C 
ENDBRANCH   9  14
ENDBRANCH   1  10
BRANCH   4  16
ATOM     16  C   UNL     1       0.103  14.137  20.035  0.00  0.00    +0.000 C 
BRANCH  16  17
ATOM     17  C   UNL     1       0.413  14.210  21.531  0.00  0.00    +0.000 C 
BRANCH  17  18
ATOM     18  C   UNL     1      -0.244  15.379  22.264  0.00  0.00    +0.000 C 
BRANCH  18  19
ATOM     19  N   UNL     1      -1.384  14.929  23.049  0.00  0.00    +0.000 N 
ATOM     20  C   UNL     1      -1.597  13.534  23.362  0.00  0.00    +0.000 C 
ATOM     21  C   UNL     1      -2.942  13.534  24.054  0.00  0.00    +0.000 C 
ATOM     22  C   UNL     1      -2.973  14.882  24.767  0.00  0.00    +0.000 C 
ATOM     23  C   UNL     1      -2.095  15.758  23.906  0.00  0.00    +0.000 C 
ATOM     24  O   UNL     1      -1.984  16.974  24.011  0.00  0.00    +0.000 OA
ENDBRANCH  18  19
ENDBRANCH  17  18
ENDBRANCH  16  17
ENDBRANCH   4  16
BRANCH   7  25
ATOM     25  C   UNL     1      -2.151  11.426  17.438  0.00  0.00    +0.000 C 
BRANCH  25  26
ATOM     26  C   UNL     1      -3.558  11.440  16.862  0.00  0.00    +0.000 C 
ATOM     27  O   UNL     1      -3.846  10.920  15.790  0.00  0.00    +0.000 OA
ATOM     28  N   UNL     1      -4.471  12.085  17.673  0.00  0.00    +0.000 N 
ATOM     29  H   UNL     1      -4.176  12.295  18.619  0.00  0.00    +0.000 HD
BRANCH  28  30
ATOM     30  C   UNL     1      -5.908  12.128  17.392  0.00  0.00    +0.000 C 
ATOM     31  C   UNL     1      -6.665  11.086  18.226  0.00  0.00    +0.000 C 
ATOM     32  C   UNL     1      -6.636  11.416  19.720  0.00  0.00    +0.000 C 
ATOM     33  C   UNL     1      -7.132  12.830  20.016  0.00  0.00    +0.000 C 
ATOM     34  C   UNL     1      -6.454  13.889  19.151  0.00  0.00    +0.000 C 
ATOM     35  C   UNL     1      -6.490  13.522  17.667  0.00  0.00    +0.000 C 
ENDBRANCH  28  30
ENDBRANCH  25  26
ENDBRANCH   7  25
TORSDOF 10
ENDMDL
MODEL 7
REMARK VINA RESULT:      -6.6      4.321      9.248
REMARK  Name = 
REMARK  13 active torsions:
REMARK  status: ('A' for Active; 'I' for Inactive)
REMARK    1  A    between atoms: C_1  and  C_2
REMARK    2  A    between atoms: C_2  and  N_3
REMARK    3  A    between atoms: N_3  and  C_4
REMARK    4  A    between atoms: C_4  and  C_5
REMARK    5  A    between atoms: C_6  and  C_8
REMARK    6  A    between atoms: C_9  and  C_10
REMARK    7  A    between atoms: N_11  and  C_12
REMARK    8  A    between atoms: C_12  and  C_13
REMARK    9  A    between atoms: C_13  and  C_14
REMARK   10  A    between atoms: C_14  and  N_15
REMARK   11  A    between atoms: C_23  and  C_24
REMARK   12  A    between atoms: C_24  and  C_25
REMARK   13  A    between atoms: N_27  and  C_28
REMARK                            x       y       z     vdW  Elec       q    Type
REMARK                         _______ _______ _______ _____ _____    ______ ____
ROOT
ATOM      1  C   UNL     1      -0.472  11.866  20.029  0.00  0.00    +0.000 C 
ATOM      2  C   UNL     1       0.736  12.515  20.127  0.00  0.00    +0.000 C 
ATOM      3  C   UNL     1       1.122  13.529  21.192  0.00  0.00    +0.000 C 
ATOM      4  N   UNL     1       1.753  12.257  19.150  0.00  0.00    +0.000 N 
ATOM      5  C   UNL     1       1.704  11.170  18.260  0.00  0.00    +0.000 C 
ATOM      6  O   UNL     1       2.495  10.994  17.333  0.00  0.00    +0.000 OA
ATOM      7  C   UNL     1       0.639  10.160  18.558  0.00  0.00    +0.000 C 
ATOM      8  C   UNL     1      -0.605  11.001  18.795  0.00  0.00    +0.000 C 
ENDROOT
BRANCH   1  10
ATOM      9  N   UNL     1      -1.674  11.630  22.330  0.00  0.00    +0.000 N 
ATOM     10  C   UNL     1      -1.638  12.104  21.009  0.00  0.00    +0.000 C 
ATOM     11  O   UNL     1      -2.623  12.735  20.605  0.00  0.00    +0.000 OA
BRANCH   9  13
ATOM     12  C   UNL     1      -2.911  13.179  23.843  0.00  0.00    +0.000 C 
ATOM     13  C   UNL     1      -2.914  11.859  23.085  0.00  0.00    +0.000 C 
ENDBRANCH   9  13
BRANCH   9  14
ATOM     14  C   UNL     1      -0.609  10.879  22.976  0.00  0.00    +0.000 C 
ATOM     15  C   UNL     1      -0.544   9.372  22.966  0.00  0.00    +0.000 C 
ENDBRANCH   9  14
ENDBRANCH   1  10
BRANCH   4  16
ATOM     16  C   UNL     1       2.897  13.157  18.955  0.00  0.00    +0.000 C 
BRANCH  16  17
ATOM     17  C   UNL     1       2.615  14.375  18.073  0.00  0.00    +0.000 C 
BRANCH  17  18
ATOM     18  C   UNL     1       2.495  15.697  18.827  0.00  0.00    +0.000 C 
BRANCH  18  19
ATOM     19  N   UNL     1       1.374  16.482  18.332  0.00  0.00    +0.000 N 
ATOM     20  C   UNL     1       0.121  16.562  19.048  0.00  0.00    +0.000 C 
ATOM     21  C   UNL     1      -0.766  17.351  18.110  0.00  0.00    +0.000 C 
ATOM     22  C   UNL     1       0.209  18.288  17.405  0.00  0.00    +0.000 C 
ATOM     23  C   UNL     1       1.512  17.526  17.428  0.00  0.00    +0.000 C 
ATOM     24  O   UNL     1       2.525  17.832  16.810  0.00  0.00    +0.000 OA
ENDBRANCH  18  19
ENDBRANCH  17  18
ENDBRANCH  16  17
ENDBRANCH   4  16
BRANCH   7  25
ATOM     25  C   UNL     1       1.075   9.250  19.722  0.00  0.00    +0.000 C 
BRANCH  25  26
ATOM     26  C   UNL     1       2.027   8.135  19.319  0.00  0.00    +0.000 C 
ATOM     27  O   UNL     1       2.800   8.227  18.373  0.00  0.00    +0.000 OA
ATOM     28  N   UNL     1       1.935   7.022  20.132  0.00  0.00    +0.000 N 
ATOM     29  H   UNL     1       1.420   7.127  20.997  0.00  0.00    +0.000 HD
BRANCH  28  30
ATOM     30  C   UNL     1       2.829   5.866  20.017  0.00  0.00    +0.000 C 
ATOM     31  C   UNL     1       2.360   4.716  20.917  0.00  0.00    +0.000 C 
ATOM     32  C   UNL     1       1.031   4.122  20.444  0.00  0.00    +0.000 C 
ATOM     33  C   UNL     1       1.070   3.699  18.977  0.00  0.00    +0.000 C 
ATOM     34  C   UNL     1       1.602   4.796  18.058  0.00  0.00    +0.000 C 
ATOM     35  C   UNL     1       2.923   5.374  18.566  0.00  0.00    +0.000 C 
ENDBRANCH  28  30
ENDBRANCH  25  26
ENDBRANCH   7  25
TORSDOF 10
ENDMDL
MODEL 8
REMARK VINA RESULT:      -6.6      5.306      9.937
REMARK  Name = 
REMARK  13 active torsions:
REMARK  status: ('A' for Active; 'I' for Inactive)
REMARK    1  A    between atoms: C_1  and  C_2
REMARK    2  A    between atoms: C_2  and  N_3
REMARK    3  A    between atoms: N_3  and  C_4
REMARK    4  A    between atoms: C_4  and  C_5
REMARK    5  A    between atoms: C_6  and  C_8
REMARK    6  A    between atoms: C_9  and  C_10
REMARK    7  A    between atoms: N_11  and  C_12
REMARK    8  A    between atoms: C_12  and  C_13
REMARK    9  A    between atoms: C_13  and  C_14
REMARK   10  A    between atoms: C_14  and  N_15
REMARK   11  A    between atoms: C_23  and  C_24
REMARK   12  A    between atoms: C_24  and  C_25
REMARK   13  A    between atoms: N_27  and  C_28
REMARK                            x       y       z     vdW  Elec       q    Type
REMARK                         _______ _______ _______ _____ _____    ______ ____
ROOT
ATOM      1  C   UNL     1       0.330  10.590  19.036  0.00  0.00    +0.000 C 
ATOM      2  C   UNL     1       0.734  11.901  19.128  0.00  0.00    +0.000 C 
ATOM      3  C   UNL     1       2.125  12.431  18.819  0.00  0.00    +0.000 C 
ATOM      4  N   UNL     1      -0.202  12.895  19.565  0.00  0.00    +0.000 N 
ATOM      5  C   UNL     1      -1.588  12.667  19.633  0.00  0.00    +0.000 C 
ATOM      6  O   UNL     1      -2.398  13.456  20.119  0.00  0.00    +0.000 OA
ATOM      7  C   UNL     1      -2.049  11.395  18.991  0.00  0.00    +0.000 C 
ATOM      8  C   UNL     1      -1.082  10.348  19.520  0.00  0.00    +0.000 C 
ENDROOT
BRANCH   1  10
ATOM      9  N   UNL     1       1.648   8.377  19.439  0.00  0.00    +0.000 N 
ATOM     10  C   UNL     1       1.272   9.446  18.610  0.00  0.00    +0.000 C 
ATOM     11  O   UNL     1       1.753   9.477  17.470  0.00  0.00    +0.000 OA
BRANCH   9  13
ATOM     12  C   UNL     1       2.651   6.101  19.632  0.00  0.00    +0.000 C 
ATOM     13  C   UNL     1       2.641   7.436  18.900  0.00  0.00    +0.000 C 
ENDBRANCH   9  13
BRANCH   9  14
ATOM     14  C   UNL     1       1.181   8.172  20.800  0.00  0.00    +0.000 C 
ATOM     15  C   UNL     1       1.515   9.111  21.934  0.00  0.00    +0.000 C 
ENDBRANCH   9  14
ENDBRANCH   1  10
BRANCH   4  16
ATOM     16  C   UNL     1       0.226  14.215  20.048  0.00  0.00    +0.000 C 
BRANCH  16  17
ATOM     17  C   UNL     1       0.342  15.290  18.967  0.00  0.00    +0.000 C 
BRANCH  17  18
ATOM     18  C   UNL     1       1.003  16.589  19.424  0.00  0.00    +0.000 C 
BRANCH  18  19
ATOM     19  N   UNL     1       2.453  16.499  19.333  0.00  0.00    +0.000 N 
ATOM     20  C   UNL     1       3.230  15.703  20.257  0.00  0.00    +0.000 C 
ATOM     21  C   UNL     1       4.658  16.019  19.872  0.00  0.00    +0.000 C 
ATOM     22  C   UNL     1       4.573  16.269  18.370  0.00  0.00    +0.000 C 
ATOM     23  C   UNL     1       3.164  16.774  18.173  0.00  0.00    +0.000 C 
ATOM     24  O   UNL     1       2.723  17.266  17.142  0.00  0.00    +0.000 OA
ENDBRANCH  18  19
ENDBRANCH  17  18
ENDBRANCH  16  17
ENDBRANCH   4  16
BRANCH   7  25
ATOM     25  C   UNL     1      -2.101  11.558  17.460  0.00  0.00    +0.000 C 
BRANCH  25  26
ATOM     26  C   UNL     1      -3.492  11.408  16.864  0.00  0.00    +0.000 C 
ATOM     27  O   UNL     1      -3.711  10.801  15.822  0.00  0.00    +0.000 OA
ATOM     28  N   UNL     1      -4.475  12.013  17.622  0.00  0.00    +0.000 N 
ATOM     29  H   UNL     1      -4.219  12.305  18.557  0.00  0.00    +0.000 HD
BRANCH  28  30
ATOM     30  C   UNL     1      -5.905  11.907  17.319  0.00  0.00    +0.000 C 
ATOM     31  C   UNL     1      -6.616  10.996  18.328  0.00  0.00    +0.000 C 
ATOM     32  C   UNL     1      -6.646  11.605  19.731  0.00  0.00    +0.000 C 
ATOM     33  C   UNL     1      -7.236  13.014  19.743  0.00  0.00    +0.000 C 
ATOM     34  C   UNL     1      -6.603  13.931  18.700  0.00  0.00    +0.000 C 
ATOM     35  C   UNL     1      -6.579  13.286  17.314  0.00  0.00    +0.000 C 
ENDBRANCH  28  30
ENDBRANCH  25  26
ENDBRANCH   7  25
TORSDOF 10
ENDMDL
MODEL 9
REMARK VINA RESULT:      -6.5      4.155     10.094
REMARK  Name = 
REMARK  13 active torsions:
REMARK  status: ('A' for Active; 'I' for Inactive)
REMARK    1  A    between atoms: C_1  and  C_2
REMARK    2  A    between atoms: C_2  and  N_3
REMARK    3  A    between atoms: N_3  and  C_4
REMARK    4  A    between atoms: C_4  and  C_5
REMARK    5  A    between atoms: C_6  and  C_8
REMARK    6  A    between atoms: C_9  and  C_10
REMARK    7  A    between atoms: N_11  and  C_12
REMARK    8  A    between atoms: C_12  and  C_13
REMARK    9  A    between atoms: C_13  and  C_14
REMARK   10  A    between atoms: C_14  and  N_15
REMARK   11  A    between atoms: C_23  and  C_24
REMARK   12  A    between atoms: C_24  and  C_25
REMARK   13  A    between atoms: N_27  and  C_28
REMARK                            x       y       z     vdW  Elec       q    Type
REMARK                         _______ _______ _______ _____ _____    ______ ____
ROOT
ATOM      1  C   UNL     1      -0.795  10.862  19.397  0.00  0.00    +0.000 C 
ATOM      2  C   UNL     1       0.406  10.198  19.479  0.00  0.00    +0.000 C 
ATOM      3  C   UNL     1       1.347   9.909  18.320  0.00  0.00    +0.000 C 
ATOM      4  N   UNL     1       0.850   9.701  20.748  0.00  0.00    +0.000 N 
ATOM      5  C   UNL     1       0.275  10.095  21.970  0.00  0.00    +0.000 C 
ATOM      6  O   UNL     1       0.550   9.595  23.060  0.00  0.00    +0.000 OA
ATOM      7  C   UNL     1      -0.672  11.252  21.876  0.00  0.00    +0.000 C 
ATOM      8  C   UNL     1      -1.566  10.896  20.699  0.00  0.00    +0.000 C 
ENDROOT
BRANCH   1  10
ATOM      9  N   UNL     1      -2.397  10.780  17.342  0.00  0.00    +0.000 N 
ATOM     10  C   UNL     1      -1.372  11.401  18.073  0.00  0.00    +0.000 C 
ATOM     11  O   UNL     1      -0.889  12.439  17.604  0.00  0.00    +0.000 OA
BRANCH   9  13
ATOM     12  C   UNL     1      -2.876  10.349  14.932  0.00  0.00    +0.000 C 
ATOM     13  C   UNL     1      -2.746  11.378  16.046  0.00  0.00    +0.000 C 
ENDBRANCH   9  13
BRANCH   9  14
ATOM     14  C   UNL     1      -3.086   9.562  17.740  0.00  0.00    +0.000 C 
ATOM     15  C   UNL     1      -4.529   9.540  18.179  0.00  0.00    +0.000 C 
ENDBRANCH   9  14
ENDBRANCH   1  10
BRANCH   4  16
ATOM     16  C   UNL     1       1.898   8.679  20.866  0.00  0.00    +0.000 C 
BRANCH  16  17
ATOM     17  C   UNL     1       1.437   7.249  20.580  0.00  0.00    +0.000 C 
BRANCH  17  18
ATOM     18  C   UNL     1       2.304   6.484  19.582  0.00  0.00    +0.000 C 
BRANCH  18  19
ATOM     19  N   UNL     1       1.985   5.064  19.591  0.00  0.00    +0.000 N 
ATOM     20  C   UNL     1       1.036   4.499  20.523  0.00  0.00    +0.000 C 
ATOM     21  C   UNL     1       1.133   3.012  20.261  0.00  0.00    +0.000 C 
ATOM     22  C   UNL     1       1.457   2.937  18.772  0.00  0.00    +0.000 C 
ATOM     23  C   UNL     1       2.191   4.228  18.503  0.00  0.00    +0.000 C 
ATOM     24  O   UNL     1       2.792   4.502  17.471  0.00  0.00    +0.000 OA
ENDBRANCH  18  19
ENDBRANCH  17  18
ENDBRANCH  16  17
ENDBRANCH   4  16
BRANCH   7  25
ATOM     25  C   UNL     1       0.109  12.575  21.760  0.00  0.00    +0.000 C 
BRANCH  25  26
ATOM     26  C   UNL     1      -0.514  13.734  22.522  0.00  0.00    +0.000 C 
ATOM     27  O   UNL     1       0.095  14.767  22.779  0.00  0.00    +0.000 OA
ATOM     28  N   UNL     1      -1.828  13.507  22.879  0.00  0.00    +0.000 N 
ATOM     29  H   UNL     1      -2.292  12.719  22.444  0.00  0.00    +0.000 HD
BRANCH  28  30
ATOM     30  C   UNL     1      -2.676  14.519  23.514  0.00  0.00    +0.000 C 
ATOM     31  C   UNL     1      -3.737  15.042  22.537  0.00  0.00    +0.000 C 
ATOM     32  C   UNL     1      -4.764  13.966  22.175  0.00  0.00    +0.000 C 
ATOM     33  C   UNL     1      -5.408  13.335  23.408  0.00  0.00    +0.000 C 
ATOM     34  C   UNL     1      -4.383  12.868  24.438  0.00  0.00    +0.000 C 
ATOM     35  C   UNL     1      -3.366  13.962  24.767  0.00  0.00    +0.000 C 
ENDBRANCH  28  30
ENDBRANCH  25  26
ENDBRANCH   7  25
TORSDOF 10
ENDMDL
