MODEL 1
REMARK VINA RESULT:      -6.0      0.000      0.000
REMARK  Name = 
REMARK  9 active torsions:
REMARK  status: ('A' for Active; 'I' for Inactive)
REMARK    1  A    between atoms: C_1  and  O_2
REMARK    2  A    between atoms: O_2  and  C_3
REMARK    3  A    between atoms: C_8  and  O_9
REMARK    4  A    between atoms: O_9  and  C_10
REMARK    5  A    between atoms: C_21  and  O_22
REMARK    6  A    between atoms: O_22  and  C_23
REMARK    7  A    between atoms: C_28  and  N_29
REMARK    8  A    between atoms: N_29  and  C_30
REMARK    9  A    between atoms: N_29  and  C_31
REMARK                            x       y       z     vdW  Elec       q    Type
REMARK                         _______ _______ _______ _____ _____    ______ ____
ROOT
ATOM      1  C   UNL     1       2.493  14.194  21.306  0.00  0.00    +0.000 A 
ATOM      2  C   UNL     1       2.524  13.474  20.100  0.00  0.00    +0.000 A 
ATOM      3  C   UNL     1       1.346  13.355  19.337  0.00  0.00    +0.000 A 
ATOM      4  C   UNL     1       0.250  14.108  19.722  0.00  0.00    +0.000 A 
ATOM      5  C   UNL     1       0.449  15.161  20.582  0.00  0.00    +0.000 A 
ATOM      6  C   UNL     1       1.384  14.999  21.582  0.00  0.00    +0.000 A 
ATOM      7  C   UNL     1      -0.787  15.927  20.609  0.00  0.00    +0.000 C 
ATOM      8  O   UNL     1      -0.861  17.122  20.814  0.00  0.00    +0.000 OA
ATOM      9  N   UNL     1      -1.798  14.975  20.400  0.00  0.00    +0.000 N 
ATOM     10  C   UNL     1      -1.227  13.927  19.628  0.00  0.00    +0.000 C 
ATOM     11  C   UNL     1      -1.891  12.754  19.527  0.00  0.00    +0.000 C 
ATOM     12  C   UNL     1      -1.451  11.767  20.544  0.00  0.00    +0.000 A 
ATOM     13  C   UNL     1      -1.702  12.135  21.902  0.00  0.00    +0.000 A 
ATOM     14  C   UNL     1      -1.073  11.435  22.923  0.00  0.00    +0.000 A 
ATOM     15  C   UNL     1      -0.212  10.411  22.564  0.00  0.00    +0.000 A 
ATOM     16  C   UNL     1      -0.043  10.003  21.245  0.00  0.00    +0.000 A 
ATOM     17  C   UNL     1      -0.703  10.626  20.211  0.00  0.00    +0.000 A 
ATOM     18  O   UNL     1       0.866   8.990  21.167  0.00  0.00    +0.000 OA
ATOM     19  C   UNL     1       1.412   9.004  22.500  0.00  0.00    +0.000 C 
ATOM     20  O   UNL     1       0.581   9.724  23.428  0.00  0.00    +0.000 OA
ATOM     21  C   UNL     1      -2.710  13.236  22.205  0.00  0.00    +0.000 C 
ATOM     22  C   UNL     1      -2.396  14.694  21.738  0.00  0.00    +0.000 C 
ENDROOT
BRANCH  22  23
ATOM     23  N   UNL     1      -3.475  15.672  21.959  0.00  0.00    +0.000 NA
ATOM     24  C   UNL     1      -4.759  15.298  21.395  0.00  0.00    +0.000 C 
ATOM     25  C   UNL     1      -3.580  16.092  23.351  0.00  0.00    +0.000 C 
ENDBRANCH  22  23
BRANCH   1  27
ATOM     26  C   UNL     1       4.756  14.426  22.024  0.00  0.00    +0.000 C 
ATOM     27  O   UNL     1       3.411  14.104  22.315  0.00  0.00    +0.000 OA
ENDBRANCH   1  27
BRANCH   6  28
ATOM     28  O   UNL     1       1.086  15.467  22.839  0.00  0.00    +0.000 OA
ATOM     29  C   UNL     1       1.685  16.748  23.114  0.00  0.00    +0.000 C 
ENDBRANCH   6  28
BRANCH  17  30
ATOM     30  O   UNL     1      -0.662  10.279  18.890  0.00  0.00    +0.000 OA
ATOM     31  C   UNL     1       0.626  10.040  18.331  0.00  0.00    +0.000 C 
ENDBRANCH  17  30
TORSDOF 4
ENDMDL
MODEL 2
REMARK VINA RESULT:      -5.8      1.009      1.054
REMARK  Name = 
REMARK  9 active torsions:
REMARK  status: ('A' for Active; 'I' for Inactive)
REMARK    1  A    between atoms: C_1  and  O_2
REMARK    2  A    between atoms: O_2  and  C_3
REMARK    3  A    between atoms: C_8  and  O_9
REMARK    4  A    between atoms: O_9  and  C_10
REMARK    5  A    between atoms: C_21  and  O_22
REMARK    6  A    between atoms: O_22  and  C_23
REMARK    7  A    between atoms: C_28  and  N_29
REMARK    8  A    between atoms: N_29  and  C_30
REMARK    9  A    between atoms: N_29  and  C_31
REMARK                            x       y       z     vdW  Elec       q    Type
REMARK                         _______ _______ _______ _____ _____    ______ ____
ROOT
ATOM      1  C   UNL     1       1.926  14.800  21.657  0.00  0.00    +0.000 A 
ATOM      2  C   UNL     1       1.882  14.303  20.344  0.00  0.00    +0.000 A 
ATOM      3  C   UNL     1       0.640  14.209  19.683  0.00  0.00    +0.000 A 
ATOM      4  C   UNL     1      -0.461  14.781  20.296  0.00  0.00    +0.000 A 
ATOM      5  C   UNL     1      -0.250  15.685  21.309  0.00  0.00    +0.000 A 
ATOM      6  C   UNL     1       0.796  15.442  22.173  0.00  0.00    +0.000 A 
ATOM      7  C   UNL     1      -1.529  16.319  21.587  0.00  0.00    +0.000 C 
ATOM      8  O   UNL     1      -1.669  17.450  22.008  0.00  0.00    +0.000 OA
ATOM      9  N   UNL     1      -2.483  15.329  21.304  0.00  0.00    +0.000 N 
ATOM     10  C   UNL     1      -1.922  14.485  20.308  0.00  0.00    +0.000 C 
ATOM     11  C   UNL     1      -2.504  13.290  20.060  0.00  0.00    +0.000 C 
ATOM     12  C   UNL     1      -1.886  12.189  20.839  0.00  0.00    +0.000 A 
ATOM     13  C   UNL     1      -2.018  12.295  22.258  0.00  0.00    +0.000 A 
ATOM     14  C   UNL     1      -1.234  11.491  23.074  0.00  0.00    +0.000 A 
ATOM     15  C   UNL     1      -0.343  10.627  22.460  0.00  0.00    +0.000 A 
ATOM     16  C   UNL     1      -0.286  10.467  21.079  0.00  0.00    +0.000 A 
ATOM     17  C   UNL     1      -1.096  11.195  20.239  0.00  0.00    +0.000 A 
ATOM     18  O   UNL     1       0.683   9.570  20.738  0.00  0.00    +0.000 OA
ATOM     19  C   UNL     1       1.366   9.406  21.995  0.00  0.00    +0.000 C 
ATOM     20  O   UNL     1       0.587   9.878  23.110  0.00  0.00    +0.000 OA
ATOM     21  C   UNL     1      -3.066  13.230  22.845  0.00  0.00    +0.000 C 
ATOM     22  C   UNL     1      -2.912  14.770  22.620  0.00  0.00    +0.000 C 
ENDROOT
BRANCH  22  23
ATOM     23  N   UNL     1      -4.031  15.593  23.110  0.00  0.00    +0.000 NA
ATOM     24  C   UNL     1      -5.350  15.095  22.764  0.00  0.00    +0.000 C 
ATOM     25  C   UNL     1      -3.913  15.917  24.527  0.00  0.00    +0.000 C 
ENDBRANCH  22  23
BRANCH   1  27
ATOM     26  C   UNL     1       4.259  14.473  22.032  0.00  0.00    +0.000 C 
ATOM     27  O   UNL     1       2.950  14.624  22.544  0.00  0.00    +0.000 OA
ENDBRANCH   1  27
BRANCH   6  28
ATOM     28  O   UNL     1       0.600  15.659  23.516  0.00  0.00    +0.000 OA
ATOM     29  C   UNL     1       1.081  16.945  23.949  0.00  0.00    +0.000 C 
ENDBRANCH   6  28
BRANCH  17  30
ATOM     30  O   UNL     1      -1.170  11.084  18.880  0.00  0.00    +0.000 OA
ATOM     31  C   UNL     1      -2.004  10.050  18.366  0.00  0.00    +0.000 C 
ENDBRANCH  17  30
TORSDOF 4
ENDMDL
MODEL 3
REMARK VINA RESULT:      -5.7      1.623      2.151
REMARK  Name = 
REMARK  9 active torsions:
REMARK  status: ('A' for Active; 'I' for Inactive)
REMARK    1  A    between atoms: C_1  and  O_2
REMARK    2  A    between atoms: O_2  and  C_3
REMARK    3  A    between atoms: C_8  and  O_9
REMARK    4  A    between atoms: O_9  and  C_10
REMARK    5  A    between atoms: C_21  and  O_22
REMARK    6  A    between atoms: O_22  and  C_23
REMARK    7  A    between atoms: C_28  and  N_29
REMARK    8  A    between atoms: N_29  and  C_30
REMARK    9  A    between atoms: N_29  and  C_31
REMARK                            x       y       z     vdW  Elec       q    Type
REMARK                         _______ _______ _______ _____ _____    ______ ____
ROOT
ATOM      1  C   UNL     1       2.089  14.761  19.910  0.00  0.00    +0.000 A 
ATOM      2  C   UNL     1       1.333  14.632  18.733  0.00  0.00    +0.000 A 
ATOM      3  C   UNL     1      -0.073  14.703  18.805  0.00  0.00    +0.000 A 
ATOM      4  C   UNL     1      -0.638  15.080  20.011  0.00  0.00    +0.000 A 
ATOM      5  C   UNL     1       0.164  15.683  20.950  0.00  0.00    +0.000 A 
ATOM      6  C   UNL     1       1.460  15.229  21.067  0.00  0.00    +0.000 A 
ATOM      7  C   UNL     1      -0.713  16.206  21.985  0.00  0.00    +0.000 C 
ATOM      8  O   UNL     1      -0.478  17.182  22.669  0.00  0.00    +0.000 OA
ATOM      9  N   UNL     1      -1.799  15.317  22.012  0.00  0.00    +0.000 N 
ATOM     10  C   UNL     1      -1.923  14.775  20.704  0.00  0.00    +0.000 C 
ATOM     11  C   UNL     1      -2.698  13.684  20.519  0.00  0.00    +0.000 C 
ATOM     12  C   UNL     1      -1.922  12.421  20.586  0.00  0.00    +0.000 A 
ATOM     13  C   UNL     1      -1.314  12.144  21.849  0.00  0.00    +0.000 A 
ATOM     14  C   UNL     1      -0.338  11.160  21.931  0.00  0.00    +0.000 A 
ATOM     15  C   UNL     1       0.009  10.501  20.763  0.00  0.00    +0.000 A 
ATOM     16  C   UNL     1      -0.651  10.715  19.557  0.00  0.00    +0.000 A 
ATOM     17  C   UNL     1      -1.671  11.632  19.452  0.00  0.00    +0.000 A 
ATOM     18  O   UNL     1      -0.106   9.952  18.568  0.00  0.00    +0.000 OA
ATOM     19  C   UNL     1       1.086   9.466  19.216  0.00  0.00    +0.000 C 
ATOM     20  O   UNL     1       1.034   9.615  20.646  0.00  0.00    +0.000 OA
ATOM     21  C   UNL     1      -1.800  12.878  23.092  0.00  0.00    +0.000 C 
ATOM     22  C   UNL     1      -1.583  14.423  23.187  0.00  0.00    +0.000 C 
ENDROOT
BRANCH  22  23
ATOM     23  N   UNL     1      -2.192  15.073  24.360  0.00  0.00    +0.000 NA
ATOM     24  C   UNL     1      -3.444  14.485  24.799  0.00  0.00    +0.000 C 
ATOM     25  C   UNL     1      -1.249  15.255  25.456  0.00  0.00    +0.000 C 
ENDBRANCH  22  23
BRANCH   1  27
ATOM     26  C   UNL     1       4.361  14.886  19.190  0.00  0.00    +0.000 C 
ATOM     27  O   UNL     1       3.387  14.366  20.073  0.00  0.00    +0.000 OA
ENDBRANCH   1  27
BRANCH   6  28
ATOM     28  O   UNL     1       1.989  15.079  22.327  0.00  0.00    +0.000 OA
ATOM     29  C   UNL     1       2.868  16.158  22.695  0.00  0.00    +0.000 C 
ENDBRANCH   6  28
BRANCH  17  30
ATOM     30  O   UNL     1      -2.427  11.886  18.343  0.00  0.00    +0.000 OA
ATOM     31  C   UNL     1      -3.425  10.926  18.014  0.00  0.00    +0.000 C 
ENDBRANCH  17  30
TORSDOF 4
ENDMDL
MODEL 4
REMARK VINA RESULT:      -5.6      5.633      9.251
REMARK  Name = 
REMARK  9 active torsions:
REMARK  status: ('A' for Active; 'I' for Inactive)
REMARK    1  A    between atoms: C_1  and  O_2
REMARK    2  A    between atoms: O_2  and  C_3
REMARK    3  A    between atoms: C_8  and  O_9
REMARK    4  A    between atoms: O_9  and  C_10
REMARK    5  A    between atoms: C_21  and  O_22
REMARK    6  A    between atoms: O_22  and  C_23
REMARK    7  A    between atoms: C_28  and  N_29
REMARK    8  A    between atoms: N_29  and  C_30
REMARK    9  A    between atoms: N_29  and  C_31
REMARK                            x       y       z     vdW  Elec       q    Type
REMARK                         _______ _______ _______ _____ _____    ______ ____
ROOT
ATOM      1  C   UNL     1       8.693  13.835  22.566  0.00  0.00    +0.000 A 
ATOM      2  C   UNL     1       9.732  14.736  22.278  0.00  0.00    +0.000 A 
ATOM      3  C   UNL     1       9.500  15.789  21.371  0.00  0.00    +0.000 A 
ATOM      4  C   UNL     1       8.201  15.996  20.941  0.00  0.00    +0.000 A 
ATOM      5  C   UNL     1       7.176  15.418  21.652  0.00  0.00    +0.000 A 
ATOM      6  C   UNL     1       7.392  14.159  22.170  0.00  0.00    +0.000 A 
ATOM      7  C   UNL     1       5.937  15.999  21.162  0.00  0.00    +0.000 C 
ATOM      8  O   UNL     1       4.927  16.144  21.821  0.00  0.00    +0.000 OA
ATOM      9  N   UNL     1       6.190  16.281  19.810  0.00  0.00    +0.000 N 
ATOM     10  C   UNL     1       7.584  16.524  19.691  0.00  0.00    +0.000 C 
ATOM     11  C   UNL     1       8.143  16.536  18.460  0.00  0.00    +0.000 C 
ATOM     12  C   UNL     1       8.700  15.214  18.080  0.00  0.00    +0.000 A 
ATOM     13  C   UNL     1       7.744  14.159  17.963  0.00  0.00    +0.000 A 
ATOM     14  C   UNL     1       8.187  12.844  17.907  0.00  0.00    +0.000 A 
ATOM     15  C   UNL     1       9.552  12.623  17.983  0.00  0.00    +0.000 A 
ATOM     16  C   UNL     1      10.479  13.660  18.007  0.00  0.00    +0.000 A 
ATOM     17  C   UNL     1      10.082  14.977  17.993  0.00  0.00    +0.000 A 
ATOM     18  O   UNL     1      11.748  13.170  18.096  0.00  0.00    +0.000 OA
ATOM     19  C   UNL     1      11.490  11.783  18.384  0.00  0.00    +0.000 C 
ATOM     20  O   UNL     1      10.137  11.400  18.080  0.00  0.00    +0.000 OA
ATOM     21  C   UNL     1       6.266  14.499  17.826  0.00  0.00    +0.000 C 
ATOM     22  C   UNL     1       5.539  15.192  19.024  0.00  0.00    +0.000 C 
ENDROOT
BRANCH  22  23
ATOM     23  N   UNL     1       4.147  15.600  18.765  0.00  0.00    +0.000 NA
ATOM     24  C   UNL     1       3.908  16.140  17.439  0.00  0.00    +0.000 C 
ATOM     25  C   UNL     1       3.181  14.570  19.128  0.00  0.00    +0.000 C 
ENDBRANCH  22  23
BRANCH   1  27
ATOM     26  C   UNL     1       8.678  12.453  24.511  0.00  0.00    +0.000 C 
ATOM     27  O   UNL     1       8.842  12.592  23.113  0.00  0.00    +0.000 OA
ENDBRANCH   1  27
BRANCH   6  28
ATOM     28  O   UNL     1       6.377  13.236  22.090  0.00  0.00    +0.000 OA
ATOM     29  C   UNL     1       5.564  13.196  23.277  0.00  0.00    +0.000 C 
ENDBRANCH   6  28
BRANCH  17  30
ATOM     30  O   UNL     1      10.895  16.074  17.956  0.00  0.00    +0.000 OA
ATOM     31  C   UNL     1      11.494  16.385  16.702  0.00  0.00    +0.000 C 
ENDBRANCH  17  30
TORSDOF 4
ENDMDL
MODEL 5
REMARK VINA RESULT:      -5.5      2.437      5.932
REMARK  Name = 
REMARK  9 active torsions:
REMARK  status: ('A' for Active; 'I' for Inactive)
REMARK    1  A    between atoms: C_1  and  O_2
REMARK    2  A    between atoms: O_2  and  C_3
REMARK    3  A    between atoms: C_8  and  O_9
REMARK    4  A    between atoms: O_9  and  C_10
REMARK    5  A    between atoms: C_21  and  O_22
REMARK    6  A    between atoms: O_22  and  C_23
REMARK    7  A    between atoms: C_28  and  N_29
REMARK    8  A    between atoms: N_29  and  C_30
REMARK    9  A    between atoms: N_29  and  C_31
REMARK                            x       y       z     vdW  Elec       q    Type
REMARK                         _______ _______ _______ _____ _____    ______ ____
ROOT
ATOM      1  C   UNL     1      -1.480  12.119  21.031  0.00  0.00    +0.000 A 
ATOM      2  C   UNL     1      -0.897  11.943  22.297  0.00  0.00    +0.000 A 
ATOM      3  C   UNL     1      -1.590  12.384  23.442  0.00  0.00    +0.000 A 
ATOM      4  C   UNL     1      -2.897  12.809  23.281  0.00  0.00    +0.000 A 
ATOM      5  C   UNL     1      -3.558  12.470  22.125  0.00  0.00    +0.000 A 
ATOM      6  C   UNL     1      -2.832  12.467  20.953  0.00  0.00    +0.000 A 
ATOM      7  C   UNL     1      -4.960  12.799  22.324  0.00  0.00    +0.000 C 
ATOM      8  O   UNL     1      -5.892  12.224  21.797  0.00  0.00    +0.000 OA
ATOM      9  N   UNL     1      -4.944  13.907  23.186  0.00  0.00    +0.000 N 
ATOM     10  C   UNL     1      -3.767  13.802  23.974  0.00  0.00    +0.000 C 
ATOM     11  C   UNL     1      -3.355  14.878  24.681  0.00  0.00    +0.000 C 
ATOM     12  C   UNL     1      -2.362  15.694  23.940  0.00  0.00    +0.000 A 
ATOM     13  C   UNL     1      -2.841  16.295  22.736  0.00  0.00    +0.000 A 
ATOM     14  C   UNL     1      -1.928  16.820  21.830  0.00  0.00    +0.000 A 
ATOM     15  C   UNL     1      -0.583  16.720  22.142  0.00  0.00    +0.000 A 
ATOM     16  C   UNL     1      -0.131  16.214  23.357  0.00  0.00    +0.000 A 
ATOM     17  C   UNL     1      -1.008  15.748  24.309  0.00  0.00    +0.000 A 
ATOM     18  O   UNL     1       1.231  16.215  23.403  0.00  0.00    +0.000 OA
ATOM     19  C   UNL     1       1.555  16.514  22.031  0.00  0.00    +0.000 C 
ATOM     20  O   UNL     1       0.436  17.058  21.308  0.00  0.00    +0.000 OA
ATOM     21  C   UNL     1      -4.341  16.414  22.503  0.00  0.00    +0.000 C 
ATOM     22  C   UNL     1      -5.182  15.108  22.332  0.00  0.00    +0.000 C 
ENDROOT
BRANCH  22  23
ATOM     23  N   UNL     1      -6.639  15.306  22.237  0.00  0.00    +0.000 NA
ATOM     24  C   UNL     1      -7.309  15.512  23.508  0.00  0.00    +0.000 C 
ATOM     25  C   UNL     1      -7.009  16.308  21.245  0.00  0.00    +0.000 C 
ENDBRANCH  22  23
BRANCH   1  27
ATOM     26  C   UNL     1      -0.266  10.859  19.408  0.00  0.00    +0.000 C 
ATOM     27  O   UNL     1      -0.818  12.088  19.836  0.00  0.00    +0.000 OA
ENDBRANCH   1  27
BRANCH   6  28
ATOM     28  O   UNL     1      -3.413  12.987  19.822  0.00  0.00    +0.000 OA
ATOM     29  C   UNL     1      -3.967  11.974  18.963  0.00  0.00    +0.000 C 
ENDBRANCH   6  28
BRANCH  17  30
ATOM     30  O   UNL     1      -0.688  15.285  25.554  0.00  0.00    +0.000 OA
ATOM     31  C   UNL     1      -0.534  16.261  26.580  0.00  0.00    +0.000 C 
ENDBRANCH  17  30
TORSDOF 4
ENDMDL
MODEL 6
REMARK VINA RESULT:      -5.4      2.123      4.899
REMARK  Name = 
REMARK  9 active torsions:
REMARK  status: ('A' for Active; 'I' for Inactive)
REMARK    1  A    between atoms: C_1  and  O_2
REMARK    2  A    between atoms: O_2  and  C_3
REMARK    3  A    between atoms: C_8  and  O_9
REMARK    4  A    between atoms: O_9  and  C_10
REMARK    5  A    between atoms: C_21  and  O_22
REMARK    6  A    between atoms: O_22  and  C_23
REMARK    7  A    between atoms: C_28  and  N_29
REMARK    8  A    between atoms: N_29  and  C_30
REMARK    9  A    between atoms: N_29  and  C_31
REMARK                            x       y       z     vdW  Elec       q    Type
REMARK                         _______ _______ _______ _____ _____    ______ ____
ROOT
ATOM      1  C   UNL     1      -3.146  13.517  22.146  0.00  0.00    +0.000 A 
ATOM      2  C   UNL     1      -2.634  12.276  22.560  0.00  0.00    +0.000 A 
ATOM      3  C   UNL     1      -1.241  12.062  22.539  0.00  0.00    +0.000 A 
ATOM      4  C   UNL     1      -0.426  13.150  22.280  0.00  0.00    +0.000 A 
ATOM      5  C   UNL     1      -0.960  14.411  22.397  0.00  0.00    +0.000 A 
ATOM      6  C   UNL     1      -2.264  14.591  21.989  0.00  0.00    +0.000 A 
ATOM      7  C   UNL     1       0.149  15.349  22.338  0.00  0.00    +0.000 C 
ATOM      8  O   UNL     1       0.172  16.435  22.883  0.00  0.00    +0.000 OA
ATOM      9  N   UNL     1       1.092  14.730  21.503  0.00  0.00    +0.000 N 
ATOM     10  C   UNL     1       0.908  13.328  21.639  0.00  0.00    +0.000 C 
ATOM     11  C   UNL     1       1.485  12.502  20.737  0.00  0.00    +0.000 C 
ATOM     12  C   UNL     1       0.569  12.157  19.621  0.00  0.00    +0.000 A 
ATOM     13  C   UNL     1       0.163  13.256  18.802  0.00  0.00    +0.000 A 
ATOM     14  C   UNL     1      -0.907  13.094  17.932  0.00  0.00    +0.000 A 
ATOM     15  C   UNL     1      -1.541  11.863  17.915  0.00  0.00    +0.000 A 
ATOM     16  C   UNL     1      -1.082  10.774  18.650  0.00  0.00    +0.000 A 
ATOM     17  C   UNL     1       0.017  10.875  19.470  0.00  0.00    +0.000 A 
ATOM     18  O   UNL     1      -1.891   9.693  18.464  0.00  0.00    +0.000 OA
ATOM     19  C   UNL     1      -3.004  10.293  17.774  0.00  0.00    +0.000 C 
ATOM     20  O   UNL     1      -2.680  11.585  17.228  0.00  0.00    +0.000 OA
ATOM     21  C   UNL     1       0.956  14.555  18.845  0.00  0.00    +0.000 C 
ATOM     22  C   UNL     1       0.969  15.386  20.168  0.00  0.00    +0.000 C 
ENDROOT
BRANCH  22  23
ATOM     23  N   UNL     1       1.858  16.561  20.166  0.00  0.00    +0.000 NA
ATOM     24  C   UNL     1       3.245  16.273  19.848  0.00  0.00    +0.000 C 
ATOM     25  C   UNL     1       1.327  17.668  19.380  0.00  0.00    +0.000 C 
ENDBRANCH  22  23
BRANCH   1  27
ATOM     26  C   UNL     1      -5.246  12.665  21.400  0.00  0.00    +0.000 C 
ATOM     27  O   UNL     1      -4.435  13.764  21.767  0.00  0.00    +0.000 OA
ENDBRANCH   1  27
BRANCH   6  28
ATOM     28  O   UNL     1      -2.578  15.726  21.281  0.00  0.00    +0.000 OA
ATOM     29  C   UNL     1      -3.191  16.741  22.097  0.00  0.00    +0.000 C 
ENDBRANCH   6  28
BRANCH  17  30
ATOM     30  O   UNL     1       0.592   9.867  20.191  0.00  0.00    +0.000 OA
ATOM     31  C   UNL     1       1.416   8.955  19.472  0.00  0.00    +0.000 C 
ENDBRANCH  17  30
TORSDOF 4
ENDMDL
MODEL 7
REMARK VINA RESULT:      -5.4      2.217      6.305
REMARK  Name = 
REMARK  9 active torsions:
REMARK  status: ('A' for Active; 'I' for Inactive)
REMARK    1  A    between atoms: C_1  and  O_2
REMARK    2  A    between atoms: O_2  and  C_3
REMARK    3  A    between atoms: C_8  and  O_9
REMARK    4  A    between atoms: O_9  and  C_10
REMARK    5  A    between atoms: C_21  and  O_22
REMARK    6  A    between atoms: O_22  and  C_23
REMARK    7  A    between atoms: C_28  and  N_29
REMARK    8  A    between atoms: N_29  and  C_30
REMARK    9  A    between atoms: N_29  and  C_31
REMARK                            x       y       z     vdW  Elec       q    Type
REMARK                         _______ _______ _______ _____ _____    ______ ____
ROOT
ATOM      1  C   UNL     1      -2.997  12.177  22.648  0.00  0.00    +0.000 A 
ATOM      2  C   UNL     1      -3.844  12.898  21.790  0.00  0.00    +0.000 A 
ATOM      3  C   UNL     1      -3.287  13.607  20.706  0.00  0.00    +0.000 A 
ATOM      4  C   UNL     1      -1.945  13.411  20.430  0.00  0.00    +0.000 A 
ATOM      5  C   UNL     1      -1.317  12.317  20.976  0.00  0.00    +0.000 A 
ATOM      6  C   UNL     1      -1.675  11.950  22.255  0.00  0.00    +0.000 A 
ATOM      7  C   UNL     1      -0.021  12.204  20.327  0.00  0.00    +0.000 C 
ATOM      8  O   UNL     1       0.581  11.162  20.151  0.00  0.00    +0.000 OA
ATOM      9  N   UNL     1       0.342  13.526  20.026  0.00  0.00    +0.000 N 
ATOM     10  C   UNL     1      -0.864  14.255  19.845  0.00  0.00    +0.000 C 
ATOM     11  C   UNL     1      -0.815  15.606  19.831  0.00  0.00    +0.000 C 
ATOM     12  C   UNL     1      -1.076  16.194  21.168  0.00  0.00    +0.000 A 
ATOM     13  C   UNL     1      -0.114  15.872  22.175  0.00  0.00    +0.000 A 
ATOM     14  C   UNL     1      -0.417  16.120  23.507  0.00  0.00    +0.000 A 
ATOM     15  C   UNL     1      -1.660  16.661  23.793  0.00  0.00    +0.000 A 
ATOM     16  C   UNL     1      -2.553  17.053  22.801  0.00  0.00    +0.000 A 
ATOM     17  C   UNL     1      -2.259  16.889  21.467  0.00  0.00    +0.000 A 
ATOM     18  O   UNL     1      -3.701  17.540  23.351  0.00  0.00    +0.000 OA
ATOM     19  C   UNL     1      -3.527  17.167  24.731  0.00  0.00    +0.000 C 
ATOM     20  O   UNL     1      -2.163  16.835  25.044  0.00  0.00    +0.000 OA
ATOM     21  C   UNL     1       1.250  15.335  21.763  0.00  0.00    +0.000 C 
ATOM     22  C   UNL     1       1.330  13.939  21.065  0.00  0.00    +0.000 C 
ENDROOT
BRANCH  22  23
ATOM     23  N   UNL     1       2.668  13.549  20.588  0.00  0.00    +0.000 NA
ATOM     24  C   UNL     1       2.911  13.811  19.181  0.00  0.00    +0.000 C 
ATOM     25  C   UNL     1       3.739  14.051  21.440  0.00  0.00    +0.000 C 
ENDBRANCH  22  23
BRANCH   1  27
ATOM     26  C   UNL     1      -4.294  12.468  24.629  0.00  0.00    +0.000 C 
ATOM     27  O   UNL     1      -3.311  11.753  23.908  0.00  0.00    +0.000 OA
ENDBRANCH   1  27
BRANCH   6  28
ATOM     28  O   UNL     1      -0.685  11.569  23.128  0.00  0.00    +0.000 OA
ATOM     29  C   UNL     1      -0.548  10.139  23.227  0.00  0.00    +0.000 C 
ENDBRANCH   6  28
BRANCH  17  30
ATOM     30  O   UNL     1      -3.026  17.285  20.408  0.00  0.00    +0.000 OA
ATOM     31  C   UNL     1      -2.829  18.615  19.937  0.00  0.00    +0.000 C 
ENDBRANCH  17  30
TORSDOF 4
ENDMDL
MODEL 8
REMARK VINA RESULT:      -5.3      2.482      5.746
REMARK  Name = 
REMARK  9 active torsions:
REMARK  status: ('A' for Active; 'I' for Inactive)
REMARK    1  A    between atoms: C_1  and  O_2
REMARK    2  A    between atoms: O_2  and  C_3
REMARK    3  A    between atoms: C_8  and  O_9
REMARK    4  A    between atoms: O_9  and  C_10
REMARK    5  A    between atoms: C_21  and  O_22
REMARK    6  A    between atoms: O_22  and  C_23
REMARK    7  A    between atoms: C_28  and  N_29
REMARK    8  A    between atoms: N_29  and  C_30
REMARK    9  A    between atoms: N_29  and  C_31
REMARK                            x       y       z     vdW  Elec       q    Type
REMARK                         _______ _______ _______ _____ _____    ______ ____
ROOT
ATOM      1  C   UNL     1      -2.020  12.136  19.841  0.00  0.00    +0.000 A 
ATOM      2  C   UNL     1      -0.766  11.944  20.443  0.00  0.00    +0.000 A 
ATOM      3  C   UNL     1      -0.539  12.445  21.741  0.00  0.00    +0.000 A 
ATOM      4  C   UNL     1      -1.625  12.947  22.437  0.00  0.00    +0.000 A 
ATOM      5  C   UNL     1      -2.888  12.631  21.996  0.00  0.00    +0.000 A 
ATOM      6  C   UNL     1      -3.089  12.565  20.634  0.00  0.00    +0.000 A 
ATOM      7  C   UNL     1      -3.817  13.049  23.033  0.00  0.00    +0.000 C 
ATOM      8  O   UNL     1      -4.890  12.525  23.259  0.00  0.00    +0.000 OA
ATOM      9  N   UNL     1      -3.208  14.168  23.624  0.00  0.00    +0.000 N 
ATOM     10  C   UNL     1      -1.805  14.002  23.474  0.00  0.00    +0.000 C 
ATOM     11  C   UNL     1      -0.995  15.062  23.694  0.00  0.00    +0.000 C 
ATOM     12  C   UNL     1      -0.684  15.803  22.447  0.00  0.00    +0.000 A 
ATOM     13  C   UNL     1      -1.804  16.414  21.804  0.00  0.00    +0.000 A 
ATOM     14  C   UNL     1      -1.673  16.868  20.498  0.00  0.00    +0.000 A 
ATOM     15  C   UNL     1      -0.448  16.690  19.876  0.00  0.00    +0.000 A 
ATOM     16  C   UNL     1       0.661  16.176  20.540  0.00  0.00    +0.000 A 
ATOM     17  C   UNL     1       0.589  15.780  21.855  0.00  0.00    +0.000 A 
ATOM     18  O   UNL     1       1.731  16.093  19.699  0.00  0.00    +0.000 OA
ATOM     19  C   UNL     1       1.104  16.351  18.427  0.00  0.00    +0.000 C 
ATOM     20  O   UNL     1      -0.196  16.951  18.566  0.00  0.00    +0.000 OA
ATOM     21  C   UNL     1      -3.095  16.622  22.584  0.00  0.00    +0.000 C 
ATOM     22  C   UNL     1      -3.896  15.367  23.063  0.00  0.00    +0.000 C 
ENDROOT
BRANCH  22  23
ATOM     23  N   UNL     1      -5.062  15.653  23.917  0.00  0.00    +0.000 NA
ATOM     24  C   UNL     1      -4.872  16.739  24.861  0.00  0.00    +0.000 C 
ATOM     25  C   UNL     1      -6.299  15.787  23.156  0.00  0.00    +0.000 C 
ENDBRANCH  22  23
BRANCH   1  27
ATOM     26  C   UNL     1      -2.241  10.770  17.897  0.00  0.00    +0.000 C 
ATOM     27  O   UNL     1      -2.287  12.046  18.504  0.00  0.00    +0.000 OA
ENDBRANCH   1  27
BRANCH   6  28
ATOM     28  O   UNL     1      -4.243  13.103  20.116  0.00  0.00    +0.000 OA
ATOM     29  C   UNL     1      -5.244  12.107  19.831  0.00  0.00    +0.000 C 
ENDBRANCH   6  28
BRANCH  17  30
ATOM     30  O   UNL     1       1.619  15.317  22.625  0.00  0.00    +0.000 OA
ATOM     31  C   UNL     1       2.660  16.242  22.924  0.00  0.00    +0.000 C 
ENDBRANCH  17  30
TORSDOF 4
ENDMDL
MODEL 9
REMARK VINA RESULT:      -5.3      5.954      9.487
REMARK  Name = 
REMARK  9 active torsions:
REMARK  status: ('A' for Active; 'I' for Inactive)
REMARK    1  A    between atoms: C_1  and  O_2
REMARK    2  A    between atoms: O_2  and  C_3
REMARK    3  A    between atoms: C_8  and  O_9
REMARK    4  A    between atoms: O_9  and  C_10
REMARK    5  A    between atoms: C_21  and  O_22
REMARK    6  A    between atoms: O_22  and  C_23
REMARK    7  A    between atoms: C_28  and  N_29
REMARK    8  A    between atoms: N_29  and  C_30
REMARK    9  A    between atoms: N_29  and  C_31
REMARK                            x       y       z     vdW  Elec       q    Type
REMARK                         _______ _______ _______ _____ _____    ______ ____
ROOT
ATOM      1  C   UNL     1       8.464  14.569  22.794  0.00  0.00    +0.000 A 
ATOM      2  C   UNL     1       9.501  15.472  22.505  0.00  0.00    +0.000 A 
ATOM      3  C   UNL     1       9.402  16.295  21.365  0.00  0.00    +0.000 A 
ATOM      4  C   UNL     1       8.200  16.305  20.680  0.00  0.00    +0.000 A 
ATOM      5  C   UNL     1       7.084  15.804  21.308  0.00  0.00    +0.000 A 
ATOM      6  C   UNL     1       7.249  14.700  22.115  0.00  0.00    +0.000 A 
ATOM      7  C   UNL     1       5.937  16.172  20.493  0.00  0.00    +0.000 C 
ATOM      8  O   UNL     1       4.816  16.367  20.918  0.00  0.00    +0.000 OA
ATOM      9  N   UNL     1       6.429  16.190  19.178  0.00  0.00    +0.000 N 
ATOM     10  C   UNL     1       7.810  16.515  19.256  0.00  0.00    +0.000 C 
ATOM     11  C   UNL     1       8.590  16.319  18.170  0.00  0.00    +0.000 C 
ATOM     12  C   UNL     1       9.262  14.996  18.189  0.00  0.00    +0.000 A 
ATOM     13  C   UNL     1       8.389  13.866  18.136  0.00  0.00    +0.000 A 
ATOM     14  C   UNL     1       8.888  12.608  18.444  0.00  0.00    +0.000 A 
ATOM     15  C   UNL     1      10.222  12.517  18.805  0.00  0.00    +0.000 A 
ATOM     16  C   UNL     1      11.085  13.608  18.767  0.00  0.00    +0.000 A 
ATOM     17  C   UNL     1      10.644  14.858  18.399  0.00  0.00    +0.000 A 
ATOM     18  O   UNL     1      12.333  13.250  19.182  0.00  0.00    +0.000 OA
ATOM     19  C   UNL     1      12.083  11.934  19.713  0.00  0.00    +0.000 C 
ATOM     20  O   UNL     1      10.828  11.390  19.266  0.00  0.00    +0.000 OA
ATOM     21  C   UNL     1       6.951  14.052  17.671  0.00  0.00    +0.000 C 
ATOM     22  C   UNL     1       5.983  14.915  18.544  0.00  0.00    +0.000 C 
ENDROOT
BRANCH  22  23
ATOM     23  N   UNL     1       4.650  15.148  17.963  0.00  0.00    +0.000 NA
ATOM     24  C   UNL     1       3.585  14.351  18.545  0.00  0.00    +0.000 C 
ATOM     25  C   UNL     1       4.307  16.563  17.887  0.00  0.00    +0.000 C 
ENDBRANCH  22  23
BRANCH   1  27
ATOM     26  C   UNL     1       8.533  13.693  25.012  0.00  0.00    +0.000 C 
ATOM     27  O   UNL     1       8.558  13.481  23.615  0.00  0.00    +0.000 OA
ENDBRANCH   1  27
BRANCH   6  28
ATOM     28  O   UNL     1       6.306  13.701  22.059  0.00  0.00    +0.000 OA
ATOM     29  C   UNL     1       5.344  13.782  23.127  0.00  0.00    +0.000 C 
ENDBRANCH   6  28
BRANCH  17  30
ATOM     30  O   UNL     1      11.404  15.985  18.269  0.00  0.00    +0.000 OA
ATOM     31  C   UNL     1      12.332  16.010  17.190  0.00  0.00    +0.000 C 
ENDBRANCH  17  30
TORSDOF 4
ENDMDL
