MODEL 1
REMARK VINA RESULT:      -7.1      0.000      0.000
REMARK  Name = 
REMARK  6 active torsions:
REMARK  status: ('A' for Active; 'I' for Inactive)
REMARK    1  A    between atoms: O_1  and  C_2
REMARK    2  A    between atoms: C_2  and  C_3
REMARK    3  A    between atoms: C_3  and  C_4
REMARK    4  A    between atoms: C_4  and  C_5
REMARK    5  A    between atoms: C_10  and  C_11
REMARK    6  A    between atoms: C_21  and  N_22
REMARK                            x       y       z     vdW  Elec       q    Type
REMARK                         _______ _______ _______ _____ _____    ______ ____
ROOT
ATOM      1  C   UNL     1       3.403   5.812  19.696  0.00  0.00    +0.000 C 
ATOM      2  C   UNL     1       2.196   6.767  19.786  0.00  0.00    +0.000 C 
ATOM      3  N   UNL     1       2.434   7.973  18.999  0.00  0.00    +0.000 N 
ATOM      4  C   UNL     1       1.681   9.059  19.321  0.00  0.00    +0.000 A 
ATOM      5  N   UNL     1       0.791   9.211  20.275  0.00  0.00    +0.000 NA
ATOM      6  C   UNL     1       0.356  10.512  20.095  0.00  0.00    +0.000 A 
ATOM      7  N   UNL     1       0.974  11.153  19.092  0.00  0.00    +0.000 NA
ATOM      8  O   UNL     1       1.846  10.200  18.582  0.00  0.00    +0.000 OA
ATOM      9  C   UNL     1       2.741   7.763  17.583  0.00  0.00    +0.000 C 
ATOM     10  C   UNL     1       3.863   6.740  17.402  0.00  0.00    +0.000 C 
ATOM     11  C   UNL     1       3.723   5.427  18.223  0.00  0.00    +0.000 C 
ENDROOT
BRANCH   6  12
ATOM     12  C   UNL     1      -0.714  11.115  20.892  0.00  0.00    +0.000 A 
ATOM     13  C   UNL     1      -1.679  11.943  20.300  0.00  0.00    +0.000 A 
ATOM     14  C   UNL     1      -2.665  12.558  21.080  0.00  0.00    +0.000 A 
ATOM     15  C   UNL     1      -2.703  12.347  22.458  0.00  0.00    +0.000 A 
ATOM     16  C   UNL     1      -1.762  11.516  23.059  0.00  0.00    +0.000 A 
ATOM     17  C   UNL     1      -0.776  10.902  22.280  0.00  0.00    +0.000 A 
ENDBRANCH   6  12
BRANCH  11  18
ATOM     18  N   UNL     1       2.930   4.442  17.481  0.00  0.00    +0.000 NA
ATOM     19  C   UNL     1       1.476   4.392  17.504  0.00  0.00    +0.000 C 
ATOM     20  C   UNL     1       0.922   3.271  18.390  0.00  0.00    +0.000 C 
ATOM     21  O   UNL     1       1.427   1.998  17.976  0.00  0.00    +0.000 OA
ATOM     22  C   UNL     1       2.859   1.970  18.027  0.00  0.00    +0.000 C 
ATOM     23  C   UNL     1       3.509   3.117  17.227  0.00  0.00    +0.000 C 
ENDBRANCH  11  18
BRANCH   1  24
ATOM     24  C   UNL     1       3.234   4.684  20.731  0.00  0.00    +0.000 C 
BRANCH  24  25
ATOM     25  C   UNL     1       1.826   4.425  21.265  0.00  0.00    +0.000 C 
BRANCH  25  26
ATOM     26  C   UNL     1       1.708   2.973  21.737  0.00  0.00    +0.000 C 
BRANCH  26  27
ATOM     27  O   UNL     1       3.001   2.425  21.934  0.00  0.00    +0.000 OA
ATOM     28  H   UNL     1       3.535   2.673  21.158  0.00  0.00    +0.000 HD
ENDBRANCH  26  27
ENDBRANCH  25  26
ENDBRANCH  24  25
ENDBRANCH   1  24
TORSDOF 6
ENDMDL
MODEL 2
REMARK VINA RESULT:      -7.0      1.667      2.164
REMARK  Name = 
REMARK  6 active torsions:
REMARK  status: ('A' for Active; 'I' for Inactive)
REMARK    1  A    between atoms: O_1  and  C_2
REMARK    2  A    between atoms: C_2  and  C_3
REMARK    3  A    between atoms: C_3  and  C_4
REMARK    4  A    between atoms: C_4  and  C_5
REMARK    5  A    between atoms: C_10  and  C_11
REMARK    6  A    between atoms: C_21  and  N_22
REMARK                            x       y       z     vdW  Elec       q    Type
REMARK                         _______ _______ _______ _____ _____    ______ ____
ROOT
ATOM      1  C   UNL     1       3.565   5.477  19.860  0.00  0.00    +0.000 C 
ATOM      2  C   UNL     1       2.446   6.327  19.226  0.00  0.00    +0.000 C 
ATOM      3  N   UNL     1       3.010   7.462  18.499  0.00  0.00    +0.000 N 
ATOM      4  C   UNL     1       2.169   8.505  18.268  0.00  0.00    +0.000 A 
ATOM      5  N   UNL     1       0.921   8.678  18.643  0.00  0.00    +0.000 NA
ATOM      6  C   UNL     1       0.599   9.910  18.103  0.00  0.00    +0.000 A 
ATOM      7  N   UNL     1       1.614  10.494  17.449  0.00  0.00    +0.000 NA
ATOM      8  O   UNL     1       2.647   9.573  17.556  0.00  0.00    +0.000 OA
ATOM      9  C   UNL     1       3.978   7.133  17.452  0.00  0.00    +0.000 C 
ATOM     10  C   UNL     1       5.069   6.198  17.974  0.00  0.00    +0.000 C 
ATOM     11  C   UNL     1       4.577   4.970  18.792  0.00  0.00    +0.000 C 
ENDROOT
BRANCH   6  12
ATOM     12  C   UNL     1      -0.740  10.496  18.194  0.00  0.00    +0.000 A 
ATOM     13  C   UNL     1      -1.020  11.518  19.114  0.00  0.00    +0.000 A 
ATOM     14  C   UNL     1      -2.316  12.034  19.232  0.00  0.00    +0.000 A 
ATOM     15  C   UNL     1      -3.344  11.541  18.428  0.00  0.00    +0.000 A 
ATOM     16  C   UNL     1      -3.078  10.538  17.501  0.00  0.00    +0.000 A 
ATOM     17  C   UNL     1      -1.785  10.021  17.383  0.00  0.00    +0.000 A 
ENDBRANCH   6  12
BRANCH  11  18
ATOM     18  N   UNL     1       4.275   3.848  17.898  0.00  0.00    +0.000 NA
ATOM     19  C   UNL     1       3.157   3.834  16.967  0.00  0.00    +0.000 C 
ATOM     20  C   UNL     1       1.980   2.979  17.447  0.00  0.00    +0.000 C 
ATOM     21  O   UNL     1       2.396   1.633  17.698  0.00  0.00    +0.000 OA
ATOM     22  C   UNL     1       3.436   1.591  18.682  0.00  0.00    +0.000 C 
ATOM     23  C   UNL     1       4.636   2.490  18.324  0.00  0.00    +0.000 C 
ENDBRANCH  11  18
BRANCH   1  24
ATOM     24  C   UNL     1       2.939   4.453  20.824  0.00  0.00    +0.000 C 
BRANCH  24  25
ATOM     25  C   UNL     1       1.443   4.178  20.682  0.00  0.00    +0.000 C 
BRANCH  25  26
ATOM     26  C   UNL     1       1.114   2.789  21.238  0.00  0.00    +0.000 C 
BRANCH  26  27
ATOM     27  O   UNL     1       2.212   2.303  21.994  0.00  0.00    +0.000 OA
ATOM     28  H   UNL     1       1.967   1.414  22.309  0.00  0.00    +0.000 HD
ENDBRANCH  26  27
ENDBRANCH  25  26
ENDBRANCH  24  25
ENDBRANCH   1  24
TORSDOF 6
ENDMDL
MODEL 3
REMARK VINA RESULT:      -6.9      3.395      5.242
REMARK  Name = 
REMARK  6 active torsions:
REMARK  status: ('A' for Active; 'I' for Inactive)
REMARK    1  A    between atoms: O_1  and  C_2
REMARK    2  A    between atoms: C_2  and  C_3
REMARK    3  A    between atoms: C_3  and  C_4
REMARK    4  A    between atoms: C_4  and  C_5
REMARK    5  A    between atoms: C_10  and  C_11
REMARK    6  A    between atoms: C_21  and  N_22
REMARK                            x       y       z     vdW  Elec       q    Type
REMARK                         _______ _______ _______ _____ _____    ______ ____
ROOT
ATOM      1  C   UNL     1       4.656   5.296  16.472  0.00  0.00    +0.000 C 
ATOM      2  C   UNL     1       4.130   6.624  17.051  0.00  0.00    +0.000 C 
ATOM      3  N   UNL     1       3.504   6.407  18.352  0.00  0.00    +0.000 N 
ATOM      4  C   UNL     1       2.637   7.368  18.770  0.00  0.00    +0.000 A 
ATOM      5  N   UNL     1       2.230   8.456  18.157  0.00  0.00    +0.000 NA
ATOM      6  C   UNL     1       1.374   9.033  19.078  0.00  0.00    +0.000 A 
ATOM      7  N   UNL     1       1.228   8.317  20.202  0.00  0.00    +0.000 NA
ATOM      8  O   UNL     1       2.057   7.221  20.002  0.00  0.00    +0.000 OA
ATOM      9  C   UNL     1       4.344   5.771  19.368  0.00  0.00    +0.000 C 
ATOM     10  C   UNL     1       4.996   4.495  18.834  0.00  0.00    +0.000 C 
ATOM     11  C   UNL     1       5.666   4.609  17.435  0.00  0.00    +0.000 C 
ENDROOT
BRANCH   6  12
ATOM     12  C   UNL     1       0.727  10.330  18.864  0.00  0.00    +0.000 A 
ATOM     13  C   UNL     1      -0.658  10.423  18.666  0.00  0.00    +0.000 A 
ATOM     14  C   UNL     1      -1.259  11.661  18.408  0.00  0.00    +0.000 A 
ATOM     15  C   UNL     1      -0.484  12.819  18.351  0.00  0.00    +0.000 A 
ATOM     16  C   UNL     1       0.890  12.745  18.560  0.00  0.00    +0.000 A 
ATOM     17  C   UNL     1       1.491  11.509  18.817  0.00  0.00    +0.000 A 
ENDBRANCH   6  12
BRANCH  11  18
ATOM     18  N   UNL     1       7.054   5.063  17.569  0.00  0.00    +0.000 NA
ATOM     19  C   UNL     1       7.898   4.756  18.714  0.00  0.00    +0.000 C 
ATOM     20  C   UNL     1       8.058   5.933  19.682  0.00  0.00    +0.000 C 
ATOM     21  O   UNL     1       8.584   7.080  19.006  0.00  0.00    +0.000 OA
ATOM     22  C   UNL     1       7.732   7.476  17.924  0.00  0.00    +0.000 C 
ATOM     23  C   UNL     1       7.446   6.328  16.936  0.00  0.00    +0.000 C 
ENDBRANCH  11  18
BRANCH   1  24
ATOM     24  C   UNL     1       5.070   5.512  15.004  0.00  0.00    +0.000 C 
BRANCH  24  25
ATOM     25  C   UNL     1       5.374   4.268  14.170  0.00  0.00    +0.000 C 
BRANCH  25  26
ATOM     26  C   UNL     1       6.884   4.147  13.948  0.00  0.00    +0.000 C 
BRANCH  26  27
ATOM     27  O   UNL     1       7.424   5.416  13.613  0.00  0.00    +0.000 OA
ATOM     28  H   UNL     1       8.192   5.253  13.037  0.00  0.00    +0.000 HD
ENDBRANCH  26  27
ENDBRANCH  25  26
ENDBRANCH  24  25
ENDBRANCH   1  24
TORSDOF 6
ENDMDL
MODEL 4
REMARK VINA RESULT:      -6.8      1.037      1.295
REMARK  Name = 
REMARK  6 active torsions:
REMARK  status: ('A' for Active; 'I' for Inactive)
REMARK    1  A    between atoms: O_1  and  C_2
REMARK    2  A    between atoms: C_2  and  C_3
REMARK    3  A    between atoms: C_3  and  C_4
REMARK    4  A    between atoms: C_4  and  C_5
REMARK    5  A    between atoms: C_10  and  C_11
REMARK    6  A    between atoms: C_21  and  N_22
REMARK                            x       y       z     vdW  Elec       q    Type
REMARK                         _______ _______ _______ _____ _____    ______ ____
ROOT
ATOM      1  C   UNL     1       3.446   5.740  19.807  0.00  0.00    +0.000 C 
ATOM      2  C   UNL     1       2.269   6.665  19.437  0.00  0.00    +0.000 C 
ATOM      3  N   UNL     1       2.728   7.777  18.610  0.00  0.00    +0.000 N 
ATOM      4  C   UNL     1       1.921   8.872  18.574  0.00  0.00    +0.000 A 
ATOM      5  N   UNL     1       0.799   9.110  19.213  0.00  0.00    +0.000 NA
ATOM      6  C   UNL     1       0.442  10.368  18.762  0.00  0.00    +0.000 A 
ATOM      7  N   UNL     1       1.322  10.903  17.905  0.00  0.00    +0.000 NA
ATOM      8  O   UNL     1       2.297   9.922  17.779  0.00  0.00    +0.000 OA
ATOM      9  C   UNL     1       3.422   7.411  17.375  0.00  0.00    +0.000 C 
ATOM     10  C   UNL     1       4.543   6.405  17.641  0.00  0.00    +0.000 C 
ATOM     11  C   UNL     1       4.168   5.194  18.542  0.00  0.00    +0.000 C 
ENDROOT
BRANCH   6  12
ATOM     12  C   UNL     1      -0.807  11.029  19.147  0.00  0.00    +0.000 A 
ATOM     13  C   UNL     1      -1.947  10.953  18.333  0.00  0.00    +0.000 A 
ATOM     14  C   UNL     1      -3.118  11.635  18.683  0.00  0.00    +0.000 A 
ATOM     15  C   UNL     1      -3.167  12.393  19.853  0.00  0.00    +0.000 A 
ATOM     16  C   UNL     1      -2.049  12.466  20.679  0.00  0.00    +0.000 A 
ATOM     17  C   UNL     1      -0.878  11.787  20.329  0.00  0.00    +0.000 A 
ENDBRANCH   6  12
BRANCH  11  18
ATOM     18  N   UNL     1       3.611   4.107  17.730  0.00  0.00    +0.000 NA
ATOM     19  C   UNL     1       2.232   4.069  17.267  0.00  0.00    +0.000 C 
ATOM     20  C   UNL     1       1.349   3.108  18.069  0.00  0.00    +0.000 C 
ATOM     21  O   UNL     1       1.887   1.782  18.045  0.00  0.00    +0.000 OA
ATOM     22  C   UNL     1       3.216   1.755  18.582  0.00  0.00    +0.000 C 
ATOM     23  C   UNL     1       4.162   2.755  17.888  0.00  0.00    +0.000 C 
ENDBRANCH  11  18
BRANCH   1  24
ATOM     24  C   UNL     1       2.984   4.737  20.880  0.00  0.00    +0.000 C 
BRANCH  24  25
ATOM     25  C   UNL     1       1.512   4.328  20.873  0.00  0.00    +0.000 C 
BRANCH  25  26
ATOM     26  C   UNL     1       1.337   3.002  21.619  0.00  0.00    +0.000 C 
BRANCH  26  27
ATOM     27  O   UNL     1       2.598   2.532  22.066  0.00  0.00    +0.000 OA
ATOM     28  H   UNL     1       2.700   2.828  22.988  0.00  0.00    +0.000 HD
ENDBRANCH  26  27
ENDBRANCH  25  26
ENDBRANCH  24  25
ENDBRANCH   1  24
TORSDOF 6
ENDMDL
MODEL 5
REMARK VINA RESULT:      -6.8      3.383      5.314
REMARK  Name = 
REMARK  6 active torsions:
REMARK  status: ('A' for Active; 'I' for Inactive)
REMARK    1  A    between atoms: O_1  and  C_2
REMARK    2  A    between atoms: C_2  and  C_3
REMARK    3  A    between atoms: C_3  and  C_4
REMARK    4  A    between atoms: C_4  and  C_5
REMARK    5  A    between atoms: C_10  and  C_11
REMARK    6  A    between atoms: C_21  and  N_22
REMARK                            x       y       z     vdW  Elec       q    Type
REMARK                         _______ _______ _______ _____ _____    ______ ____
ROOT
ATOM      1  C   UNL     1       4.629   5.224  16.490  0.00  0.00    +0.000 C 
ATOM      2  C   UNL     1       4.102   6.569  17.028  0.00  0.00    +0.000 C 
ATOM      3  N   UNL     1       3.490   6.394  18.342  0.00  0.00    +0.000 N 
ATOM      4  C   UNL     1       2.621   7.364  18.735  0.00  0.00    +0.000 A 
ATOM      5  N   UNL     1       2.202   8.429  18.089  0.00  0.00    +0.000 NA
ATOM      6  C   UNL     1       1.352   9.033  18.997  0.00  0.00    +0.000 A 
ATOM      7  N   UNL     1       1.222   8.355  20.147  0.00  0.00    +0.000 NA
ATOM      8  O   UNL     1       2.055   7.257  19.977  0.00  0.00    +0.000 OA
ATOM      9  C   UNL     1       4.343   5.798  19.371  0.00  0.00    +0.000 C 
ATOM     10  C   UNL     1       4.997   4.507  18.875  0.00  0.00    +0.000 C 
ATOM     11  C   UNL     1       5.652   4.576  17.466  0.00  0.00    +0.000 C 
ENDROOT
BRANCH   6  12
ATOM     12  C   UNL     1       0.697  10.318  18.745  0.00  0.00    +0.000 A 
ATOM     13  C   UNL     1       1.410  11.523  18.833  0.00  0.00    +0.000 A 
ATOM     14  C   UNL     1       0.762  12.749  18.644  0.00  0.00    +0.000 A 
ATOM     15  C   UNL     1      -0.603  12.786  18.357  0.00  0.00    +0.000 A 
ATOM     16  C   UNL     1      -1.321  11.598  18.252  0.00  0.00    +0.000 A 
ATOM     17  C   UNL     1      -0.674  10.373  18.442  0.00  0.00    +0.000 A 
ENDBRANCH   6  12
BRANCH  11  18
ATOM     18  N   UNL     1       7.039   5.042  17.571  0.00  0.00    +0.000 NA
ATOM     19  C   UNL     1       7.890   4.796  18.726  0.00  0.00    +0.000 C 
ATOM     20  C   UNL     1       8.049   6.021  19.632  0.00  0.00    +0.000 C 
ATOM     21  O   UNL     1       8.567   7.135  18.897  0.00  0.00    +0.000 OA
ATOM     22  C   UNL     1       7.709   7.472  17.800  0.00  0.00    +0.000 C 
ATOM     23  C   UNL     1       7.423   6.275  16.873  0.00  0.00    +0.000 C 
ENDBRANCH  11  18
BRANCH   1  24
ATOM     24  C   UNL     1       5.028   5.391  15.012  0.00  0.00    +0.000 C 
BRANCH  24  25
ATOM     25  C   UNL     1       5.404   4.129  14.238  0.00  0.00    +0.000 C 
BRANCH  25  26
ATOM     26  C   UNL     1       6.700   4.364  13.458  0.00  0.00    +0.000 C 
BRANCH  26  27
ATOM     27  O   UNL     1       6.700   3.578  12.277  0.00  0.00    +0.000 OA
ATOM     28  H   UNL     1       6.195   4.073  11.607  0.00  0.00    +0.000 HD
ENDBRANCH  26  27
ENDBRANCH  25  26
ENDBRANCH  24  25
ENDBRANCH   1  24
TORSDOF 6
ENDMDL
MODEL 6
REMARK VINA RESULT:      -6.8      2.706      8.755
REMARK  Name = 
REMARK  6 active torsions:
REMARK  status: ('A' for Active; 'I' for Inactive)
REMARK    1  A    between atoms: O_1  and  C_2
REMARK    2  A    between atoms: C_2  and  C_3
REMARK    3  A    between atoms: C_3  and  C_4
REMARK    4  A    between atoms: C_4  and  C_5
REMARK    5  A    between atoms: C_10  and  C_11
REMARK    6  A    between atoms: C_21  and  N_22
REMARK                            x       y       z     vdW  Elec       q    Type
REMARK                         _______ _______ _______ _____ _____    ______ ____
ROOT
ATOM      1  C   UNL     1       1.424  12.399  19.623  0.00  0.00    +0.000 C 
ATOM      2  C   UNL     1       1.373  10.939  19.132  0.00  0.00    +0.000 C 
ATOM      3  N   UNL     1       1.123  10.029  20.246  0.00  0.00    +0.000 N 
ATOM      4  C   UNL     1       1.476   8.729  20.052  0.00  0.00    +0.000 A 
ATOM      5  N   UNL     1       2.059   8.162  19.021  0.00  0.00    +0.000 NA
ATOM      6  C   UNL     1       2.142   6.834  19.398  0.00  0.00    +0.000 A 
ATOM      7  N   UNL     1       1.661   6.592  20.626  0.00  0.00    +0.000 NA
ATOM      8  O   UNL     1       1.223   7.836  21.059  0.00  0.00    +0.000 OA
ATOM      9  C   UNL     1      -0.089  10.288  21.024  0.00  0.00    +0.000 C 
ATOM     10  C   UNL     1      -0.170  11.751  21.460  0.00  0.00    +0.000 C 
ATOM     11  C   UNL     1       0.112  12.806  20.353  0.00  0.00    +0.000 C 
ENDROOT
BRANCH   6  12
ATOM     12  C   UNL     1       2.660   5.785  18.518  0.00  0.00    +0.000 A 
ATOM     13  C   UNL     1       1.951   4.591  18.321  0.00  0.00    +0.000 A 
ATOM     14  C   UNL     1       2.481   3.571  17.521  0.00  0.00    +0.000 A 
ATOM     15  C   UNL     1       3.720   3.736  16.903  0.00  0.00    +0.000 A 
ATOM     16  C   UNL     1       4.430   4.921  17.077  0.00  0.00    +0.000 A 
ATOM     17  C   UNL     1       3.901   5.939  17.877  0.00  0.00    +0.000 A 
ENDBRANCH   6  12
BRANCH  11  18
ATOM     18  N   UNL     1      -1.121  13.127  19.627  0.00  0.00    +0.000 NA
ATOM     19  C   UNL     1      -2.316  13.664  20.261  0.00  0.00    +0.000 C 
ATOM     20  C   UNL     1      -3.420  12.619  20.454  0.00  0.00    +0.000 C 
ATOM     21  O   UNL     1      -3.781  12.023  19.204  0.00  0.00    +0.000 OA
ATOM     22  C   UNL     1      -2.649  11.398  18.585  0.00  0.00    +0.000 C 
ATOM     23  C   UNL     1      -1.452  12.355  18.423  0.00  0.00    +0.000 C 
ENDBRANCH  11  18
BRANCH   1  24
ATOM     24  C   UNL     1       1.942  13.298  18.485  0.00  0.00    +0.000 C 
BRANCH  24  25
ATOM     25  C   UNL     1       2.576  14.632  18.876  0.00  0.00    +0.000 C 
BRANCH  25  26
ATOM     26  C   UNL     1       3.945  14.773  18.204  0.00  0.00    +0.000 C 
BRANCH  26  27
ATOM     27  O   UNL     1       3.792  15.365  16.924  0.00  0.00    +0.000 OA
ATOM     28  H   UNL     1       4.339  14.848  16.305  0.00  0.00    +0.000 HD
ENDBRANCH  26  27
ENDBRANCH  25  26
ENDBRANCH  24  25
ENDBRANCH   1  24
TORSDOF 6
ENDMDL
MODEL 7
REMARK VINA RESULT:      -6.7      0.968      1.439
REMARK  Name = 
REMARK  6 active torsions:
REMARK  status: ('A' for Active; 'I' for Inactive)
REMARK    1  A    between atoms: O_1  and  C_2
REMARK    2  A    between atoms: C_2  and  C_3
REMARK    3  A    between atoms: C_3  and  C_4
REMARK    4  A    between atoms: C_4  and  C_5
REMARK    5  A    between atoms: C_10  and  C_11
REMARK    6  A    between atoms: C_21  and  N_22
REMARK                            x       y       z     vdW  Elec       q    Type
REMARK                         _______ _______ _______ _____ _____    ______ ____
ROOT
ATOM      1  C   UNL     1       2.705   6.117  19.929  0.00  0.00    +0.000 C 
ATOM      2  C   UNL     1       1.575   7.121  19.626  0.00  0.00    +0.000 C 
ATOM      3  N   UNL     1       2.106   8.311  18.967  0.00  0.00    +0.000 N 
ATOM      4  C   UNL     1       1.335   9.429  19.033  0.00  0.00    +0.000 A 
ATOM      5  N   UNL     1       0.190   9.625  19.647  0.00  0.00    +0.000 NA
ATOM      6  C   UNL     1      -0.108  10.941  19.342  0.00  0.00    +0.000 A 
ATOM      7  N   UNL     1       0.829  11.548  18.599  0.00  0.00    +0.000 NA
ATOM      8  O   UNL     1       1.778  10.556  18.394  0.00  0.00    +0.000 OA
ATOM      9  C   UNL     1       2.848   8.077  17.727  0.00  0.00    +0.000 C 
ATOM     10  C   UNL     1       3.924   7.007  17.914  0.00  0.00    +0.000 C 
ATOM     11  C   UNL     1       3.470   5.707  18.637  0.00  0.00    +0.000 C 
ENDROOT
BRANCH   6  12
ATOM     12  C   UNL     1      -1.353  11.594  19.752  0.00  0.00    +0.000 A 
ATOM     13  C   UNL     1      -1.484  12.166  21.026  0.00  0.00    +0.000 A 
ATOM     14  C   UNL     1      -2.697  12.738  21.429  0.00  0.00    +0.000 A 
ATOM     15  C   UNL     1      -3.789  12.753  20.561  0.00  0.00    +0.000 A 
ATOM     16  C   UNL     1      -3.670  12.202  19.288  0.00  0.00    +0.000 A 
ATOM     17  C   UNL     1      -2.460  11.629  18.886  0.00  0.00    +0.000 A 
ENDBRANCH   6  12
BRANCH  11  18
ATOM     18  N   UNL     1       2.921   4.750  17.672  0.00  0.00    +0.000 NA
ATOM     19  C   UNL     1       1.508   4.414  17.580  0.00  0.00    +0.000 C 
ATOM     20  C   UNL     1       1.166   3.057  18.204  0.00  0.00    +0.000 C 
ATOM     21  O   UNL     1       1.935   2.011  17.600  0.00  0.00    +0.000 OA
ATOM     22  C   UNL     1       3.339   2.254  17.749  0.00  0.00    +0.000 C 
ATOM     23  C   UNL     1       3.767   3.638  17.222  0.00  0.00    +0.000 C 
ENDBRANCH  11  18
BRANCH   1  24
ATOM     24  C   UNL     1       2.162   5.005  20.845  0.00  0.00    +0.000 C 
BRANCH  24  25
ATOM     25  C   UNL     1       3.074   3.810  21.116  0.00  0.00    +0.000 C 
BRANCH  25  26
ATOM     26  C   UNL     1       2.247   2.631  21.637  0.00  0.00    +0.000 C 
BRANCH  26  27
ATOM     27  O   UNL     1       0.864   2.926  21.519  0.00  0.00    +0.000 OA
ATOM     28  H   UNL     1       0.797   3.827  21.154  0.00  0.00    +0.000 HD
ENDBRANCH  26  27
ENDBRANCH  25  26
ENDBRANCH  24  25
ENDBRANCH   1  24
TORSDOF 6
ENDMDL
MODEL 8
REMARK VINA RESULT:      -6.7      3.349      5.214
REMARK  Name = 
REMARK  6 active torsions:
REMARK  status: ('A' for Active; 'I' for Inactive)
REMARK    1  A    between atoms: O_1  and  C_2
REMARK    2  A    between atoms: C_2  and  C_3
REMARK    3  A    between atoms: C_3  and  C_4
REMARK    4  A    between atoms: C_4  and  C_5
REMARK    5  A    between atoms: C_10  and  C_11
REMARK    6  A    between atoms: C_21  and  N_22
REMARK                            x       y       z     vdW  Elec       q    Type
REMARK                         _______ _______ _______ _____ _____    ______ ____
ROOT
ATOM      1  C   UNL     1       4.685   5.197  16.586  0.00  0.00    +0.000 C 
ATOM      2  C   UNL     1       4.107   6.418  17.329  0.00  0.00    +0.000 C 
ATOM      3  N   UNL     1       3.570   6.024  18.628  0.00  0.00    +0.000 N 
ATOM      4  C   UNL     1       2.667   6.873  19.188  0.00  0.00    +0.000 A 
ATOM      5  N   UNL     1       2.157   7.988  18.716  0.00  0.00    +0.000 NA
ATOM      6  C   UNL     1       1.318   8.405  19.733  0.00  0.00    +0.000 A 
ATOM      7  N   UNL     1       1.282   7.568  20.780  0.00  0.00    +0.000 NA
ATOM      8  O   UNL     1       2.167   6.560  20.424  0.00  0.00    +0.000 OA
ATOM      9  C   UNL     1       4.504   5.347  19.528  0.00  0.00    +0.000 C 
ATOM     10  C   UNL     1       5.207   4.182  18.830  0.00  0.00    +0.000 C 
ATOM     11  C   UNL     1       5.789   4.486  17.421  0.00  0.00    +0.000 C 
ENDROOT
BRANCH   6  12
ATOM     12  C   UNL     1       0.578   9.669  19.691  0.00  0.00    +0.000 A 
ATOM     13  C   UNL     1       0.347  10.410  20.858  0.00  0.00    +0.000 A 
ATOM     14  C   UNL     1      -0.408  11.588  20.816  0.00  0.00    +0.000 A 
ATOM     15  C   UNL     1      -0.933  12.042  19.606  0.00  0.00    +0.000 A 
ATOM     16  C   UNL     1      -0.700  11.325  18.436  0.00  0.00    +0.000 A 
ATOM     17  C   UNL     1       0.053  10.148  18.479  0.00  0.00    +0.000 A 
ENDBRANCH   6  12
BRANCH  11  18
ATOM     18  N   UNL     1       7.150   5.020  17.535  0.00  0.00    +0.000 NA
ATOM     19  C   UNL     1       8.029   4.759  18.665  0.00  0.00    +0.000 C 
ATOM     20  C   UNL     1       8.134   5.940  19.636  0.00  0.00    +0.000 C 
ATOM     21  O   UNL     1       8.582   7.118  18.959  0.00  0.00    +0.000 OA
ATOM     22  C   UNL     1       7.692   7.468  17.892  0.00  0.00    +0.000 C 
ATOM     23  C   UNL     1       7.458   6.309  16.903  0.00  0.00    +0.000 C 
ENDBRANCH  11  18
BRANCH   1  24
ATOM     24  C   UNL     1       5.003   5.593  15.132  0.00  0.00    +0.000 C 
BRANCH  24  25
ATOM     25  C   UNL     1       5.168   4.463  14.117  0.00  0.00    +0.000 C 
BRANCH  25  26
ATOM     26  C   UNL     1       6.656   4.180  13.893  0.00  0.00    +0.000 C 
BRANCH  26  27
ATOM     27  O   UNL     1       7.363   5.402  13.754  0.00  0.00    +0.000 OA
ATOM     28  H   UNL     1       8.107   5.232  13.150  0.00  0.00    +0.000 HD
ENDBRANCH  26  27
ENDBRANCH  25  26
ENDBRANCH  24  25
ENDBRANCH   1  24
TORSDOF 6
ENDMDL
MODEL 9
REMARK VINA RESULT:      -6.5      2.541      8.395
REMARK  Name = 
REMARK  6 active torsions:
REMARK  status: ('A' for Active; 'I' for Inactive)
REMARK    1  A    between atoms: O_1  and  C_2
REMARK    2  A    between atoms: C_2  and  C_3
REMARK    3  A    between atoms: C_3  and  C_4
REMARK    4  A    between atoms: C_4  and  C_5
REMARK    5  A    between atoms: C_10  and  C_11
REMARK    6  A    between atoms: C_21  and  N_22
REMARK                            x       y       z     vdW  Elec       q    Type
REMARK                         _______ _______ _______ _____ _____    ______ ____
ROOT
ATOM      1  C   UNL     1      -0.668  10.995  18.060  0.00  0.00    +0.000 C 
ATOM      2  C   UNL     1       0.010   9.690  18.523  0.00  0.00    +0.000 C 
ATOM      3  N   UNL     1       1.411   9.664  18.115  0.00  0.00    +0.000 N 
ATOM      4  C   UNL     1       2.001   8.439  18.065  0.00  0.00    +0.000 A 
ATOM      5  N   UNL     1       1.487   7.250  18.285  0.00  0.00    +0.000 NA
ATOM      6  C   UNL     1       2.565   6.404  18.101  0.00  0.00    +0.000 A 
ATOM      7  N   UNL     1       3.693   7.036  17.749  0.00  0.00    +0.000 NA
ATOM      8  O   UNL     1       3.325   8.375  17.724  0.00  0.00    +0.000 OA
ATOM      9  C   UNL     1       2.231  10.787  18.572  0.00  0.00    +0.000 C 
ATOM     10  C   UNL     1       1.572  12.128  18.246  0.00  0.00    +0.000 C 
ATOM     11  C   UNL     1       0.066  12.251  18.612  0.00  0.00    +0.000 C 
ENDROOT
BRANCH   6  12
ATOM     12  C   UNL     1       2.491   4.957  18.319  0.00  0.00    +0.000 A 
ATOM     13  C   UNL     1       3.054   4.058  17.402  0.00  0.00    +0.000 A 
ATOM     14  C   UNL     1       2.930   2.677  17.592  0.00  0.00    +0.000 A 
ATOM     15  C   UNL     1       2.250   2.179  18.703  0.00  0.00    +0.000 A 
ATOM     16  C   UNL     1       1.698   3.059  19.630  0.00  0.00    +0.000 A 
ATOM     17  C   UNL     1       1.821   4.438  19.440  0.00  0.00    +0.000 A 
ENDBRANCH   6  12
BRANCH  11  18
ATOM     18  N   UNL     1      -0.088  12.701  19.999  0.00  0.00    +0.000 NA
ATOM     19  C   UNL     1       0.215  11.873  21.156  0.00  0.00    +0.000 C 
ATOM     20  C   UNL     1      -1.035  11.307  21.839  0.00  0.00    +0.000 C 
ATOM     21  O   UNL     1      -1.919  12.360  22.237  0.00  0.00    +0.000 OA
ATOM     22  C   UNL     1      -2.319  13.149  21.109  0.00  0.00    +0.000 C 
ATOM     23  C   UNL     1      -1.123  13.697  20.307  0.00  0.00    +0.000 C 
ENDBRANCH  11  18
BRANCH   1  24
ATOM     24  C   UNL     1      -2.189  10.879  18.273  0.00  0.00    +0.000 C 
BRANCH  24  25
ATOM     25  C   UNL     1      -2.940   9.850  17.430  0.00  0.00    +0.000 C 
BRANCH  25  26
ATOM     26  C   UNL     1      -2.750  10.159  15.942  0.00  0.00    +0.000 C 
BRANCH  26  27
ATOM     27  O   UNL     1      -3.116  11.505  15.680  0.00  0.00    +0.000 OA
ATOM     28  H   UNL     1      -3.949  11.670  16.156  0.00  0.00    +0.000 HD
ENDBRANCH  26  27
ENDBRANCH  25  26
ENDBRANCH  24  25
ENDBRANCH   1  24
TORSDOF 6
ENDMDL
