MODEL 1
REMARK VINA RESULT:      -7.6      0.000      0.000
REMARK  Name = 
REMARK  6 active torsions:
REMARK  status: ('A' for Active; 'I' for Inactive)
REMARK    1  A    between atoms: C_1  and  C_2
REMARK    2  A    between atoms: C_2  and  N_3
REMARK    3  A    between atoms: N_3  and  N_4
REMARK    4  A    between atoms: N_3  and  C_12
REMARK    5  A    between atoms: C_5  and  C_6
REMARK    6  A    between atoms: N_16  and  C_17
REMARK                            x       y       z     vdW  Elec       q    Type
REMARK                         _______ _______ _______ _____ _____    ______ ____
ROOT
ATOM      1  N   UNL     1       6.437   4.831  18.199  0.00  0.00    +0.000 N 
ENDROOT
BRANCH   1   2
ATOM      2  C   UNL     1       5.199   4.395  18.691  0.00  0.00    +0.000 A 
ATOM      3  C   UNL     1       4.372   5.147  19.426  0.00  0.00    +0.000 A 
ATOM      4  C   UNL     1       3.098   4.605  19.926  0.00  0.00    +0.000 A 
ATOM      5  O   UNL     1       2.376   5.338  20.597  0.00  0.00    +0.000 OA
ATOM      6  N   UNL     1       2.822   3.291  19.620  0.00  0.00    +0.000 N 
ATOM      7  C   UNL     1       1.607   2.685  20.124  0.00  0.00    +0.000 C 
ATOM      8  C   UNL     1       3.671   2.505  18.861  0.00  0.00    +0.000 A 
ATOM      9  O   UNL     1       3.456   1.322  18.599  0.00  0.00    +0.000 OA
ATOM     10  N   UNL     1       4.804   3.116  18.413  0.00  0.00    +0.000 N 
ATOM     11  H   UNL     1       5.440   2.574  17.841  0.00  0.00    +0.000 HD
ENDBRANCH   1   2
BRANCH   1  13
ATOM     12  C   UNL     1       7.861   6.865  18.370  0.00  0.00    +0.000 C 
ATOM     13  C   UNL     1       7.361   5.605  19.050  0.00  0.00    +0.000 C 
ENDBRANCH   1  13
BRANCH   1  14
ATOM     14  N   UNL     1       6.726   4.515  16.885  0.00  0.00    +0.000 NA
ATOM     15  C   UNL     1       6.198   5.150  15.891  0.00  0.00    +0.000 C 
BRANCH  15  16
ATOM     16  C   UNL     1       6.511   4.765  14.493  0.00  0.00    +0.000 A 
ATOM     17  C   UNL     1       7.552   5.388  13.795  0.00  0.00    +0.000 A 
ATOM     18  C   UNL     1       7.817   5.030  12.472  0.00  0.00    +0.000 A 
ATOM     19  C   UNL     1       7.047   4.048  11.846  0.00  0.00    +0.000 A 
ATOM     20  C   UNL     1       6.016   3.420  12.545  0.00  0.00    +0.000 A 
ATOM     21  C   UNL     1       5.745   3.774  13.869  0.00  0.00    +0.000 A 
ENDBRANCH  15  16
ENDBRANCH   1  14
TORSDOF 4
ENDMDL
MODEL 2
REMARK VINA RESULT:      -7.5      0.902      1.407
REMARK  Name = 
REMARK  6 active torsions:
REMARK  status: ('A' for Active; 'I' for Inactive)
REMARK    1  A    between atoms: C_1  and  C_2
REMARK    2  A    between atoms: C_2  and  N_3
REMARK    3  A    between atoms: N_3  and  N_4
REMARK    4  A    between atoms: N_3  and  C_12
REMARK    5  A    between atoms: C_5  and  C_6
REMARK    6  A    between atoms: N_16  and  C_17
REMARK                            x       y       z     vdW  Elec       q    Type
REMARK                         _______ _______ _______ _____ _____    ______ ____
ROOT
ATOM      1  N   UNL     1       6.496   5.534  17.985  0.00  0.00    +0.000 N 
ENDROOT
BRANCH   1   2
ATOM      2  C   UNL     1       5.394   4.939  18.617  0.00  0.00    +0.000 A 
ATOM      3  C   UNL     1       4.204   5.532  18.774  0.00  0.00    +0.000 A 
ATOM      4  C   UNL     1       3.105   4.847  19.473  0.00  0.00    +0.000 A 
ATOM      5  O   UNL     1       2.033   5.435  19.590  0.00  0.00    +0.000 OA
ATOM      6  N   UNL     1       3.374   3.591  19.970  0.00  0.00    +0.000 N 
ATOM      7  C   UNL     1       2.348   2.886  20.710  0.00  0.00    +0.000 C 
ATOM      8  C   UNL     1       4.601   2.971  19.814  0.00  0.00    +0.000 A 
ATOM      9  O   UNL     1       4.870   1.862  20.273  0.00  0.00    +0.000 OA
ATOM     10  N   UNL     1       5.537   3.674  19.115  0.00  0.00    +0.000 N 
ATOM     11  H   UNL     1       6.441   3.244  18.969  0.00  0.00    +0.000 HD
ENDBRANCH   1   2
BRANCH   1  13
ATOM     12  C   UNL     1       8.009   7.504  18.147  0.00  0.00    +0.000 C 
ATOM     13  C   UNL     1       7.554   6.198  18.771  0.00  0.00    +0.000 C 
ENDBRANCH   1  13
BRANCH   1  14
ATOM     14  N   UNL     1       6.521   5.478  16.605  0.00  0.00    +0.000 NA
ATOM     15  C   UNL     1       6.732   4.375  15.963  0.00  0.00    +0.000 C 
BRANCH  15  16
ATOM     16  C   UNL     1       6.779   4.358  14.481  0.00  0.00    +0.000 A 
ATOM     17  C   UNL     1       5.963   3.489  13.748  0.00  0.00    +0.000 A 
ATOM     18  C   UNL     1       6.038   3.469  12.355  0.00  0.00    +0.000 A 
ATOM     19  C   UNL     1       6.925   4.318  11.691  0.00  0.00    +0.000 A 
ATOM     20  C   UNL     1       7.732   5.192  12.420  0.00  0.00    +0.000 A 
ATOM     21  C   UNL     1       7.661   5.216  13.815  0.00  0.00    +0.000 A 
ENDBRANCH  15  16
ENDBRANCH   1  14
TORSDOF 4
ENDMDL
MODEL 3
REMARK VINA RESULT:      -7.4      1.040      1.040
REMARK  Name = 
REMARK  6 active torsions:
REMARK  status: ('A' for Active; 'I' for Inactive)
REMARK    1  A    between atoms: C_1  and  C_2
REMARK    2  A    between atoms: C_2  and  N_3
REMARK    3  A    between atoms: N_3  and  N_4
REMARK    4  A    between atoms: N_3  and  C_12
REMARK    5  A    between atoms: C_5  and  C_6
REMARK    6  A    between atoms: N_16  and  C_17
REMARK                            x       y       z     vdW  Elec       q    Type
REMARK                         _______ _______ _______ _____ _____    ______ ____
ROOT
ATOM      1  N   UNL     1       6.287   5.176  18.020  0.00  0.00    +0.000 N 
ENDROOT
BRANCH   1   2
ATOM      2  C   UNL     1       5.162   4.488  18.496  0.00  0.00    +0.000 A 
ATOM      3  C   UNL     1       3.897   4.830  18.223  0.00  0.00    +0.000 A 
ATOM      4  C   UNL     1       2.769   4.068  18.783  0.00  0.00    +0.000 A 
ATOM      5  O   UNL     1       1.628   4.425  18.501  0.00  0.00    +0.000 OA
ATOM      6  N   UNL     1       3.085   3.015  19.613  0.00  0.00    +0.000 N 
ATOM      7  C   UNL     1       2.019   2.257  20.234  0.00  0.00    +0.000 C 
ATOM      8  C   UNL     1       4.389   2.655  19.902  0.00  0.00    +0.000 A 
ATOM      9  O   UNL     1       4.691   1.735  20.661  0.00  0.00    +0.000 OA
ATOM     10  N   UNL     1       5.358   3.399  19.298  0.00  0.00    +0.000 N 
ATOM     11  H   UNL     1       6.324   3.153  19.476  0.00  0.00    +0.000 HD
ENDBRANCH   1   2
BRANCH   1  13
ATOM     12  C   UNL     1       7.954   7.001  18.317  0.00  0.00    +0.000 C 
ATOM     13  C   UNL     1       7.225   5.832  18.952  0.00  0.00    +0.000 C 
ENDBRANCH   1  13
BRANCH   1  14
ATOM     14  N   UNL     1       6.451   5.220  16.649  0.00  0.00    +0.000 NA
ATOM     15  C   UNL     1       6.523   4.147  15.930  0.00  0.00    +0.000 C 
BRANCH  15  16
ATOM     16  C   UNL     1       6.727   4.232  14.463  0.00  0.00    +0.000 A 
ATOM     17  C   UNL     1       7.604   5.176  13.915  0.00  0.00    +0.000 A 
ATOM     18  C   UNL     1       7.765   5.258  12.531  0.00  0.00    +0.000 A 
ATOM     19  C   UNL     1       7.055   4.397  11.693  0.00  0.00    +0.000 A 
ATOM     20  C   UNL     1       6.189   3.449  12.239  0.00  0.00    +0.000 A 
ATOM     21  C   UNL     1       6.023   3.363  13.623  0.00  0.00    +0.000 A 
ENDBRANCH  15  16
ENDBRANCH   1  14
TORSDOF 4
ENDMDL
MODEL 4
REMARK VINA RESULT:      -7.4      2.805      6.686
REMARK  Name = 
REMARK  6 active torsions:
REMARK  status: ('A' for Active; 'I' for Inactive)
REMARK    1  A    between atoms: C_1  and  C_2
REMARK    2  A    between atoms: C_2  and  N_3
REMARK    3  A    between atoms: N_3  and  N_4
REMARK    4  A    between atoms: N_3  and  C_12
REMARK    5  A    between atoms: C_5  and  C_6
REMARK    6  A    between atoms: N_16  and  C_17
REMARK                            x       y       z     vdW  Elec       q    Type
REMARK                         _______ _______ _______ _____ _____    ______ ____
ROOT
ATOM      1  N   UNL     1       6.123   5.412  17.029  0.00  0.00    +0.000 N 
ENDROOT
BRANCH   1   2
ATOM      2  C   UNL     1       6.324   5.090  15.680  0.00  0.00    +0.000 A 
ATOM      3  C   UNL     1       5.528   4.282  14.970  0.00  0.00    +0.000 A 
ATOM      4  C   UNL     1       5.824   3.974  13.561  0.00  0.00    +0.000 A 
ATOM      5  O   UNL     1       5.061   3.226  12.956  0.00  0.00    +0.000 OA
ATOM      6  N   UNL     1       6.964   4.537  13.031  0.00  0.00    +0.000 N 
ATOM      7  C   UNL     1       7.335   4.234  11.664  0.00  0.00    +0.000 C 
ATOM      8  C   UNL     1       7.793   5.373  13.757  0.00  0.00    +0.000 A 
ATOM      9  O   UNL     1       8.829   5.864  13.309  0.00  0.00    +0.000 OA
ATOM     10  N   UNL     1       7.406   5.627  15.038  0.00  0.00    +0.000 N 
ATOM     11  H   UNL     1       7.983   6.247  15.593  0.00  0.00    +0.000 HD
ENDBRANCH   1   2
BRANCH   1  13
ATOM     12  C   UNL     1       7.661   5.727  18.961  0.00  0.00    +0.000 C 
ATOM     13  C   UNL     1       7.028   6.344  17.729  0.00  0.00    +0.000 C 
ENDBRANCH   1  13
BRANCH   1  14
ATOM     14  N   UNL     1       5.057   4.799  17.659  0.00  0.00    +0.000 NA
ATOM     15  C   UNL     1       4.015   5.459  18.049  0.00  0.00    +0.000 C 
BRANCH  15  16
ATOM     16  C   UNL     1       2.901   4.772  18.746  0.00  0.00    +0.000 A 
ATOM     17  C   UNL     1       2.552   5.121  20.056  0.00  0.00    +0.000 A 
ATOM     18  C   UNL     1       1.517   4.447  20.706  0.00  0.00    +0.000 A 
ATOM     19  C   UNL     1       0.828   3.426  20.049  0.00  0.00    +0.000 A 
ATOM     20  C   UNL     1       1.168   3.084  18.740  0.00  0.00    +0.000 A 
ATOM     21  C   UNL     1       2.204   3.755  18.085  0.00  0.00    +0.000 A 
ENDBRANCH  15  16
ENDBRANCH   1  14
TORSDOF 4
ENDMDL
MODEL 5
REMARK VINA RESULT:      -7.3      2.786      6.809
REMARK  Name = 
REMARK  6 active torsions:
REMARK  status: ('A' for Active; 'I' for Inactive)
REMARK    1  A    between atoms: C_1  and  C_2
REMARK    2  A    between atoms: C_2  and  N_3
REMARK    3  A    between atoms: N_3  and  N_4
REMARK    4  A    between atoms: N_3  and  C_12
REMARK    5  A    between atoms: C_5  and  C_6
REMARK    6  A    between atoms: N_16  and  C_17
REMARK                            x       y       z     vdW  Elec       q    Type
REMARK                         _______ _______ _______ _____ _____    ______ ____
ROOT
ATOM      1  N   UNL     1       6.325   4.594  17.073  0.00  0.00    +0.000 N 
ENDROOT
BRANCH   1   2
ATOM      2  C   UNL     1       6.486   4.550  15.680  0.00  0.00    +0.000 A 
ATOM      3  C   UNL     1       5.725   3.821  14.855  0.00  0.00    +0.000 A 
ATOM      4  C   UNL     1       5.976   3.810  13.405  0.00  0.00    +0.000 A 
ATOM      5  O   UNL     1       5.248   3.124  12.693  0.00  0.00    +0.000 OA
ATOM      6  N   UNL     1       7.039   4.562  12.956  0.00  0.00    +0.000 N 
ATOM      7  C   UNL     1       7.367   4.554  11.545  0.00  0.00    +0.000 C 
ATOM      8  C   UNL     1       7.832   5.318  13.801  0.00  0.00    +0.000 A 
ATOM      9  O   UNL     1       8.801   5.974  13.422  0.00  0.00    +0.000 OA
ATOM     10  N   UNL     1       7.488   5.291  15.119  0.00  0.00    +0.000 N 
ATOM     11  H   UNL     1       8.039   5.846  15.763  0.00  0.00    +0.000 HD
ENDBRANCH   1   2
BRANCH   1  13
ATOM     12  C   UNL     1       7.602   6.198  18.484  0.00  0.00    +0.000 C 
ATOM     13  C   UNL     1       7.486   4.778  17.965  0.00  0.00    +0.000 C 
ENDBRANCH   1  13
BRANCH   1  14
ATOM     14  N   UNL     1       5.039   4.439  17.551  0.00  0.00    +0.000 NA
ATOM     15  C   UNL     1       4.793   3.940  18.719  0.00  0.00    +0.000 C 
BRANCH  15  16
ATOM     16  C   UNL     1       3.398   3.763  19.189  0.00  0.00    +0.000 A 
ATOM     17  C   UNL     1       2.498   2.965  18.474  0.00  0.00    +0.000 A 
ATOM     18  C   UNL     1       1.181   2.828  18.916  0.00  0.00    +0.000 A 
ATOM     19  C   UNL     1       0.762   3.485  20.075  0.00  0.00    +0.000 A 
ATOM     20  C   UNL     1       1.662   4.273  20.794  0.00  0.00    +0.000 A 
ATOM     21  C   UNL     1       2.980   4.413  20.355  0.00  0.00    +0.000 A 
ENDBRANCH  15  16
ENDBRANCH   1  14
TORSDOF 4
ENDMDL
MODEL 6
REMARK VINA RESULT:      -7.3      0.849      1.875
REMARK  Name = 
REMARK  6 active torsions:
REMARK  status: ('A' for Active; 'I' for Inactive)
REMARK    1  A    between atoms: C_1  and  C_2
REMARK    2  A    between atoms: C_2  and  N_3
REMARK    3  A    between atoms: N_3  and  N_4
REMARK    4  A    between atoms: N_3  and  C_12
REMARK    5  A    between atoms: C_5  and  C_6
REMARK    6  A    between atoms: N_16  and  C_17
REMARK                            x       y       z     vdW  Elec       q    Type
REMARK                         _______ _______ _______ _____ _____    ______ ____
ROOT
ATOM      1  N   UNL     1       6.189   4.896  18.275  0.00  0.00    +0.000 N 
ENDROOT
BRANCH   1   2
ATOM      2  C   UNL     1       4.915   4.521  18.725  0.00  0.00    +0.000 A 
ATOM      3  C   UNL     1       4.411   3.285  18.621  0.00  0.00    +0.000 A 
ATOM      4  C   UNL     1       3.052   2.980  19.097  0.00  0.00    +0.000 A 
ATOM      5  O   UNL     1       2.638   1.830  18.977  0.00  0.00    +0.000 OA
ATOM      6  N   UNL     1       2.330   4.028  19.624  0.00  0.00    +0.000 N 
ATOM      7  C   UNL     1       0.969   3.801  20.065  0.00  0.00    +0.000 C 
ATOM      8  C   UNL     1       2.842   5.309  19.734  0.00  0.00    +0.000 A 
ATOM      9  O   UNL     1       2.205   6.263  20.177  0.00  0.00    +0.000 OA
ATOM     10  N   UNL     1       4.124   5.475  19.303  0.00  0.00    +0.000 N 
ATOM     11  H   UNL     1       4.535   6.397  19.384  0.00  0.00    +0.000 HD
ENDBRANCH   1   2
BRANCH   1  13
ATOM     12  C   UNL     1       7.809   6.778  18.442  0.00  0.00    +0.000 C 
ATOM     13  C   UNL     1       7.118   5.631  19.154  0.00  0.00    +0.000 C 
ENDBRANCH   1  13
BRANCH   1  14
ATOM     14  N   UNL     1       6.509   4.558  16.974  0.00  0.00    +0.000 NA
ATOM     15  C   UNL     1       5.919   5.096  15.957  0.00  0.00    +0.000 C 
BRANCH  15  16
ATOM     16  C   UNL     1       6.270   4.689  14.575  0.00  0.00    +0.000 A 
ATOM     17  C   UNL     1       7.388   5.231  13.931  0.00  0.00    +0.000 A 
ATOM     18  C   UNL     1       7.690   4.855  12.621  0.00  0.00    +0.000 A 
ATOM     19  C   UNL     1       6.879   3.935  11.954  0.00  0.00    +0.000 A 
ATOM     20  C   UNL     1       5.770   3.387  12.598  0.00  0.00    +0.000 A 
ATOM     21  C   UNL     1       5.463   3.760  13.909  0.00  0.00    +0.000 A 
ENDBRANCH  15  16
ENDBRANCH   1  14
TORSDOF 4
ENDMDL
MODEL 7
REMARK VINA RESULT:      -7.2      0.456      1.200
REMARK  Name = 
REMARK  6 active torsions:
REMARK  status: ('A' for Active; 'I' for Inactive)
REMARK    1  A    between atoms: C_1  and  C_2
REMARK    2  A    between atoms: C_2  and  N_3
REMARK    3  A    between atoms: N_3  and  N_4
REMARK    4  A    between atoms: N_3  and  C_12
REMARK    5  A    between atoms: C_5  and  C_6
REMARK    6  A    between atoms: N_16  and  C_17
REMARK                            x       y       z     vdW  Elec       q    Type
REMARK                         _______ _______ _______ _____ _____    ______ ____
ROOT
ATOM      1  N   UNL     1       6.094   5.108  17.971  0.00  0.00    +0.000 N 
ENDROOT
BRANCH   1   2
ATOM      2  C   UNL     1       4.968   4.522  18.567  0.00  0.00    +0.000 A 
ATOM      3  C   UNL     1       4.138   5.160  19.402  0.00  0.00    +0.000 A 
ATOM      4  C   UNL     1       2.990   4.465  20.005  0.00  0.00    +0.000 A 
ATOM      5  O   UNL     1       2.261   5.096  20.765  0.00  0.00    +0.000 OA
ATOM      6  N   UNL     1       2.835   3.134  19.686  0.00  0.00    +0.000 N 
ATOM      7  C   UNL     1       1.752   2.382  20.286  0.00  0.00    +0.000 C 
ATOM      8  C   UNL     1       3.688   2.466  18.825  0.00  0.00    +0.000 A 
ATOM      9  O   UNL     1       3.582   1.272  18.549  0.00  0.00    +0.000 OA
ATOM     10  N   UNL     1       4.694   3.212  18.288  0.00  0.00    +0.000 N 
ATOM     11  H   UNL     1       5.327   2.758  17.642  0.00  0.00    +0.000 HD
ENDBRANCH   1   2
BRANCH   1  13
ATOM     12  C   UNL     1       8.034   5.549  19.468  0.00  0.00    +0.000 C 
ATOM     13  C   UNL     1       6.878   6.137  18.680  0.00  0.00    +0.000 C 
ENDBRANCH   1  13
BRANCH   1  14
ATOM     14  N   UNL     1       6.409   4.684  16.694  0.00  0.00    +0.000 NA
ATOM     15  C   UNL     1       5.857   5.197  15.643  0.00  0.00    +0.000 C 
BRANCH  15  16
ATOM     16  C   UNL     1       6.199   4.698  14.288  0.00  0.00    +0.000 A 
ATOM     17  C   UNL     1       5.375   3.774  13.636  0.00  0.00    +0.000 A 
ATOM     18  C   UNL     1       5.724   3.296  12.372  0.00  0.00    +0.000 A 
ATOM     19  C   UNL     1       6.896   3.742  11.757  0.00  0.00    +0.000 A 
ATOM     20  C   UNL     1       7.713   4.670  12.402  0.00  0.00    +0.000 A 
ATOM     21  C   UNL     1       7.368   5.151  13.667  0.00  0.00    +0.000 A 
ENDBRANCH  15  16
ENDBRANCH   1  14
TORSDOF 4
ENDMDL
MODEL 8
REMARK VINA RESULT:      -7.1      1.412      1.518
REMARK  Name = 
REMARK  6 active torsions:
REMARK  status: ('A' for Active; 'I' for Inactive)
REMARK    1  A    between atoms: C_1  and  C_2
REMARK    2  A    between atoms: C_2  and  N_3
REMARK    3  A    between atoms: N_3  and  N_4
REMARK    4  A    between atoms: N_3  and  C_12
REMARK    5  A    between atoms: C_5  and  C_6
REMARK    6  A    between atoms: N_16  and  C_17
REMARK                            x       y       z     vdW  Elec       q    Type
REMARK                         _______ _______ _______ _____ _____    ______ ____
ROOT
ATOM      1  N   UNL     1       5.819   5.061  18.077  0.00  0.00    +0.000 N 
ENDROOT
BRANCH   1   2
ATOM      2  C   UNL     1       4.620   4.456  18.479  0.00  0.00    +0.000 A 
ATOM      3  C   UNL     1       4.493   3.677  19.561  0.00  0.00    +0.000 A 
ATOM      4  C   UNL     1       3.202   3.058  19.901  0.00  0.00    +0.000 A 
ATOM      5  O   UNL     1       3.140   2.352  20.903  0.00  0.00    +0.000 OA
ATOM      6  N   UNL     1       2.153   3.302  19.041  0.00  0.00    +0.000 N 
ATOM      7  C   UNL     1       0.869   2.682  19.295  0.00  0.00    +0.000 C 
ATOM      8  C   UNL     1       2.275   4.104  17.921  0.00  0.00    +0.000 A 
ATOM      9  O   UNL     1       1.358   4.312  17.127  0.00  0.00    +0.000 OA
ATOM     10  N   UNL     1       3.502   4.663  17.721  0.00  0.00    +0.000 N 
ATOM     11  H   UNL     1       3.621   5.268  16.918  0.00  0.00    +0.000 HD
ENDBRANCH   1   2
BRANCH   1  13
ATOM     12  C   UNL     1       7.747   6.590  18.452  0.00  0.00    +0.000 C 
ATOM     13  C   UNL     1       6.755   5.622  19.069  0.00  0.00    +0.000 C 
ENDBRANCH   1  13
BRANCH   1  14
ATOM     14  N   UNL     1       6.057   5.117  16.717  0.00  0.00    +0.000 NA
ATOM     15  C   UNL     1       6.217   4.051  16.001  0.00  0.00    +0.000 C 
BRANCH  15  16
ATOM     16  C   UNL     1       6.499   4.151  14.549  0.00  0.00    +0.000 A 
ATOM     17  C   UNL     1       7.469   5.036  14.066  0.00  0.00    +0.000 A 
ATOM     18  C   UNL     1       7.704   5.135  12.694  0.00  0.00    +0.000 A 
ATOM     19  C   UNL     1       6.974   4.348  11.802  0.00  0.00    +0.000 A 
ATOM     20  C   UNL     1       6.013   3.457  12.283  0.00  0.00    +0.000 A 
ATOM     21  C   UNL     1       5.773   3.355  13.655  0.00  0.00    +0.000 A 
ENDBRANCH  15  16
ENDBRANCH   1  14
TORSDOF 4
ENDMDL
MODEL 9
REMARK VINA RESULT:      -7.0      0.840      2.210
REMARK  Name = 
REMARK  6 active torsions:
REMARK  status: ('A' for Active; 'I' for Inactive)
REMARK    1  A    between atoms: C_1  and  C_2
REMARK    2  A    between atoms: C_2  and  N_3
REMARK    3  A    between atoms: N_3  and  N_4
REMARK    4  A    between atoms: N_3  and  C_12
REMARK    5  A    between atoms: C_5  and  C_6
REMARK    6  A    between atoms: N_16  and  C_17
REMARK                            x       y       z     vdW  Elec       q    Type
REMARK                         _______ _______ _______ _____ _____    ______ ____
ROOT
ATOM      1  N   UNL     1       5.770   4.809  18.259  0.00  0.00    +0.000 N 
ENDROOT
BRANCH   1   2
ATOM      2  C   UNL     1       4.538   4.308  18.701  0.00  0.00    +0.000 A 
ATOM      3  C   UNL     1       4.033   3.121  18.345  0.00  0.00    +0.000 A 
ATOM      4  C   UNL     1       2.718   2.679  18.836  0.00  0.00    +0.000 A 
ATOM      5  O   UNL     1       2.302   1.581  18.478  0.00  0.00    +0.000 OA
ATOM      6  N   UNL     1       2.035   3.555  19.650  0.00  0.00    +0.000 N 
ATOM      7  C   UNL     1       0.714   3.198  20.126  0.00  0.00    +0.000 C 
ATOM      8  C   UNL     1       2.548   4.785  20.023  0.00  0.00    +0.000 A 
ATOM      9  O   UNL     1       1.942   5.592  20.727  0.00  0.00    +0.000 OA
ATOM     10  N   UNL     1       3.791   5.079  19.548  0.00  0.00    +0.000 N 
ATOM     11  H   UNL     1       4.202   5.965  19.814  0.00  0.00    +0.000 HD
ENDBRANCH   1   2
BRANCH   1  13
ATOM     12  C   UNL     1       8.081   5.491  18.884  0.00  0.00    +0.000 C 
ATOM     13  C   UNL     1       6.595   5.671  19.127  0.00  0.00    +0.000 C 
ENDBRANCH   1  13
BRANCH   1  14
ATOM     14  N   UNL     1       6.150   4.469  16.975  0.00  0.00    +0.000 NA
ATOM     15  C   UNL     1       5.839   5.192  15.949  0.00  0.00    +0.000 C 
BRANCH  15  16
ATOM     16  C   UNL     1       6.241   4.781  14.582  0.00  0.00    +0.000 A 
ATOM     17  C   UNL     1       5.504   3.823  13.876  0.00  0.00    +0.000 A 
ATOM     18  C   UNL     1       5.911   3.429  12.600  0.00  0.00    +0.000 A 
ATOM     19  C   UNL     1       7.051   3.994  12.026  0.00  0.00    +0.000 A 
ATOM     20  C   UNL     1       7.781   4.956  12.725  0.00  0.00    +0.000 A 
ATOM     21  C   UNL     1       7.379   5.353  14.002  0.00  0.00    +0.000 A 
ENDBRANCH  15  16
ENDBRANCH   1  14
TORSDOF 4
ENDMDL
