MODEL 1
REMARK VINA RESULT:      -7.9      0.000      0.000
REMARK  Name = 
REMARK  5 active torsions:
REMARK  status: ('A' for Active; 'I' for Inactive)
REMARK    1  A    between atoms: C_1  and  N_2
REMARK    2  A    between atoms: C_4  and  C_5
REMARK    3  A    between atoms: C_8  and  C_9
REMARK    4  A    between atoms: N_12  and  C_13
REMARK    5  A    between atoms: N_12  and  C_14
REMARK                            x       y       z     vdW  Elec       q    Type
REMARK                         _______ _______ _______ _____ _____    ______ ____
ROOT
ATOM      1  C   UNL     1       1.366   9.327  18.593  0.00  0.00    +0.000 A 
ATOM      2  N   UNL     1       2.090   9.370  17.465  0.00  0.00    +0.000 NA
ATOM      3  O   UNL     1       2.843   8.200  17.509  0.00  0.00    +0.000 OA
ATOM      4  C   UNL     1       2.496   7.571  18.663  0.00  0.00    +0.000 A 
ATOM      5  N   UNL     1       1.597   8.212  19.370  0.00  0.00    +0.000 NA
ENDROOT
BRANCH   1   9
ATOM      6  C   UNL     1      -0.681  13.204  20.975  0.00  0.00    +0.000 C 
ATOM      7  N   UNL     1      -0.518  12.061  20.102  0.00  0.00    +0.000 N 
ATOM      8  C   UNL     1       0.615  11.296  20.010  0.00  0.00    +0.000 A 
ATOM      9  C   UNL     1       0.408  10.339  19.034  0.00  0.00    +0.000 A 
ATOM     10  C   UNL     1      -0.916  10.522  18.528  0.00  0.00    +0.000 A 
ATOM     11  C   UNL     1      -1.702   9.884  17.542  0.00  0.00    +0.000 A 
ATOM     12  C   UNL     1      -3.004  10.328  17.289  0.00  0.00    +0.000 A 
ATOM     13  C   UNL     1      -3.537  11.394  18.003  0.00  0.00    +0.000 A 
ATOM     14  C   UNL     1      -2.786  12.049  18.982  0.00  0.00    +0.000 A 
ATOM     15  C   UNL     1      -1.477  11.601  19.224  0.00  0.00    +0.000 A 
ENDBRANCH   1   9
BRANCH   4  16
ATOM     16  C   UNL     1       3.176   6.290  18.983  0.00  0.00    +0.000 C 
ATOM     17  C   UNL     1       3.433   5.497  17.700  0.00  0.00    +0.000 C 
ATOM     18  C   UNL     1       4.025   4.127  17.990  0.00  0.00    +0.000 C 
ATOM     19  N   UNL     1       3.147   3.326  18.956  0.00  0.00    +0.000 N 
ATOM     20  C   UNL     1       3.893   2.036  19.328  0.00  0.00    +0.000 C 
ATOM     21  C   UNL     1       1.829   2.910  18.292  0.00  0.00    +0.000 C 
ATOM     22  C   UNL     1       2.898   4.116  20.243  0.00  0.00    +0.000 C 
ATOM     23  C   UNL     1       2.308   5.485  19.953  0.00  0.00    +0.000 C 
ENDBRANCH   4  16
TORSDOF 2
ENDMDL
MODEL 2
REMARK VINA RESULT:      -7.8      1.573      2.538
REMARK  Name = 
REMARK  5 active torsions:
REMARK  status: ('A' for Active; 'I' for Inactive)
REMARK    1  A    between atoms: C_1  and  N_2
REMARK    2  A    between atoms: C_4  and  C_5
REMARK    3  A    between atoms: C_8  and  C_9
REMARK    4  A    between atoms: N_12  and  C_13
REMARK    5  A    between atoms: N_12  and  C_14
REMARK                            x       y       z     vdW  Elec       q    Type
REMARK                         _______ _______ _______ _____ _____    ______ ____
ROOT
ATOM      1  C   UNL     1       1.534   9.217  18.597  0.00  0.00    +0.000 A 
ATOM      2  N   UNL     1       2.243   9.503  17.495  0.00  0.00    +0.000 NA
ATOM      3  O   UNL     1       2.881   8.304  17.190  0.00  0.00    +0.000 OA
ATOM      4  C   UNL     1       2.492   7.416  18.143  0.00  0.00    +0.000 A 
ATOM      5  N   UNL     1       1.669   7.917  19.033  0.00  0.00    +0.000 NA
ENDROOT
BRANCH   1   9
ATOM      6  C   UNL     1      -1.414  13.086  19.709  0.00  0.00    +0.000 C 
ATOM      7  N   UNL     1      -0.621  11.882  19.843  0.00  0.00    +0.000 N 
ATOM      8  C   UNL     1       0.119  11.311  18.841  0.00  0.00    +0.000 A 
ATOM      9  C   UNL     1       0.685  10.151  19.335  0.00  0.00    +0.000 A 
ATOM     10  C   UNL     1       0.284  10.025  20.700  0.00  0.00    +0.000 A 
ATOM     11  C   UNL     1       0.521   9.080  21.725  0.00  0.00    +0.000 A 
ATOM     12  C   UNL     1      -0.041   9.266  22.991  0.00  0.00    +0.000 A 
ATOM     13  C   UNL     1      -0.830  10.377  23.258  0.00  0.00    +0.000 A 
ATOM     14  C   UNL     1      -1.087  11.329  22.267  0.00  0.00    +0.000 A 
ATOM     15  C   UNL     1      -0.525  11.130  20.995  0.00  0.00    +0.000 A 
ENDBRANCH   1   9
BRANCH   4  16
ATOM     16  C   UNL     1       3.051   6.042  18.077  0.00  0.00    +0.000 C 
ATOM     17  C   UNL     1       1.922   5.025  17.894  0.00  0.00    +0.000 C 
ATOM     18  C   UNL     1       2.436   3.595  17.936  0.00  0.00    +0.000 C 
ATOM     19  N   UNL     1       3.217   3.313  19.222  0.00  0.00    +0.000 N 
ATOM     20  C   UNL     1       3.842   1.914  19.110  0.00  0.00    +0.000 C 
ATOM     21  C   UNL     1       2.289   3.295  20.442  0.00  0.00    +0.000 C 
ATOM     22  C   UNL     1       4.352   4.325  19.399  0.00  0.00    +0.000 C 
ATOM     23  C   UNL     1       3.838   5.753  19.357  0.00  0.00    +0.000 C 
ENDBRANCH   4  16
TORSDOF 2
ENDMDL
MODEL 3
REMARK VINA RESULT:      -7.7      1.437      7.909
REMARK  Name = 
REMARK  5 active torsions:
REMARK  status: ('A' for Active; 'I' for Inactive)
REMARK    1  A    between atoms: C_1  and  N_2
REMARK    2  A    between atoms: C_4  and  C_5
REMARK    3  A    between atoms: C_8  and  C_9
REMARK    4  A    between atoms: N_12  and  C_13
REMARK    5  A    between atoms: N_12  and  C_14
REMARK                            x       y       z     vdW  Elec       q    Type
REMARK                         _______ _______ _______ _____ _____    ______ ____
ROOT
ATOM      1  C   UNL     1       2.756   7.764  17.993  0.00  0.00    +0.000 A 
ATOM      2  N   UNL     1       2.777   8.735  17.068  0.00  0.00    +0.000 NA
ATOM      3  O   UNL     1       1.883   9.682  17.562  0.00  0.00    +0.000 OA
ATOM      4  C   UNL     1       1.413   9.182  18.735  0.00  0.00    +0.000 A 
ATOM      5  N   UNL     1       1.910   8.010  19.052  0.00  0.00    +0.000 NA
ENDROOT
BRANCH   1   9
ATOM      6  C   UNL     1       6.560   4.537  17.863  0.00  0.00    +0.000 C 
ATOM      7  N   UNL     1       5.215   5.073  17.873  0.00  0.00    +0.000 N 
ATOM      8  C   UNL     1       4.900   6.406  17.876  0.00  0.00    +0.000 A 
ATOM      9  C   UNL     1       3.524   6.520  17.945  0.00  0.00    +0.000 A 
ATOM     10  C   UNL     1       2.984   5.198  17.964  0.00  0.00    +0.000 A 
ATOM     11  C   UNL     1       1.680   4.655  18.030  0.00  0.00    +0.000 A 
ATOM     12  C   UNL     1       1.499   3.268  18.029  0.00  0.00    +0.000 A 
ATOM     13  C   UNL     1       2.591   2.413  17.960  0.00  0.00    +0.000 A 
ATOM     14  C   UNL     1       3.894   2.917  17.898  0.00  0.00    +0.000 A 
ATOM     15  C   UNL     1       4.067   4.310  17.907  0.00  0.00    +0.000 A 
ENDBRANCH   1   9
BRANCH   4  16
ATOM     16  C   UNL     1       0.408   9.986  19.476  0.00  0.00    +0.000 C 
ATOM     17  C   UNL     1      -0.711  10.428  18.529  0.00  0.00    +0.000 C 
ATOM     18  C   UNL     1      -1.704  11.350  19.218  0.00  0.00    +0.000 C 
ATOM     19  N   UNL     1      -1.008  12.564  19.841  0.00  0.00    +0.000 N 
ATOM     20  C   UNL     1      -2.047  13.349  20.656  0.00  0.00    +0.000 C 
ATOM     21  C   UNL     1      -0.474  13.512  18.761  0.00  0.00    +0.000 C 
ATOM     22  C   UNL     1       0.104  12.121  20.794  0.00  0.00    +0.000 C 
ATOM     23  C   UNL     1       1.095  11.199  20.106  0.00  0.00    +0.000 C 
ENDBRANCH   4  16
TORSDOF 2
ENDMDL
MODEL 4
REMARK VINA RESULT:      -7.7      2.228      3.472
REMARK  Name = 
REMARK  5 active torsions:
REMARK  status: ('A' for Active; 'I' for Inactive)
REMARK    1  A    between atoms: C_1  and  N_2
REMARK    2  A    between atoms: C_4  and  C_5
REMARK    3  A    between atoms: C_8  and  C_9
REMARK    4  A    between atoms: N_12  and  C_13
REMARK    5  A    between atoms: N_12  and  C_14
REMARK                            x       y       z     vdW  Elec       q    Type
REMARK                         _______ _______ _______ _____ _____    ______ ____
ROOT
ATOM      1  C   UNL     1       1.466   8.442  19.755  0.00  0.00    +0.000 A 
ATOM      2  N   UNL     1       1.535   7.503  20.710  0.00  0.00    +0.000 NA
ATOM      3  O   UNL     1       2.355   6.524  20.154  0.00  0.00    +0.000 OA
ATOM      4  C   UNL     1       2.694   6.974  18.917  0.00  0.00    +0.000 A 
ATOM      5  N   UNL     1       2.180   8.142  18.615  0.00  0.00    +0.000 NA
ENDROOT
BRANCH   1   9
ATOM      6  C   UNL     1      -0.693  12.770  18.529  0.00  0.00    +0.000 C 
ATOM      7  N   UNL     1      -0.246  11.630  19.302  0.00  0.00    +0.000 N 
ATOM      8  C   UNL     1       0.548  10.619  18.826  0.00  0.00    +0.000 A 
ATOM      9  C   UNL     1       0.710   9.691  19.837  0.00  0.00    +0.000 A 
ATOM     10  C   UNL     1      -0.001  10.170  20.979  0.00  0.00    +0.000 A 
ATOM     11  C   UNL     1      -0.219   9.690  22.291  0.00  0.00    +0.000 A 
ATOM     12  C   UNL     1      -0.989  10.435  23.189  0.00  0.00    +0.000 A 
ATOM     13  C   UNL     1      -1.543  11.650  22.807  0.00  0.00    +0.000 A 
ATOM     14  C   UNL     1      -1.350  12.152  21.516  0.00  0.00    +0.000 A 
ATOM     15  C   UNL     1      -0.581  11.394  20.619  0.00  0.00    +0.000 A 
ENDBRANCH   1   9
BRANCH   4  16
ATOM     16  C   UNL     1       3.556   6.103  18.077  0.00  0.00    +0.000 C 
ATOM     17  C   UNL     1       4.516   5.304  18.963  0.00  0.00    +0.000 C 
ATOM     18  C   UNL     1       5.496   4.484  18.139  0.00  0.00    +0.000 C 
ATOM     19  N   UNL     1       6.271   5.358  17.149  0.00  0.00    +0.000 N 
ATOM     20  C   UNL     1       7.107   4.438  16.246  0.00  0.00    +0.000 C 
ATOM     21  C   UNL     1       7.250   6.285  17.878  0.00  0.00    +0.000 C 
ATOM     22  C   UNL     1       5.310   6.149  16.258  0.00  0.00    +0.000 C 
ATOM     23  C   UNL     1       4.331   6.968  17.082  0.00  0.00    +0.000 C 
ENDBRANCH   4  16
TORSDOF 2
ENDMDL
MODEL 5
REMARK VINA RESULT:      -7.6      1.881      8.064
REMARK  Name = 
REMARK  5 active torsions:
REMARK  status: ('A' for Active; 'I' for Inactive)
REMARK    1  A    between atoms: C_1  and  N_2
REMARK    2  A    between atoms: C_4  and  C_5
REMARK    3  A    between atoms: C_8  and  C_9
REMARK    4  A    between atoms: N_12  and  C_13
REMARK    5  A    between atoms: N_12  and  C_14
REMARK                            x       y       z     vdW  Elec       q    Type
REMARK                         _______ _______ _______ _____ _____    ______ ____
ROOT
ATOM      1  C   UNL     1       2.358   7.438  18.754  0.00  0.00    +0.000 A 
ATOM      2  N   UNL     1       2.007   7.537  20.045  0.00  0.00    +0.000 NA
ATOM      3  O   UNL     1       1.351   8.764  20.117  0.00  0.00    +0.000 OA
ATOM      4  C   UNL     1       1.376   9.280  18.860  0.00  0.00    +0.000 A 
ATOM      5  N   UNL     1       1.980   8.515  17.982  0.00  0.00    +0.000 NA
ENDROOT
BRANCH   1   9
ATOM      6  C   UNL     1       5.874   4.792  16.403  0.00  0.00    +0.000 C 
ATOM      7  N   UNL     1       4.648   5.140  17.089  0.00  0.00    +0.000 N 
ATOM      8  C   UNL     1       4.295   6.406  17.477  0.00  0.00    +0.000 A 
ATOM      9  C   UNL     1       3.090   6.326  18.149  0.00  0.00    +0.000 A 
ATOM     10  C   UNL     1       2.688   4.956  18.151  0.00  0.00    +0.000 A 
ATOM     11  C   UNL     1       1.581   4.242  18.667  0.00  0.00    +0.000 A 
ATOM     12  C   UNL     1       1.494   2.859  18.484  0.00  0.00    +0.000 A 
ATOM     13  C   UNL     1       2.487   2.173  17.794  0.00  0.00    +0.000 A 
ATOM     14  C   UNL     1       3.596   2.848  17.274  0.00  0.00    +0.000 A 
ATOM     15  C   UNL     1       3.678   4.236  17.469  0.00  0.00    +0.000 A 
ENDBRANCH   1   9
BRANCH   4  16
ATOM     16  C   UNL     1       0.760  10.615  18.649  0.00  0.00    +0.000 C 
ATOM     17  C   UNL     1       1.844  11.696  18.634  0.00  0.00    +0.000 C 
ATOM     18  C   UNL     1       1.249  13.092  18.534  0.00  0.00    +0.000 C 
ATOM     19  N   UNL     1       0.237  13.354  19.653  0.00  0.00    +0.000 N 
ATOM     20  C   UNL     1      -0.438  14.708  19.384  0.00  0.00    +0.000 C 
ATOM     21  C   UNL     1       0.931  13.459  21.016  0.00  0.00    +0.000 C 
ATOM     22  C   UNL     1      -0.851  12.278  19.662  0.00  0.00    +0.000 C 
ATOM     23  C   UNL     1      -0.257  10.884  19.760  0.00  0.00    +0.000 C 
ENDBRANCH   4  16
TORSDOF 2
ENDMDL
MODEL 6
REMARK VINA RESULT:      -7.6      1.810      7.786
REMARK  Name = 
REMARK  5 active torsions:
REMARK  status: ('A' for Active; 'I' for Inactive)
REMARK    1  A    between atoms: C_1  and  N_2
REMARK    2  A    between atoms: C_4  and  C_5
REMARK    3  A    between atoms: C_8  and  C_9
REMARK    4  A    between atoms: N_12  and  C_13
REMARK    5  A    between atoms: N_12  and  C_14
REMARK                            x       y       z     vdW  Elec       q    Type
REMARK                         _______ _______ _______ _____ _____    ______ ____
ROOT
ATOM      1  C   UNL     1       2.617   7.908  18.093  0.00  0.00    +0.000 A 
ATOM      2  N   UNL     1       2.492   8.993  17.313  0.00  0.00    +0.000 NA
ATOM      3  O   UNL     1       1.572   9.786  17.994  0.00  0.00    +0.000 OA
ATOM      4  C   UNL     1       1.235   9.096  19.115  0.00  0.00    +0.000 A 
ATOM      5  N   UNL     1       1.841   7.938  19.231  0.00  0.00    +0.000 NA
ENDROOT
BRANCH   1   9
ATOM      6  C   UNL     1       6.607   5.085  17.089  0.00  0.00    +0.000 C 
ATOM      7  N   UNL     1       5.242   5.485  17.358  0.00  0.00    +0.000 N 
ATOM      8  C   UNL     1       4.818   6.778  17.522  0.00  0.00    +0.000 A 
ATOM      9  C   UNL     1       3.469   6.752  17.819  0.00  0.00    +0.000 A 
ATOM     10  C   UNL     1       3.054   5.385  17.816  0.00  0.00    +0.000 A 
ATOM     11  C   UNL     1       1.831   4.714  18.044  0.00  0.00    +0.000 A 
ATOM     12  C   UNL     1       1.771   3.319  17.957  0.00  0.00    +0.000 A 
ATOM     13  C   UNL     1       2.906   2.582  17.644  0.00  0.00    +0.000 A 
ATOM     14  C   UNL     1       4.132   3.213  17.416  0.00  0.00    +0.000 A 
ATOM     15  C   UNL     1       4.184   4.613  17.512  0.00  0.00    +0.000 A 
ENDBRANCH   1   9
BRANCH   4  16
ATOM     16  C   UNL     1       0.233   9.706  20.027  0.00  0.00    +0.000 C 
ATOM     17  C   UNL     1      -0.394  10.937  19.368  0.00  0.00    +0.000 C 
ATOM     18  C   UNL     1      -1.343  11.661  20.311  0.00  0.00    +0.000 C 
ATOM     19  N   UNL     1      -0.652  12.040  21.624  0.00  0.00    +0.000 N 
ATOM     20  C   UNL     1      -1.713  12.609  22.579  0.00  0.00    +0.000 C 
ATOM     21  C   UNL     1       0.392  13.140  21.404  0.00  0.00    +0.000 C 
ATOM     22  C   UNL     1      -0.033  10.807  22.286  0.00  0.00    +0.000 C 
ATOM     23  C   UNL     1       0.914  10.084  21.344  0.00  0.00    +0.000 C 
ENDBRANCH   4  16
TORSDOF 2
ENDMDL
MODEL 7
REMARK VINA RESULT:      -7.5      1.700      7.982
REMARK  Name = 
REMARK  5 active torsions:
REMARK  status: ('A' for Active; 'I' for Inactive)
REMARK    1  A    between atoms: C_1  and  N_2
REMARK    2  A    between atoms: C_4  and  C_5
REMARK    3  A    between atoms: C_8  and  C_9
REMARK    4  A    between atoms: N_12  and  C_13
REMARK    5  A    between atoms: N_12  and  C_14
REMARK                            x       y       z     vdW  Elec       q    Type
REMARK                         _______ _______ _______ _____ _____    ______ ____
ROOT
ATOM      1  C   UNL     1       2.230   7.601  19.090  0.00  0.00    +0.000 A 
ATOM      2  N   UNL     1       1.923   7.522  20.394  0.00  0.00    +0.000 NA
ATOM      3  O   UNL     1       1.251   8.714  20.648  0.00  0.00    +0.000 OA
ATOM      4  C   UNL     1       1.224   9.392  19.471  0.00  0.00    +0.000 A 
ATOM      5  N   UNL     1       1.808   8.762  18.480  0.00  0.00    +0.000 NA
ENDROOT
BRANCH   1   9
ATOM      6  C   UNL     1       5.634   5.394  16.184  0.00  0.00    +0.000 C 
ATOM      7  N   UNL     1       4.465   5.603  17.013  0.00  0.00    +0.000 N 
ATOM      8  C   UNL     1       4.083   6.806  17.546  0.00  0.00    +0.000 A 
ATOM      9  C   UNL     1       2.958   6.593  18.320  0.00  0.00    +0.000 A 
ATOM     10  C   UNL     1       2.636   5.204  18.237  0.00  0.00    +0.000 A 
ATOM     11  C   UNL     1       1.629   4.380  18.789  0.00  0.00    +0.000 A 
ATOM     12  C   UNL     1       1.601   3.014  18.492  0.00  0.00    +0.000 A 
ATOM     13  C   UNL     1       2.555   2.455  17.651  0.00  0.00    +0.000 A 
ATOM     14  C   UNL     1       3.567   3.240  17.091  0.00  0.00    +0.000 A 
ATOM     15  C   UNL     1       3.591   4.610  17.401  0.00  0.00    +0.000 A 
ENDBRANCH   1   9
BRANCH   4  16
ATOM     16  C   UNL     1       0.580  10.730  19.458  0.00  0.00    +0.000 C 
ATOM     17  C   UNL     1       1.010  11.531  20.689  0.00  0.00    +0.000 C 
ATOM     18  C   UNL     1       0.286  12.865  20.778  0.00  0.00    +0.000 C 
ATOM     19  N   UNL     1      -1.234  12.684  20.752  0.00  0.00    +0.000 N 
ATOM     20  C   UNL     1      -1.883  14.075  20.673  0.00  0.00    +0.000 C 
ATOM     21  C   UNL     1      -1.737  12.025  22.041  0.00  0.00    +0.000 C 
ATOM     22  C   UNL     1      -1.664  11.891  19.516  0.00  0.00    +0.000 C 
ATOM     23  C   UNL     1      -0.941  10.559  19.427  0.00  0.00    +0.000 C 
ENDBRANCH   4  16
TORSDOF 2
ENDMDL
MODEL 8
REMARK VINA RESULT:      -7.5      1.430      7.992
REMARK  Name = 
REMARK  5 active torsions:
REMARK  status: ('A' for Active; 'I' for Inactive)
REMARK    1  A    between atoms: C_1  and  N_2
REMARK    2  A    between atoms: C_4  and  C_5
REMARK    3  A    between atoms: C_8  and  C_9
REMARK    4  A    between atoms: N_12  and  C_13
REMARK    5  A    between atoms: N_12  and  C_14
REMARK                            x       y       z     vdW  Elec       q    Type
REMARK                         _______ _______ _______ _____ _____    ______ ____
ROOT
ATOM      1  C   UNL     1       2.333   7.836  18.587  0.00  0.00    +0.000 A 
ATOM      2  N   UNL     1       2.207   8.570  17.472  0.00  0.00    +0.000 NA
ATOM      3  O   UNL     1       1.407   9.639  17.867  0.00  0.00    +0.000 OA
ATOM      4  C   UNL     1       1.131   9.437  19.182  0.00  0.00    +0.000 A 
ATOM      5  N   UNL     1       1.669   8.350  19.680  0.00  0.00    +0.000 NA
ENDROOT
BRANCH   1   9
ATOM      6  C   UNL     1       5.884   4.364  18.108  0.00  0.00    +0.000 C 
ATOM      7  N   UNL     1       4.653   5.024  18.488  0.00  0.00    +0.000 N 
ATOM      8  C   UNL     1       4.284   6.285  18.099  0.00  0.00    +0.000 A 
ATOM      9  C   UNL     1       3.079   6.584  18.708  0.00  0.00    +0.000 A 
ATOM     10  C   UNL     1       2.695   5.448  19.483  0.00  0.00    +0.000 A 
ATOM     11  C   UNL     1       1.598   5.136  20.319  0.00  0.00    +0.000 A 
ATOM     12  C   UNL     1       1.529   3.889  20.947  0.00  0.00    +0.000 A 
ATOM     13  C   UNL     1       2.531   2.946  20.756  0.00  0.00    +0.000 A 
ATOM     14  C   UNL     1       3.631   3.222  19.939  0.00  0.00    +0.000 A 
ATOM     15  C   UNL     1       3.695   4.480  19.317  0.00  0.00    +0.000 A 
ENDBRANCH   1   9
BRANCH   4  16
ATOM     16  C   UNL     1       0.259  10.428  19.865  0.00  0.00    +0.000 C 
ATOM     17  C   UNL     1      -0.872  10.863  18.931  0.00  0.00    +0.000 C 
ATOM     18  C   UNL     1      -1.723  11.963  19.547  0.00  0.00    +0.000 C 
ATOM     19  N   UNL     1      -0.874  13.165  19.967  0.00  0.00    +0.000 N 
ATOM     20  C   UNL     1      -1.775  14.149  20.728  0.00  0.00    +0.000 C 
ATOM     21  C   UNL     1      -0.324  13.910  18.745  0.00  0.00    +0.000 C 
ATOM     22  C   UNL     1       0.252  12.730  20.908  0.00  0.00    +0.000 C 
ATOM     23  C   UNL     1       1.101  11.632  20.293  0.00  0.00    +0.000 C 
ENDBRANCH   4  16
TORSDOF 2
ENDMDL
MODEL 9
REMARK VINA RESULT:      -7.4      1.748      8.034
REMARK  Name = 
REMARK  5 active torsions:
REMARK  status: ('A' for Active; 'I' for Inactive)
REMARK    1  A    between atoms: C_1  and  N_2
REMARK    2  A    between atoms: C_4  and  C_5
REMARK    3  A    between atoms: C_8  and  C_9
REMARK    4  A    between atoms: N_12  and  C_13
REMARK    5  A    between atoms: N_12  and  C_14
REMARK                            x       y       z     vdW  Elec       q    Type
REMARK                         _______ _______ _______ _____ _____    ______ ____
ROOT
ATOM      1  C   UNL     1       2.255   6.299  19.657  0.00  0.00    +0.000 A 
ATOM      2  N   UNL     1       1.688   6.143  20.862  0.00  0.00    +0.000 NA
ATOM      3  O   UNL     1       1.212   7.414  21.172  0.00  0.00    +0.000 OA
ATOM      4  C   UNL     1       1.544   8.208  20.121  0.00  0.00    +0.000 A 
ATOM      5  N   UNL     1       2.184   7.583  19.162  0.00  0.00    +0.000 NA
ENDROOT
BRANCH   1   9
ATOM      6  C   UNL     1       3.671   1.826  17.959  0.00  0.00    +0.000 C 
ATOM      7  N   UNL     1       3.568   3.260  18.126  0.00  0.00    +0.000 N 
ATOM      8  C   UNL     1       2.805   3.889  19.075  0.00  0.00    +0.000 A 
ATOM      9  C   UNL     1       2.920   5.253  18.882  0.00  0.00    +0.000 A 
ATOM     10  C   UNL     1       3.807   5.458  17.780  0.00  0.00    +0.000 A 
ATOM     11  C   UNL     1       4.313   6.592  17.106  0.00  0.00    +0.000 A 
ATOM     12  C   UNL     1       5.192   6.433  16.031  0.00  0.00    +0.000 A 
ATOM     13  C   UNL     1       5.579   5.164  15.617  0.00  0.00    +0.000 A 
ATOM     14  C   UNL     1       5.095   4.021  16.259  0.00  0.00    +0.000 A 
ATOM     15  C   UNL     1       4.207   4.191  17.334  0.00  0.00    +0.000 A 
ENDBRANCH   1   9
BRANCH   4  16
ATOM     16  C   UNL     1       1.175   9.645  20.196  0.00  0.00    +0.000 C 
ATOM     17  C   UNL     1      -0.164   9.805  20.921  0.00  0.00    +0.000 C 
ATOM     18  C   UNL     1      -0.638  11.250  20.921  0.00  0.00    +0.000 C 
ATOM     19  N   UNL     1      -0.718  11.818  19.502  0.00  0.00    +0.000 N 
ATOM     20  C   UNL     1      -1.036  13.318  19.600  0.00  0.00    +0.000 C 
ATOM     21  C   UNL     1      -1.856  11.167  18.707  0.00  0.00    +0.000 C 
ATOM     22  C   UNL     1       0.624  11.666  18.781  0.00  0.00    +0.000 C 
ATOM     23  C   UNL     1       1.097  10.223  18.781  0.00  0.00    +0.000 C 
ENDBRANCH   4  16
TORSDOF 2
ENDMDL
