MODEL 1
REMARK VINA RESULT:      -7.8      0.000      0.000
REMARK  Name = 
REMARK  8 active torsions:
REMARK  status: ('A' for Active; 'I' for Inactive)
REMARK    1  A    between atoms: C_4  and  O_5
REMARK    2  A    between atoms: O_5  and  C_6
REMARK    3  A    between atoms: C_6  and  C_7
REMARK    4  A    between atoms: C_7  and  N_8
REMARK    5  A    between atoms: N_8  and  C_9
REMARK    6  A    between atoms: N_8  and  C_19
REMARK    7  A    between atoms: C_9  and  C_10
REMARK    8  A    between atoms: C_19  and  C_20
REMARK                            x       y       z     vdW  Elec       q    Type
REMARK                         _______ _______ _______ _____ _____    ______ ____
ROOT
ATOM      1  N   UNL     1       3.695   5.665  18.145  0.00  0.00    +0.000 NA
ENDROOT
BRANCH   1   2
ATOM      2  C   UNL     1       3.286   4.497  17.330  0.00  0.00    +0.000 C 
BRANCH   2   3
ATOM      3  C   UNL     1       4.124   3.219  17.480  0.00  0.00    +0.000 C 
BRANCH   3   4
ATOM      4  O   UNL     1       3.275   2.143  17.888  0.00  0.00    +0.000 OA
BRANCH   4   8
ATOM      5  C   UNL     1       1.382   2.953  21.507  0.00  0.00    +0.000 A 
ATOM      6  C   UNL     1       2.757   2.728  21.432  0.00  0.00    +0.000 A 
ATOM      7  C   UNL     1       3.349   2.439  20.207  0.00  0.00    +0.000 A 
ATOM      8  C   UNL     1       2.576   2.370  19.043  0.00  0.00    +0.000 A 
ATOM      9  C   UNL     1       1.205   2.586  19.124  0.00  0.00    +0.000 A 
ATOM     10  C   UNL     1       0.605   2.885  20.356  0.00  0.00    +0.000 A 
ENDBRANCH   4   8
ENDBRANCH   3   4
ENDBRANCH   2   3
ENDBRANCH   1   2
BRANCH   1  11
ATOM     11  C   UNL     1       2.680   5.979  19.190  0.00  0.00    +0.000 C 
BRANCH  11  12
ATOM     12  C   UNL     1       2.209   7.425  19.183  0.00  0.00    +0.000 A 
ATOM     13  C   UNL     1       2.258   8.173  18.001  0.00  0.00    +0.000 A 
ATOM     14  C   UNL     1       1.693   9.451  17.918  0.00  0.00    +0.000 A 
ATOM     15  C   UNL     1       1.020   9.935  19.044  0.00  0.00    +0.000 A 
ATOM     16  N   UNL     1       0.281  11.086  19.216  0.00  0.00    +0.000 N 
ATOM     17  C   UNL     1      -0.283  11.104  20.463  0.00  0.00    +0.000 A 
ATOM     18  C   UNL     1       0.170   9.997  21.145  0.00  0.00    +0.000 A 
ATOM     19  C   UNL     1       0.976   9.238  20.251  0.00  0.00    +0.000 A 
ATOM     20  C   UNL     1       1.630   7.993  20.337  0.00  0.00    +0.000 A 
ATOM     21  H   UNL     1       0.125  11.776  18.494  0.00  0.00    +0.000 HD
ENDBRANCH  11  12
ENDBRANCH   1  11
BRANCH   1  22
ATOM     22  C   UNL     1       5.020   5.482  18.785  0.00  0.00    +0.000 C 
BRANCH  22  23
ATOM     23  C   UNL     1       6.275   6.150  18.153  0.00  0.00    +0.000 C 
ATOM     24  C   UNL     1       7.595   5.420  18.362  0.00  0.00    +0.000 C 
ATOM     25  C   UNL     1       7.639   4.479  17.184  0.00  0.00    +0.000 C 
ATOM     26  C   UNL     1       7.060   5.347  16.092  0.00  0.00    +0.000 C 
ATOM     27  O   UNL     1       6.072   6.177  16.714  0.00  0.00    +0.000 OA
ENDBRANCH  22  23
ENDBRANCH   1  22
TORSDOF 8
ENDMDL
MODEL 2
REMARK VINA RESULT:      -7.7      1.893      5.289
REMARK  Name = 
REMARK  8 active torsions:
REMARK  status: ('A' for Active; 'I' for Inactive)
REMARK    1  A    between atoms: C_4  and  O_5
REMARK    2  A    between atoms: O_5  and  C_6
REMARK    3  A    between atoms: C_6  and  C_7
REMARK    4  A    between atoms: C_7  and  N_8
REMARK    5  A    between atoms: N_8  and  C_9
REMARK    6  A    between atoms: N_8  and  C_19
REMARK    7  A    between atoms: C_9  and  C_10
REMARK    8  A    between atoms: C_19  and  C_20
REMARK                            x       y       z     vdW  Elec       q    Type
REMARK                         _______ _______ _______ _____ _____    ______ ____
ROOT
ATOM      1  N   UNL     1       4.764   5.705  17.980  0.00  0.00    +0.000 NA
ENDROOT
BRANCH   1   2
ATOM      2  C   UNL     1       6.214   5.879  17.738  0.00  0.00    +0.000 C 
BRANCH   2   3
ATOM      3  C   UNL     1       6.869   4.928  16.726  0.00  0.00    +0.000 C 
BRANCH   3   4
ATOM      4  O   UNL     1       7.188   5.652  15.535  0.00  0.00    +0.000 OA
BRANCH   4   8
ATOM      5  C   UNL     1       6.237   3.576  12.053  0.00  0.00    +0.000 A 
ATOM      6  C   UNL     1       5.453   3.478  13.203  0.00  0.00    +0.000 A 
ATOM      7  C   UNL     1       5.816   4.170  14.354  0.00  0.00    +0.000 A 
ATOM      8  C   UNL     1       6.966   4.968  14.370  0.00  0.00    +0.000 A 
ATOM      9  C   UNL     1       7.749   5.054  13.225  0.00  0.00    +0.000 A 
ATOM     10  C   UNL     1       7.383   4.364  12.061  0.00  0.00    +0.000 A 
ENDBRANCH   4   8
ENDBRANCH   3   4
ENDBRANCH   2   3
ENDBRANCH   1   2
BRANCH   1  11
ATOM     11  C   UNL     1       3.968   6.761  17.291  0.00  0.00    +0.000 C 
BRANCH  11  12
ATOM     12  C   UNL     1       2.908   7.409  18.168  0.00  0.00    +0.000 A 
ATOM     13  C   UNL     1       2.674   6.926  19.461  0.00  0.00    +0.000 A 
ATOM     14  C   UNL     1       1.820   7.589  20.349  0.00  0.00    +0.000 A 
ATOM     15  C   UNL     1       1.252   8.793  19.923  0.00  0.00    +0.000 A 
ATOM     16  N   UNL     1       0.479   9.708  20.606  0.00  0.00    +0.000 N 
ATOM     17  C   UNL     1       0.225  10.797  19.817  0.00  0.00    +0.000 A 
ATOM     18  C   UNL     1       0.759  10.547  18.573  0.00  0.00    +0.000 A 
ATOM     19  C   UNL     1       1.431   9.294  18.633  0.00  0.00    +0.000 A 
ATOM     20  C   UNL     1       2.222   8.560  17.726  0.00  0.00    +0.000 A 
ATOM     21  H   UNL     1       0.206   9.612  21.574  0.00  0.00    +0.000 HD
ENDBRANCH  11  12
ENDBRANCH   1  11
BRANCH   1  22
ATOM     22  C   UNL     1       4.269   4.370  17.567  0.00  0.00    +0.000 C 
BRANCH  22  23
ATOM     23  C   UNL     1       4.180   3.227  18.619  0.00  0.00    +0.000 C 
ATOM     24  C   UNL     1       3.377   3.537  19.875  0.00  0.00    +0.000 C 
ATOM     25  C   UNL     1       1.980   3.130  19.479  0.00  0.00    +0.000 C 
ATOM     26  C   UNL     1       2.253   1.887  18.666  0.00  0.00    +0.000 C 
ATOM     27  O   UNL     1       3.496   2.111  17.988  0.00  0.00    +0.000 OA
ENDBRANCH  22  23
ENDBRANCH   1  22
TORSDOF 8
ENDMDL
MODEL 3
REMARK VINA RESULT:      -7.7      1.494      2.608
REMARK  Name = 
REMARK  8 active torsions:
REMARK  status: ('A' for Active; 'I' for Inactive)
REMARK    1  A    between atoms: C_4  and  O_5
REMARK    2  A    between atoms: O_5  and  C_6
REMARK    3  A    between atoms: C_6  and  C_7
REMARK    4  A    between atoms: C_7  and  N_8
REMARK    5  A    between atoms: N_8  and  C_9
REMARK    6  A    between atoms: N_8  and  C_19
REMARK    7  A    between atoms: C_9  and  C_10
REMARK    8  A    between atoms: C_19  and  C_20
REMARK                            x       y       z     vdW  Elec       q    Type
REMARK                         _______ _______ _______ _____ _____    ______ ____
ROOT
ATOM      1  N   UNL     1       4.477   5.270  16.464  0.00  0.00    +0.000 NA
ENDROOT
BRANCH   1   2
ATOM      2  C   UNL     1       4.340   3.796  16.481  0.00  0.00    +0.000 C 
BRANCH   2   3
ATOM      3  C   UNL     1       4.765   3.073  17.767  0.00  0.00    +0.000 C 
BRANCH   3   4
ATOM      4  O   UNL     1       3.757   2.128  18.133  0.00  0.00    +0.000 OA
BRANCH   4   8
ATOM      5  C   UNL     1       1.141   3.177  21.198  0.00  0.00    +0.000 A 
ATOM      6  C   UNL     1       0.728   3.123  19.866  0.00  0.00    +0.000 A 
ATOM      7  C   UNL     1       1.638   2.790  18.868  0.00  0.00    +0.000 A 
ATOM      8  C   UNL     1       2.970   2.506  19.187  0.00  0.00    +0.000 A 
ATOM      9  C   UNL     1       3.380   2.571  20.514  0.00  0.00    +0.000 A 
ATOM     10  C   UNL     1       2.465   2.899  21.524  0.00  0.00    +0.000 A 
ENDBRANCH   4   8
ENDBRANCH   3   4
ENDBRANCH   2   3
ENDBRANCH   1   2
BRANCH   1  11
ATOM     11  C   UNL     1       4.699   5.810  17.837  0.00  0.00    +0.000 C 
BRANCH  11  12
ATOM     12  C   UNL     1       3.523   6.599  18.390  0.00  0.00    +0.000 A 
ATOM     13  C   UNL     1       2.961   6.249  19.624  0.00  0.00    +0.000 A 
ATOM     14  C   UNL     1       1.984   7.041  20.236  0.00  0.00    +0.000 A 
ATOM     15  C   UNL     1       1.628   8.235  19.602  0.00  0.00    +0.000 A 
ATOM     16  N   UNL     1       0.797   9.253  20.016  0.00  0.00    +0.000 N 
ATOM     17  C   UNL     1       0.820  10.281  19.112  0.00  0.00    +0.000 A 
ATOM     18  C   UNL     1       1.601   9.887  18.049  0.00  0.00    +0.000 A 
ATOM     19  C   UNL     1       2.137   8.605  18.357  0.00  0.00    +0.000 A 
ATOM     20  C   UNL     1       3.053   7.746  17.717  0.00  0.00    +0.000 A 
ATOM     21  H   UNL     1       0.302   9.262  20.897  0.00  0.00    +0.000 HD
ENDBRANCH  11  12
ENDBRANCH   1  11
BRANCH   1  22
ATOM     22  C   UNL     1       5.566   5.736  15.572  0.00  0.00    +0.000 C 
BRANCH  22  23
ATOM     23  C   UNL     1       6.684   4.743  15.145  0.00  0.00    +0.000 C 
ATOM     24  C   UNL     1       6.300   3.721  14.084  0.00  0.00    +0.000 C 
ATOM     25  C   UNL     1       6.611   4.449  12.800  0.00  0.00    +0.000 C 
ATOM     26  C   UNL     1       7.882   5.175  13.173  0.00  0.00    +0.000 C 
ATOM     27  O   UNL     1       7.757   5.527  14.556  0.00  0.00    +0.000 OA
ENDBRANCH  22  23
ENDBRANCH   1  22
TORSDOF 8
ENDMDL
MODEL 4
REMARK VINA RESULT:      -7.6      3.883      7.802
REMARK  Name = 
REMARK  8 active torsions:
REMARK  status: ('A' for Active; 'I' for Inactive)
REMARK    1  A    between atoms: C_4  and  O_5
REMARK    2  A    between atoms: O_5  and  C_6
REMARK    3  A    between atoms: C_6  and  C_7
REMARK    4  A    between atoms: C_7  and  N_8
REMARK    5  A    between atoms: N_8  and  C_9
REMARK    6  A    between atoms: N_8  and  C_19
REMARK    7  A    between atoms: C_9  and  C_10
REMARK    8  A    between atoms: C_19  and  C_20
REMARK                            x       y       z     vdW  Elec       q    Type
REMARK                         _______ _______ _______ _____ _____    ______ ____
ROOT
ATOM      1  N   UNL     1       7.397   6.438  17.586  0.00  0.00    +0.000 NA
ENDROOT
BRANCH   1   2
ATOM      2  C   UNL     1       7.549   7.909  17.507  0.00  0.00    +0.000 C 
BRANCH   2   3
ATOM      3  C   UNL     1       8.545   8.557  18.479  0.00  0.00    +0.000 C 
BRANCH   3   4
ATOM      4  O   UNL     1       8.376   9.977  18.452  0.00  0.00    +0.000 OA
BRANCH   4   8
ATOM      5  C   UNL     1      11.602  12.267  19.751  0.00  0.00    +0.000 A 
ATOM      6  C   UNL     1      11.474  11.868  18.420  0.00  0.00    +0.000 A 
ATOM      7  C   UNL     1      10.393  11.084  18.030  0.00  0.00    +0.000 A 
ATOM      8  C   UNL     1       9.428  10.690  18.962  0.00  0.00    +0.000 A 
ATOM      9  C   UNL     1       9.565  11.082  20.289  0.00  0.00    +0.000 A 
ATOM     10  C   UNL     1      10.649  11.877  20.686  0.00  0.00    +0.000 A 
ENDBRANCH   4   8
ENDBRANCH   3   4
ENDBRANCH   2   3
ENDBRANCH   1   2
BRANCH   1  11
ATOM     11  C   UNL     1       6.782   6.025  18.881  0.00  0.00    +0.000 C 
BRANCH  11  12
ATOM     12  C   UNL     1       5.393   5.421  18.742  0.00  0.00    +0.000 A 
ATOM     13  C   UNL     1       4.308   6.230  18.384  0.00  0.00    +0.000 A 
ATOM     14  C   UNL     1       3.051   5.686  18.097  0.00  0.00    +0.000 A 
ATOM     15  C   UNL     1       2.928   4.293  18.120  0.00  0.00    +0.000 A 
ATOM     16  N   UNL     1       1.867   3.485  17.776  0.00  0.00    +0.000 N 
ATOM     17  C   UNL     1       2.227   2.167  17.861  0.00  0.00    +0.000 A 
ATOM     18  C   UNL     1       3.510   2.115  18.358  0.00  0.00    +0.000 A 
ATOM     19  C   UNL     1       3.973   3.453  18.504  0.00  0.00    +0.000 A 
ATOM     20  C   UNL     1       5.203   4.030  18.876  0.00  0.00    +0.000 A 
ATOM     21  H   UNL     1       0.977   3.826  17.440  0.00  0.00    +0.000 HD
ENDBRANCH  11  12
ENDBRANCH   1  11
BRANCH   1  22
ATOM     22  C   UNL     1       6.602   5.882  16.466  0.00  0.00    +0.000 C 
BRANCH  22  23
ATOM     23  C   UNL     1       7.147   4.660  15.671  0.00  0.00    +0.000 C 
ATOM     24  C   UNL     1       6.118   3.612  15.270  0.00  0.00    +0.000 C 
ATOM     25  C   UNL     1       5.634   4.121  13.936  0.00  0.00    +0.000 C 
ATOM     26  C   UNL     1       6.919   4.642  13.335  0.00  0.00    +0.000 C 
ATOM     27  O   UNL     1       7.692   5.165  14.422  0.00  0.00    +0.000 OA
ENDBRANCH  22  23
ENDBRANCH   1  22
TORSDOF 8
ENDMDL
MODEL 5
REMARK VINA RESULT:      -7.6      2.273      7.036
REMARK  Name = 
REMARK  8 active torsions:
REMARK  status: ('A' for Active; 'I' for Inactive)
REMARK    1  A    between atoms: C_4  and  O_5
REMARK    2  A    between atoms: O_5  and  C_6
REMARK    3  A    between atoms: C_6  and  C_7
REMARK    4  A    between atoms: C_7  and  N_8
REMARK    5  A    between atoms: N_8  and  C_9
REMARK    6  A    between atoms: N_8  and  C_19
REMARK    7  A    between atoms: C_9  and  C_10
REMARK    8  A    between atoms: C_19  and  C_20
REMARK                            x       y       z     vdW  Elec       q    Type
REMARK                         _______ _______ _______ _____ _____    ______ ____
ROOT
ATOM      1  N   UNL     1       2.742   5.610  19.418  0.00  0.00    +0.000 NA
ENDROOT
BRANCH   1   2
ATOM      2  C   UNL     1       2.423   7.036  19.656  0.00  0.00    +0.000 C 
BRANCH   2   3
ATOM      3  C   UNL     1       1.334   7.340  20.695  0.00  0.00    +0.000 C 
BRANCH   3   4
ATOM      4  O   UNL     1       1.730   8.469  21.478  0.00  0.00    +0.000 OA
BRANCH   4   8
ATOM      5  C   UNL     1      -1.151  11.384  22.211  0.00  0.00    +0.000 A 
ATOM      6  C   UNL     1      -0.848  10.398  23.151  0.00  0.00    +0.000 A 
ATOM      7  C   UNL     1       0.105   9.428  22.860  0.00  0.00    +0.000 A 
ATOM      8  C   UNL     1       0.768   9.430  21.628  0.00  0.00    +0.000 A 
ATOM      9  C   UNL     1       0.456  10.408  20.691  0.00  0.00    +0.000 A 
ATOM     10  C   UNL     1      -0.499  11.392  20.982  0.00  0.00    +0.000 A 
ENDBRANCH   4   8
ENDBRANCH   3   4
ENDBRANCH   2   3
ENDBRANCH   1   2
BRANCH   1  11
ATOM     11  C   UNL     1       4.150   5.298  19.800  0.00  0.00    +0.000 C 
BRANCH  11  12
ATOM     12  C   UNL     1       5.135   5.365  18.644  0.00  0.00    +0.000 A 
ATOM     13  C   UNL     1       6.512   5.316  18.892  0.00  0.00    +0.000 A 
ATOM     14  C   UNL     1       7.442   5.220  17.850  0.00  0.00    +0.000 A 
ATOM     15  C   UNL     1       6.945   5.112  16.548  0.00  0.00    +0.000 A 
ATOM     16  N   UNL     1       7.603   4.892  15.357  0.00  0.00    +0.000 N 
ATOM     17  C   UNL     1       6.701   4.760  14.336  0.00  0.00    +0.000 A 
ATOM     18  C   UNL     1       5.446   4.990  14.852  0.00  0.00    +0.000 A 
ATOM     19  C   UNL     1       5.585   5.190  16.254  0.00  0.00    +0.000 A 
ATOM     20  C   UNL     1       4.673   5.379  17.312  0.00  0.00    +0.000 A 
ATOM     21  H   UNL     1       8.603   4.775  15.272  0.00  0.00    +0.000 HD
ENDBRANCH  11  12
ENDBRANCH   1  11
BRANCH   1  22
ATOM     22  C   UNL     1       1.825   4.689  20.131  0.00  0.00    +0.000 C 
BRANCH  22  23
ATOM     23  C   UNL     1       1.159   3.517  19.355  0.00  0.00    +0.000 C 
ATOM     24  C   UNL     1       1.239   3.592  17.836  0.00  0.00    +0.000 C 
ATOM     25  C   UNL     1       2.545   2.898  17.542  0.00  0.00    +0.000 C 
ATOM     26  C   UNL     1       2.520   1.779  18.556  0.00  0.00    +0.000 C 
ATOM     27  O   UNL     1       1.866   2.300  19.720  0.00  0.00    +0.000 OA
ENDBRANCH  22  23
ENDBRANCH   1  22
TORSDOF 8
ENDMDL
MODEL 6
REMARK VINA RESULT:      -7.6      2.118      6.804
REMARK  Name = 
REMARK  8 active torsions:
REMARK  status: ('A' for Active; 'I' for Inactive)
REMARK    1  A    between atoms: C_4  and  O_5
REMARK    2  A    between atoms: O_5  and  C_6
REMARK    3  A    between atoms: C_6  and  C_7
REMARK    4  A    between atoms: C_7  and  N_8
REMARK    5  A    between atoms: N_8  and  C_9
REMARK    6  A    between atoms: N_8  and  C_19
REMARK    7  A    between atoms: C_9  and  C_10
REMARK    8  A    between atoms: C_19  and  C_20
REMARK                            x       y       z     vdW  Elec       q    Type
REMARK                         _______ _______ _______ _____ _____    ______ ____
ROOT
ATOM      1  N   UNL     1       2.752   5.181  19.058  0.00  0.00    +0.000 NA
ENDROOT
BRANCH   1   2
ATOM      2  C   UNL     1       1.922   6.367  18.746  0.00  0.00    +0.000 C 
BRANCH   2   3
ATOM      3  C   UNL     1       2.217   7.649  19.538  0.00  0.00    +0.000 C 
BRANCH   3   4
ATOM      4  O   UNL     1       1.551   7.588  20.801  0.00  0.00    +0.000 OA
BRANCH   4   8
ATOM      5  C   UNL     1      -0.695  11.016  21.540  0.00  0.00    +0.000 A 
ATOM      6  C   UNL     1      -0.162  10.745  20.278  0.00  0.00    +0.000 A 
ATOM      7  C   UNL     1       0.601   9.600  20.077  0.00  0.00    +0.000 A 
ATOM      8  C   UNL     1       0.842   8.712  21.131  0.00  0.00    +0.000 A 
ATOM      9  C   UNL     1       0.318   8.991  22.388  0.00  0.00    +0.000 A 
ATOM     10  C   UNL     1      -0.458  10.141  22.594  0.00  0.00    +0.000 A 
ENDBRANCH   4   8
ENDBRANCH   3   4
ENDBRANCH   2   3
ENDBRANCH   1   2
BRANCH   1  11
ATOM     11  C   UNL     1       4.164   5.567  19.343  0.00  0.00    +0.000 C 
BRANCH  11  12
ATOM     12  C   UNL     1       5.044   5.657  18.106  0.00  0.00    +0.000 A 
ATOM     13  C   UNL     1       6.325   6.215  18.194  0.00  0.00    +0.000 A 
ATOM     14  C   UNL     1       7.219   6.174  17.118  0.00  0.00    +0.000 A 
ATOM     15  C   UNL     1       6.811   5.499  15.964  0.00  0.00    +0.000 A 
ATOM     16  N   UNL     1       7.505   5.202  14.811  0.00  0.00    +0.000 N 
ATOM     17  C   UNL     1       6.735   4.435  13.979  0.00  0.00    +0.000 A 
ATOM     18  C   UNL     1       5.491   4.310  14.555  0.00  0.00    +0.000 A 
ATOM     19  C   UNL     1       5.534   4.959  15.821  0.00  0.00    +0.000 A 
ATOM     20  C   UNL     1       4.619   5.092  16.885  0.00  0.00    +0.000 A 
ATOM     21  H   UNL     1       8.469   5.457  14.645  0.00  0.00    +0.000 HD
ENDBRANCH  11  12
ENDBRANCH   1  11
BRANCH   1  22
ATOM     22  C   UNL     1       2.221   4.391  20.194  0.00  0.00    +0.000 C 
BRANCH  22  23
ATOM     23  C   UNL     1       2.047   2.852  20.043  0.00  0.00    +0.000 C 
ATOM     24  C   UNL     1       1.273   2.386  18.817  0.00  0.00    +0.000 C 
ATOM     25  C   UNL     1       2.357   2.253  17.777  0.00  0.00    +0.000 C 
ATOM     26  C   UNL     1       3.491   1.692  18.602  0.00  0.00    +0.000 C 
ATOM     27  O   UNL     1       3.375   2.279  19.904  0.00  0.00    +0.000 OA
ENDBRANCH  22  23
ENDBRANCH   1  22
TORSDOF 8
ENDMDL
MODEL 7
REMARK VINA RESULT:      -7.6      2.139      7.172
REMARK  Name = 
REMARK  8 active torsions:
REMARK  status: ('A' for Active; 'I' for Inactive)
REMARK    1  A    between atoms: C_4  and  O_5
REMARK    2  A    between atoms: O_5  and  C_6
REMARK    3  A    between atoms: C_6  and  C_7
REMARK    4  A    between atoms: C_7  and  N_8
REMARK    5  A    between atoms: N_8  and  C_9
REMARK    6  A    between atoms: N_8  and  C_19
REMARK    7  A    between atoms: C_9  and  C_10
REMARK    8  A    between atoms: C_19  and  C_20
REMARK                            x       y       z     vdW  Elec       q    Type
REMARK                         _______ _______ _______ _____ _____    ______ ____
ROOT
ATOM      1  N   UNL     1       2.802   5.875  19.198  0.00  0.00    +0.000 NA
ENDROOT
BRANCH   1   2
ATOM      2  C   UNL     1       2.441   7.308  19.306  0.00  0.00    +0.000 C 
BRANCH   2   3
ATOM      3  C   UNL     1       2.613   8.164  18.042  0.00  0.00    +0.000 C 
BRANCH   3   4
ATOM      4  O   UNL     1       1.351   8.729  17.680  0.00  0.00    +0.000 OA
BRANCH   4   8
ATOM      5  C   UNL     1       0.599  12.455  19.380  0.00  0.00    +0.000 A 
ATOM      6  C   UNL     1       1.785  12.187  18.695  0.00  0.00    +0.000 A 
ATOM      7  C   UNL     1       2.008  10.922  18.161  0.00  0.00    +0.000 A 
ATOM      8  C   UNL     1       1.051   9.911  18.303  0.00  0.00    +0.000 A 
ATOM      9  C   UNL     1      -0.124  10.181  18.994  0.00  0.00    +0.000 A 
ATOM     10  C   UNL     1      -0.357  11.456  19.529  0.00  0.00    +0.000 A 
ENDBRANCH   4   8
ENDBRANCH   3   4
ENDBRANCH   2   3
ENDBRANCH   1   2
BRANCH   1  11
ATOM     11  C   UNL     1       4.255   5.661  19.460  0.00  0.00    +0.000 C 
BRANCH  11  12
ATOM     12  C   UNL     1       5.123   5.713  18.213  0.00  0.00    +0.000 A 
ATOM     13  C   UNL     1       6.443   6.174  18.295  0.00  0.00    +0.000 A 
ATOM     14  C   UNL     1       7.318   6.093  17.206  0.00  0.00    +0.000 A 
ATOM     15  C   UNL     1       6.847   5.475  16.043  0.00  0.00    +0.000 A 
ATOM     16  N   UNL     1       7.504   5.153  14.875  0.00  0.00    +0.000 N 
ATOM     17  C   UNL     1       6.670   4.463  14.038  0.00  0.00    +0.000 A 
ATOM     18  C   UNL     1       5.427   4.417  14.628  0.00  0.00    +0.000 A 
ATOM     19  C   UNL     1       5.532   5.033  15.907  0.00  0.00    +0.000 A 
ATOM     20  C   UNL     1       4.643   5.208  16.986  0.00  0.00    +0.000 A 
ATOM     21  H   UNL     1       8.481   5.341  14.701  0.00  0.00    +0.000 HD
ENDBRANCH  11  12
ENDBRANCH   1  11
BRANCH   1  22
ATOM     22  C   UNL     1       2.008   5.013  20.105  0.00  0.00    +0.000 C 
BRANCH  22  23
ATOM     23  C   UNL     1       1.107   3.895  19.505  0.00  0.00    +0.000 C 
ATOM     24  C   UNL     1       1.293   3.612  18.021  0.00  0.00    +0.000 C 
ATOM     25  C   UNL     1       2.388   2.575  18.020  0.00  0.00    +0.000 C 
ATOM     26  C   UNL     1       2.011   1.747  19.226  0.00  0.00    +0.000 C 
ATOM     27  O   UNL     1       1.448   2.655  20.182  0.00  0.00    +0.000 OA
ENDBRANCH  22  23
ENDBRANCH   1  22
TORSDOF 8
ENDMDL
MODEL 8
REMARK VINA RESULT:      -7.5      1.486      4.761
REMARK  Name = 
REMARK  8 active torsions:
REMARK  status: ('A' for Active; 'I' for Inactive)
REMARK    1  A    between atoms: C_4  and  O_5
REMARK    2  A    between atoms: O_5  and  C_6
REMARK    3  A    between atoms: C_6  and  C_7
REMARK    4  A    between atoms: C_7  and  N_8
REMARK    5  A    between atoms: N_8  and  C_9
REMARK    6  A    between atoms: N_8  and  C_19
REMARK    7  A    between atoms: C_9  and  C_10
REMARK    8  A    between atoms: C_19  and  C_20
REMARK                            x       y       z     vdW  Elec       q    Type
REMARK                         _______ _______ _______ _____ _____    ______ ____
ROOT
ATOM      1  N   UNL     1       2.595   5.630  19.058  0.00  0.00    +0.000 NA
ENDROOT
BRANCH   1   2
ATOM      2  C   UNL     1       3.858   5.278  19.747  0.00  0.00    +0.000 C 
BRANCH   2   3
ATOM      3  C   UNL     1       5.155   5.435  18.941  0.00  0.00    +0.000 C 
BRANCH   3   4
ATOM      4  O   UNL     1       5.441   4.210  18.262  0.00  0.00    +0.000 OA
BRANCH   4   8
ATOM      5  C   UNL     1       6.619   4.726  14.302  0.00  0.00    +0.000 A 
ATOM      6  C   UNL     1       5.326   4.319  14.636  0.00  0.00    +0.000 A 
ATOM      7  C   UNL     1       4.978   4.137  15.971  0.00  0.00    +0.000 A 
ATOM      8  C   UNL     1       5.914   4.357  16.986  0.00  0.00    +0.000 A 
ATOM      9  C   UNL     1       7.203   4.753  16.648  0.00  0.00    +0.000 A 
ATOM     10  C   UNL     1       7.557   4.945  15.305  0.00  0.00    +0.000 A 
ENDBRANCH   4   8
ENDBRANCH   3   4
ENDBRANCH   2   3
ENDBRANCH   1   2
BRANCH   1  11
ATOM     11  C   UNL     1       2.750   6.869  18.242  0.00  0.00    +0.000 C 
BRANCH  11  12
ATOM     12  C   UNL     1       2.102   8.100  18.856  0.00  0.00    +0.000 A 
ATOM     13  C   UNL     1       1.787   9.202  18.052  0.00  0.00    +0.000 A 
ATOM     14  C   UNL     1       1.054  10.287  18.548  0.00  0.00    +0.000 A 
ATOM     15  C   UNL     1       0.590  10.206  19.864  0.00  0.00    +0.000 A 
ATOM     16  N   UNL     1      -0.237  11.050  20.573  0.00  0.00    +0.000 N 
ATOM     17  C   UNL     1      -0.507  10.523  21.807  0.00  0.00    +0.000 A 
ATOM     18  C   UNL     1       0.229   9.367  21.940  0.00  0.00    +0.000 A 
ATOM     19  C   UNL     1       0.909   9.143  20.709  0.00  0.00    +0.000 A 
ATOM     20  C   UNL     1       1.725   8.106  20.215  0.00  0.00    +0.000 A 
ATOM     21  H   UNL     1      -0.639  11.898  20.200  0.00  0.00    +0.000 HD
ENDBRANCH  11  12
ENDBRANCH   1  11
BRANCH   1  22
ATOM     22  C   UNL     1       2.086   4.536  18.197  0.00  0.00    +0.000 C 
BRANCH  22  23
ATOM     23  C   UNL     1       1.089   3.497  18.787  0.00  0.00    +0.000 C 
ATOM     24  C   UNL     1       1.631   2.088  18.983  0.00  0.00    +0.000 C 
ATOM     25  C   UNL     1       2.214   2.151  20.372  0.00  0.00    +0.000 C 
ATOM     26  C   UNL     1       1.195   3.011  21.081  0.00  0.00    +0.000 C 
ATOM     27  O   UNL     1       0.721   3.958  20.116  0.00  0.00    +0.000 OA
ENDBRANCH  22  23
ENDBRANCH   1  22
TORSDOF 8
ENDMDL
MODEL 9
REMARK VINA RESULT:      -7.5      3.848      7.585
REMARK  Name = 
REMARK  8 active torsions:
REMARK  status: ('A' for Active; 'I' for Inactive)
REMARK    1  A    between atoms: C_4  and  O_5
REMARK    2  A    between atoms: O_5  and  C_6
REMARK    3  A    between atoms: C_6  and  C_7
REMARK    4  A    between atoms: C_7  and  N_8
REMARK    5  A    between atoms: N_8  and  C_9
REMARK    6  A    between atoms: N_8  and  C_19
REMARK    7  A    between atoms: C_9  and  C_10
REMARK    8  A    between atoms: C_19  and  C_20
REMARK                            x       y       z     vdW  Elec       q    Type
REMARK                         _______ _______ _______ _____ _____    ______ ____
ROOT
ATOM      1  N   UNL     1       6.915   6.115  17.983  0.00  0.00    +0.000 NA
ENDROOT
BRANCH   1   2
ATOM      2  C   UNL     1       7.836   7.145  18.518  0.00  0.00    +0.000 C 
BRANCH   2   3
ATOM      3  C   UNL     1       8.199   8.305  17.580  0.00  0.00    +0.000 C 
BRANCH   3   4
ATOM      4  O   UNL     1       7.875   9.544  18.214  0.00  0.00    +0.000 OA
BRANCH   4   8
ATOM      5  C   UNL     1      11.136  11.849  19.395  0.00  0.00    +0.000 A 
ATOM      6  C   UNL     1      10.837  11.634  18.048  0.00  0.00    +0.000 A 
ATOM      7  C   UNL     1       9.752  10.840  17.694  0.00  0.00    +0.000 A 
ATOM      8  C   UNL     1       8.952  10.251  18.679  0.00  0.00    +0.000 A 
ATOM      9  C   UNL     1       9.258  10.460  20.018  0.00  0.00    +0.000 A 
ATOM     10  C   UNL     1      10.347  11.265  20.380  0.00  0.00    +0.000 A 
ENDBRANCH   4   8
ENDBRANCH   3   4
ENDBRANCH   2   3
ENDBRANCH   1   2
BRANCH   1  11
ATOM     11  C   UNL     1       5.529   6.306  18.501  0.00  0.00    +0.000 C 
BRANCH  11  12
ATOM     12  C   UNL     1       4.703   5.030  18.546  0.00  0.00    +0.000 A 
ATOM     13  C   UNL     1       5.208   3.889  19.181  0.00  0.00    +0.000 A 
ATOM     14  C   UNL     1       4.420   2.749  19.377  0.00  0.00    +0.000 A 
ATOM     15  C   UNL     1       3.084   2.809  18.972  0.00  0.00    +0.000 A 
ATOM     16  N   UNL     1       2.059   1.903  19.137  0.00  0.00    +0.000 N 
ATOM     17  C   UNL     1       0.885   2.424  18.664  0.00  0.00    +0.000 A 
ATOM     18  C   UNL     1       1.166   3.646  18.098  0.00  0.00    +0.000 A 
ATOM     19  C   UNL     1       2.549   3.912  18.306  0.00  0.00    +0.000 A 
ATOM     20  C   UNL     1       3.387   5.013  18.038  0.00  0.00    +0.000 A 
ATOM     21  H   UNL     1       2.155   1.014  19.608  0.00  0.00    +0.000 HD
ENDBRANCH  11  12
ENDBRANCH   1  11
BRANCH   1  22
ATOM     22  C   UNL     1       6.885   6.084  16.501  0.00  0.00    +0.000 C 
BRANCH  22  23
ATOM     23  C   UNL     1       7.245   4.767  15.755  0.00  0.00    +0.000 C 
ATOM     24  C   UNL     1       6.100   3.786  15.544  0.00  0.00    +0.000 C 
ATOM     25  C   UNL     1       5.518   4.241  14.229  0.00  0.00    +0.000 C 
ATOM     26  C   UNL     1       6.768   4.605  13.463  0.00  0.00    +0.000 C 
ATOM     27  O   UNL     1       7.692   5.134  14.422  0.00  0.00    +0.000 OA
ENDBRANCH  22  23
ENDBRANCH   1  22
TORSDOF 8
ENDMDL
