MODEL 1
REMARK VINA RESULT:      -7.1      0.000      0.000
REMARK  Name = 
REMARK  1 active torsions:
REMARK  status: ('A' for Active; 'I' for Inactive)
REMARK    1  A    between atoms: C_11  and  C_12
REMARK                            x       y       z     vdW  Elec       q    Type
REMARK                         _______ _______ _______ _____ _____    ______ ____
ROOT
ATOM      1 CL   UNL     1       8.144   5.382  12.938  0.00  0.00    +0.000 Cl
ATOM      2  C   UNL     1       7.069   5.000  14.228  0.00  0.00    +0.000 A 
ATOM      3  C   UNL     1       6.144   3.959  14.076  0.00  0.00    +0.000 A 
ATOM      4  C   UNL     1       5.262   3.638  15.116  0.00  0.00    +0.000 A 
ATOM      5  C   UNL     1       5.321   4.369  16.297  0.00  0.00    +0.000 A 
ATOM      6  C   UNL     1       6.248   5.405  16.436  0.00  0.00    +0.000 A 
ATOM      7  C   UNL     1       7.129   5.732  15.412  0.00  0.00    +0.000 A 
ATOM      8  C   UNL     1       6.173   6.069  17.773  0.00  0.00    +0.000 C 
ATOM      9  C   UNL     1       5.016   5.343  18.472  0.00  0.00    +0.000 C 
ATOM     10  C   UNL     1       4.531   4.263  17.526  0.00  0.00    +0.000 C 
ATOM     11  C   UNL     1       3.555   3.375  17.771  0.00  0.00    +0.000 C 
ENDROOT
BRANCH  11  12
ATOM     12  C   UNL     1       2.816   3.353  19.039  0.00  0.00    +0.000 A 
ATOM     13  C   UNL     1       3.326   2.671  20.143  0.00  0.00    +0.000 A 
ATOM     14  C   UNL     1       2.568   2.639  21.301  0.00  0.00    +0.000 A 
ATOM     15  N   UNL     1       1.361   3.232  21.429  0.00  0.00    +0.000 NA
ATOM     16  C   UNL     1       0.893   3.889  20.347  0.00  0.00    +0.000 A 
ATOM     17  C   UNL     1       1.573   3.978  19.143  0.00  0.00    +0.000 A 
ENDBRANCH  11  12
TORSDOF 1
ENDMDL
MODEL 2
REMARK VINA RESULT:      -7.1      0.068      1.142
REMARK  Name = 
REMARK  1 active torsions:
REMARK  status: ('A' for Active; 'I' for Inactive)
REMARK    1  A    between atoms: C_11  and  C_12
REMARK                            x       y       z     vdW  Elec       q    Type
REMARK                         _______ _______ _______ _____ _____    ______ ____
ROOT
ATOM      1 CL   UNL     1       8.182   5.421  12.990  0.00  0.00    +0.000 Cl
ATOM      2  C   UNL     1       7.092   5.023  14.262  0.00  0.00    +0.000 A 
ATOM      3  C   UNL     1       6.133   4.020  14.066  0.00  0.00    +0.000 A 
ATOM      4  C   UNL     1       5.239   3.686  15.091  0.00  0.00    +0.000 A 
ATOM      5  C   UNL     1       5.318   4.366  16.301  0.00  0.00    +0.000 A 
ATOM      6  C   UNL     1       6.279   5.365  16.483  0.00  0.00    +0.000 A 
ATOM      7  C   UNL     1       7.173   5.703  15.475  0.00  0.00    +0.000 A 
ATOM      8  C   UNL     1       6.222   5.975  17.846  0.00  0.00    +0.000 C 
ATOM      9  C   UNL     1       5.040   5.260  18.513  0.00  0.00    +0.000 C 
ATOM     10  C   UNL     1       4.522   4.237  17.523  0.00  0.00    +0.000 C 
ATOM     11  C   UNL     1       3.516   3.372  17.731  0.00  0.00    +0.000 C 
ENDROOT
BRANCH  11  12
ATOM     12  C   UNL     1       2.774   3.323  18.995  0.00  0.00    +0.000 A 
ATOM     13  C   UNL     1       1.557   3.991  19.128  0.00  0.00    +0.000 A 
ATOM     14  C   UNL     1       0.919   3.954  20.356  0.00  0.00    +0.000 A 
ATOM     15  N   UNL     1       1.404   3.307  21.438  0.00  0.00    +0.000 NA
ATOM     16  C   UNL     1       2.580   2.664  21.280  0.00  0.00    +0.000 A 
ATOM     17  C   UNL     1       3.296   2.642  20.095  0.00  0.00    +0.000 A 
ENDBRANCH  11  12
TORSDOF 1
ENDMDL
MODEL 3
REMARK VINA RESULT:      -6.8      5.456      7.231
REMARK  Name = 
REMARK  1 active torsions:
REMARK  status: ('A' for Active; 'I' for Inactive)
REMARK    1  A    between atoms: C_11  and  C_12
REMARK                            x       y       z     vdW  Elec       q    Type
REMARK                         _______ _______ _______ _____ _____    ______ ____
ROOT
ATOM      1 CL   UNL     1      -0.605  12.074  21.912  0.00  0.00    +0.000 Cl
ATOM      2  C   UNL     1       0.185  10.704  21.231  0.00  0.00    +0.000 A 
ATOM      3  C   UNL     1       0.448   9.585  22.032  0.00  0.00    +0.000 A 
ATOM      4  C   UNL     1       1.092   8.464  21.493  0.00  0.00    +0.000 A 
ATOM      5  C   UNL     1       1.464   8.482  20.154  0.00  0.00    +0.000 A 
ATOM      6  C   UNL     1       1.196   9.604  19.366  0.00  0.00    +0.000 A 
ATOM      7  C   UNL     1       0.557  10.722  19.888  0.00  0.00    +0.000 A 
ATOM      8  C   UNL     1       1.657   9.438  17.953  0.00  0.00    +0.000 C 
ATOM      9  C   UNL     1       2.317   8.054  17.949  0.00  0.00    +0.000 C 
ATOM     10  C   UNL     1       2.146   7.474  19.339  0.00  0.00    +0.000 C 
ATOM     11  C   UNL     1       2.548   6.260  19.745  0.00  0.00    +0.000 C 
ENDROOT
BRANCH  11  12
ATOM     12  C   UNL     1       3.230   5.319  18.849  0.00  0.00    +0.000 A 
ATOM     13  C   UNL     1       4.621   5.318  18.750  0.00  0.00    +0.000 A 
ATOM     14  C   UNL     1       5.214   4.444  17.854  0.00  0.00    +0.000 A 
ATOM     15  N   UNL     1       4.525   3.589  17.068  0.00  0.00    +0.000 NA
ATOM     16  C   UNL     1       3.181   3.607  17.187  0.00  0.00    +0.000 A 
ATOM     17  C   UNL     1       2.493   4.443  18.052  0.00  0.00    +0.000 A 
ENDBRANCH  11  12
TORSDOF 1
ENDMDL
MODEL 4
REMARK VINA RESULT:      -6.8      5.459      7.327
REMARK  Name = 
REMARK  1 active torsions:
REMARK  status: ('A' for Active; 'I' for Inactive)
REMARK    1  A    between atoms: C_11  and  C_12
REMARK                            x       y       z     vdW  Elec       q    Type
REMARK                         _______ _______ _______ _____ _____    ______ ____
ROOT
ATOM      1 CL   UNL     1      -1.049  11.891  21.711  0.00  0.00    +0.000 Cl
ATOM      2  C   UNL     1      -0.125  10.591  21.062  0.00  0.00    +0.000 A 
ATOM      3  C   UNL     1       0.123   9.456  21.846  0.00  0.00    +0.000 A 
ATOM      4  C   UNL     1       0.875   8.392  21.333  0.00  0.00    +0.000 A 
ATOM      5  C   UNL     1       1.370   8.482  20.037  0.00  0.00    +0.000 A 
ATOM      6  C   UNL     1       1.116   9.619  19.266  0.00  0.00    +0.000 A 
ATOM      7  C   UNL     1       0.370  10.681  19.763  0.00  0.00    +0.000 A 
ATOM      8  C   UNL     1       1.715   9.533  17.899  0.00  0.00    +0.000 C 
ATOM      9  C   UNL     1       2.448   8.185  17.910  0.00  0.00    +0.000 C 
ATOM     10  C   UNL     1       2.180   7.543  19.257  0.00  0.00    +0.000 C 
ATOM     11  C   UNL     1       2.608   6.336  19.658  0.00  0.00    +0.000 C 
ENDROOT
BRANCH  11  12
ATOM     12  C   UNL     1       3.422   5.468  18.800  0.00  0.00    +0.000 A 
ATOM     13  C   UNL     1       2.816   4.625  17.869  0.00  0.00    +0.000 A 
ATOM     14  C   UNL     1       3.625   3.790  17.117  0.00  0.00    +0.000 A 
ATOM     15  N   UNL     1       4.970   3.742  17.228  0.00  0.00    +0.000 NA
ATOM     16  C   UNL     1       5.531   4.572  18.133  0.00  0.00    +0.000 A 
ATOM     17  C   UNL     1       4.810   5.443  18.933  0.00  0.00    +0.000 A 
ENDBRANCH  11  12
TORSDOF 1
ENDMDL
MODEL 5
REMARK VINA RESULT:      -6.7      3.956      6.713
REMARK  Name = 
REMARK  1 active torsions:
REMARK  status: ('A' for Active; 'I' for Inactive)
REMARK    1  A    between atoms: C_11  and  C_12
REMARK                            x       y       z     vdW  Elec       q    Type
REMARK                         _______ _______ _______ _____ _____    ______ ____
ROOT
ATOM      1 CL   UNL     1       1.439   3.215  21.272  0.00  0.00    +0.000 Cl
ATOM      2  C   UNL     1       2.398   3.421  19.858  0.00  0.00    +0.000 A 
ATOM      3  C   UNL     1       2.847   2.296  19.153  0.00  0.00    +0.000 A 
ATOM      4  C   UNL     1       3.630   2.448  18.002  0.00  0.00    +0.000 A 
ATOM      5  C   UNL     1       3.953   3.731  17.572  0.00  0.00    +0.000 A 
ATOM      6  C   UNL     1       3.499   4.844  18.284  0.00  0.00    +0.000 A 
ATOM      7  C   UNL     1       2.720   4.707  19.426  0.00  0.00    +0.000 A 
ATOM      8  C   UNL     1       3.933   6.136  17.669  0.00  0.00    +0.000 C 
ATOM      9  C   UNL     1       4.788   5.697  16.473  0.00  0.00    +0.000 C 
ATOM     10  C   UNL     1       4.748   4.183  16.428  0.00  0.00    +0.000 C 
ATOM     11  C   UNL     1       5.336   3.402  15.508  0.00  0.00    +0.000 C 
ENDROOT
BRANCH  11  12
ATOM     12  C   UNL     1       6.119   3.954  14.397  0.00  0.00    +0.000 A 
ATOM     13  C   UNL     1       5.924   3.490  13.096  0.00  0.00    +0.000 A 
ATOM     14  C   UNL     1       6.721   4.009  12.090  0.00  0.00    +0.000 A 
ATOM     15  N   UNL     1       7.679   4.939  12.290  0.00  0.00    +0.000 NA
ATOM     16  C   UNL     1       7.843   5.374  13.558  0.00  0.00    +0.000 A 
ATOM     17  C   UNL     1       7.098   4.918  14.633  0.00  0.00    +0.000 A 
ENDBRANCH  11  12
TORSDOF 1
ENDMDL
MODEL 6
REMARK VINA RESULT:      -6.7      3.943      6.676
REMARK  Name = 
REMARK  1 active torsions:
REMARK  status: ('A' for Active; 'I' for Inactive)
REMARK    1  A    between atoms: C_11  and  C_12
REMARK                            x       y       z     vdW  Elec       q    Type
REMARK                         _______ _______ _______ _____ _____    ______ ____
ROOT
ATOM      1 CL   UNL     1       1.910   3.785  21.464  0.00  0.00    +0.000 Cl
ATOM      2  C   UNL     1       2.814   3.879  20.002  0.00  0.00    +0.000 A 
ATOM      3  C   UNL     1       3.291   2.705  19.403  0.00  0.00    +0.000 A 
ATOM      4  C   UNL     1       4.029   2.766  18.215  0.00  0.00    +0.000 A 
ATOM      5  C   UNL     1       4.280   4.007  17.642  0.00  0.00    +0.000 A 
ATOM      6  C   UNL     1       3.799   5.170  18.248  0.00  0.00    +0.000 A 
ATOM      7  C   UNL     1       3.064   5.123  19.427  0.00  0.00    +0.000 A 
ATOM      8  C   UNL     1       4.155   6.406  17.486  0.00  0.00    +0.000 C 
ATOM      9  C   UNL     1       4.990   5.878  16.312  0.00  0.00    +0.000 C 
ATOM     10  C   UNL     1       5.017   4.367  16.428  0.00  0.00    +0.000 C 
ATOM     11  C   UNL     1       5.610   3.518  15.575  0.00  0.00    +0.000 C 
ENDROOT
BRANCH  11  12
ATOM     12  C   UNL     1       6.331   3.980  14.384  0.00  0.00    +0.000 A 
ATOM     13  C   UNL     1       7.331   4.946  14.493  0.00  0.00    +0.000 A 
ATOM     14  C   UNL     1       7.949   5.383  13.333  0.00  0.00    +0.000 A 
ATOM     15  N   UNL     1       7.642   4.930  12.098  0.00  0.00    +0.000 NA
ATOM     16  C   UNL     1       6.675   3.992  12.022  0.00  0.00    +0.000 A 
ATOM     17  C   UNL     1       5.997   3.490  13.121  0.00  0.00    +0.000 A 
ENDBRANCH  11  12
TORSDOF 1
ENDMDL
MODEL 7
REMARK VINA RESULT:      -6.6      4.755      6.208
REMARK  Name = 
REMARK  1 active torsions:
REMARK  status: ('A' for Active; 'I' for Inactive)
REMARK    1  A    between atoms: C_11  and  C_12
REMARK                            x       y       z     vdW  Elec       q    Type
REMARK                         _______ _______ _______ _____ _____    ______ ____
ROOT
ATOM      1 CL   UNL     1       0.620  12.410  19.447  0.00  0.00    +0.000 Cl
ATOM      2  C   UNL     1       1.132  10.777  19.255  0.00  0.00    +0.000 A 
ATOM      3  C   UNL     1       1.742  10.377  18.058  0.00  0.00    +0.000 A 
ATOM      4  C   UNL     1       2.162   9.052  17.887  0.00  0.00    +0.000 A 
ATOM      5  C   UNL     1       1.963   8.144  18.920  0.00  0.00    +0.000 A 
ATOM      6  C   UNL     1       1.353   8.555  20.108  0.00  0.00    +0.000 A 
ATOM      7  C   UNL     1       0.934   9.868  20.291  0.00  0.00    +0.000 A 
ATOM      8  C   UNL     1       1.234   7.449  21.107  0.00  0.00    +0.000 C 
ATOM      9  C   UNL     1       1.812   6.234  20.370  0.00  0.00    +0.000 C 
ATOM     10  C   UNL     1       2.287   6.719  19.015  0.00  0.00    +0.000 C 
ATOM     11  C   UNL     1       2.893   5.975  18.076  0.00  0.00    +0.000 C 
ENDROOT
BRANCH  11  12
ATOM     12  C   UNL     1       3.171   4.548  18.266  0.00  0.00    +0.000 A 
ATOM     13  C   UNL     1       2.373   3.583  17.652  0.00  0.00    +0.000 A 
ATOM     14  C   UNL     1       2.648   2.249  17.902  0.00  0.00    +0.000 A 
ATOM     15  N   UNL     1       3.646   1.822  18.705  0.00  0.00    +0.000 NA
ATOM     16  C   UNL     1       4.406   2.776  19.282  0.00  0.00    +0.000 A 
ATOM     17  C   UNL     1       4.213   4.136  19.098  0.00  0.00    +0.000 A 
ENDBRANCH  11  12
TORSDOF 1
ENDMDL
MODEL 8
REMARK VINA RESULT:      -6.6      4.780      6.149
REMARK  Name = 
REMARK  1 active torsions:
REMARK  status: ('A' for Active; 'I' for Inactive)
REMARK    1  A    between atoms: C_11  and  C_12
REMARK                            x       y       z     vdW  Elec       q    Type
REMARK                         _______ _______ _______ _____ _____    ______ ____
ROOT
ATOM      1 CL   UNL     1       0.640  12.467  19.372  0.00  0.00    +0.000 Cl
ATOM      2  C   UNL     1       1.133  10.825  19.207  0.00  0.00    +0.000 A 
ATOM      3  C   UNL     1       1.738  10.398  18.018  0.00  0.00    +0.000 A 
ATOM      4  C   UNL     1       2.143   9.065  17.869  0.00  0.00    +0.000 A 
ATOM      5  C   UNL     1       1.934   8.177  18.918  0.00  0.00    +0.000 A 
ATOM      6  C   UNL     1       1.330   8.617  20.099  0.00  0.00    +0.000 A 
ATOM      7  C   UNL     1       0.926   9.936  20.260  0.00  0.00    +0.000 A 
ATOM      8  C   UNL     1       1.199   7.529  21.117  0.00  0.00    +0.000 C 
ATOM      9  C   UNL     1       1.762   6.295  20.400  0.00  0.00    +0.000 C 
ATOM     10  C   UNL     1       2.242   6.751  19.037  0.00  0.00    +0.000 C 
ATOM     11  C   UNL     1       2.838   5.984  18.110  0.00  0.00    +0.000 C 
ENDROOT
BRANCH  11  12
ATOM     12  C   UNL     1       3.100   4.557  18.325  0.00  0.00    +0.000 A 
ATOM     13  C   UNL     1       4.182   4.145  19.102  0.00  0.00    +0.000 A 
ATOM     14  C   UNL     1       4.414   2.786  19.234  0.00  0.00    +0.000 A 
ATOM     15  N   UNL     1       3.655   1.831  18.655  0.00  0.00    +0.000 NA
ATOM     16  C   UNL     1       2.612   2.257  17.912  0.00  0.00    +0.000 A 
ATOM     17  C   UNL     1       2.295   3.592  17.718  0.00  0.00    +0.000 A 
ENDBRANCH  11  12
TORSDOF 1
ENDMDL
MODEL 9
REMARK VINA RESULT:      -6.5      5.832      7.872
REMARK  Name = 
REMARK  1 active torsions:
REMARK  status: ('A' for Active; 'I' for Inactive)
REMARK    1  A    between atoms: C_11  and  C_12
REMARK                            x       y       z     vdW  Elec       q    Type
REMARK                         _______ _______ _______ _____ _____    ______ ____
ROOT
ATOM      1 CL   UNL     1      -1.239  11.534  22.896  0.00  0.00    +0.000 Cl
ATOM      2  C   UNL     1      -0.305  10.474  21.911  0.00  0.00    +0.000 A 
ATOM      3  C   UNL     1       0.359   9.388  22.496  0.00  0.00    +0.000 A 
ATOM      4  C   UNL     1       1.124   8.519  21.708  0.00  0.00    +0.000 A 
ATOM      5  C   UNL     1       1.214   8.753  20.340  0.00  0.00    +0.000 A 
ATOM      6  C   UNL     1       0.546   9.840  19.770  0.00  0.00    +0.000 A 
ATOM      7  C   UNL     1      -0.217  10.708  20.540  0.00  0.00    +0.000 A 
ATOM      8  C   UNL     1       0.747   9.926  18.291  0.00  0.00    +0.000 C 
ATOM      9  C   UNL     1       1.693   8.757  17.986  0.00  0.00    +0.000 C 
ATOM     10  C   UNL     1       1.935   8.027  19.293  0.00  0.00    +0.000 C 
ATOM     11  C   UNL     1       2.677   6.921  19.456  0.00  0.00    +0.000 C 
ENDROOT
BRANCH  11  12
ATOM     12  C   UNL     1       3.367   6.268  18.338  0.00  0.00    +0.000 A 
ATOM     13  C   UNL     1       3.160   4.915  18.071  0.00  0.00    +0.000 A 
ATOM     14  C   UNL     1       3.871   4.335  17.035  0.00  0.00    +0.000 A 
ATOM     15  N   UNL     1       4.757   5.000  16.263  0.00  0.00    +0.000 NA
ATOM     16  C   UNL     1       4.935   6.310  16.539  0.00  0.00    +0.000 A 
ATOM     17  C   UNL     1       4.273   6.982  17.554  0.00  0.00    +0.000 A 
ENDBRANCH  11  12
TORSDOF 1
ENDMDL
