MODEL 1
REMARK VINA RESULT:      -8.9      0.000      0.000
REMARK  Name = 
REMARK  6 active torsions:
REMARK  status: ('A' for Active; 'I' for Inactive)
REMARK    1  A    between atoms: C_1  and  C_2
REMARK    2  A    between atoms: C_5  and  C_6
REMARK    3  A    between atoms: C_6  and  C_7
REMARK    4  A    between atoms: C_6  and  C_19
REMARK    5  A    between atoms: C_8  and  O_9
REMARK    6  A    between atoms: C_20  and  O_21
REMARK                            x       y       z     vdW  Elec       q    Type
REMARK                         _______ _______ _______ _____ _____    ______ ____
ROOT
ATOM      1  C   UNL     1       0.334  10.659  19.461  0.00  0.00    +0.000 C 
ENDROOT
BRANCH   1   2
ATOM      2  C   UNL     1       1.106   9.339  19.438  0.00  0.00    +0.000 A 
ATOM      3  C   UNL     1       1.896   8.936  18.415  0.00  0.00    +0.000 A 
ATOM      4  C   UNL     1       2.639   7.674  18.493  0.00  0.00    +0.000 A 
ATOM      5  C   UNL     1       3.526   7.234  17.496  0.00  0.00    +0.000 A 
ATOM      6  C   UNL     1       4.213   6.027  17.638  0.00  0.00    +0.000 A 
ATOM      7  C   UNL     1       4.024   5.240  18.773  0.00  0.00    +0.000 A 
ATOM      8  C   UNL     1       3.148   5.661  19.767  0.00  0.00    +0.000 A 
ATOM      9  C   UNL     1       2.471   6.872  19.611  0.00  0.00    +0.000 A 
ATOM     10  O   UNL     1       1.628   7.258  20.657  0.00  0.00    +0.000 OA
ATOM     11  C   UNL     1       1.010   8.493  20.657  0.00  0.00    +0.000 A 
ATOM     12  O   UNL     1       0.412   8.873  21.663  0.00  0.00    +0.000 OA
BRANCH   3  13
ATOM     13  O   UNL     1       2.126   9.645  17.255  0.00  0.00    +0.000 OA
ATOM     14  H   UNL     1       1.748   9.203  16.481  0.00  0.00    +0.000 HD
ENDBRANCH   3  13
ENDBRANCH   1   2
BRANCH   1  15
ATOM     15  C   UNL     1       1.182  11.925  19.658  0.00  0.00    +0.000 A 
ATOM     16  C   UNL     1       1.915  12.592  18.746  0.00  0.00    +0.000 A 
ATOM     17  C   UNL     1       2.537  13.880  19.034  0.00  0.00    +0.000 A 
ATOM     18  C   UNL     1       3.243  14.620  18.077  0.00  0.00    +0.000 A 
ATOM     19  C   UNL     1       3.775  15.872  18.397  0.00  0.00    +0.000 A 
ATOM     20  C   UNL     1       3.608  16.395  19.678  0.00  0.00    +0.000 A 
ATOM     21  C   UNL     1       2.920  15.661  20.643  0.00  0.00    +0.000 A 
ATOM     22  C   UNL     1       2.395  14.414  20.306  0.00  0.00    +0.000 A 
ATOM     23  O   UNL     1       1.719  13.698  21.305  0.00  0.00    +0.000 OA
ATOM     24  C   UNL     1       1.160  12.454  21.053  0.00  0.00    +0.000 A 
ATOM     25  O   UNL     1       0.661  11.800  21.966  0.00  0.00    +0.000 OA
BRANCH  16  26
ATOM     26  O   UNL     1       2.196  12.102  17.493  0.00  0.00    +0.000 OA
ATOM     27  H   UNL     1       1.596  12.594  16.890  0.00  0.00    +0.000 HD
ENDBRANCH  16  26
ENDBRANCH   1  15
BRANCH   1  32
ATOM     28  C   UNL     1      -3.919  10.758  15.403  0.00  0.00    +0.000 C 
ATOM     29  C   UNL     1      -2.842  10.750  16.444  0.00  0.00    +0.000 A 
ATOM     30  C   UNL     1      -2.620  11.842  17.286  0.00  0.00    +0.000 A 
ATOM     31  C   UNL     1      -1.584  11.817  18.231  0.00  0.00    +0.000 A 
ATOM     32  C   UNL     1      -0.759  10.686  18.373  0.00  0.00    +0.000 A 
ATOM     33  C   UNL     1      -1.022   9.588  17.539  0.00  0.00    +0.000 A 
ATOM     34  C   UNL     1      -2.025   9.628  16.571  0.00  0.00    +0.000 A 
ENDBRANCH   1  32
TORSDOF 5
ENDMDL
MODEL 2
REMARK VINA RESULT:      -8.8      1.518      6.761
REMARK  Name = 
REMARK  6 active torsions:
REMARK  status: ('A' for Active; 'I' for Inactive)
REMARK    1  A    between atoms: C_1  and  C_2
REMARK    2  A    between atoms: C_5  and  C_6
REMARK    3  A    between atoms: C_6  and  C_7
REMARK    4  A    between atoms: C_6  and  C_19
REMARK    5  A    between atoms: C_8  and  O_9
REMARK    6  A    between atoms: C_20  and  O_21
REMARK                            x       y       z     vdW  Elec       q    Type
REMARK                         _______ _______ _______ _____ _____    ______ ____
ROOT
ATOM      1  C   UNL     1       0.565  11.238  20.007  0.00  0.00    +0.000 C 
ENDROOT
BRANCH   1   2
ATOM      2  C   UNL     1      -0.886  11.495  19.600  0.00  0.00    +0.000 A 
ATOM      3  C   UNL     1      -1.419  11.138  18.407  0.00  0.00    +0.000 A 
ATOM      4  C   UNL     1      -2.834  11.381  18.114  0.00  0.00    +0.000 A 
ATOM      5  C   UNL     1      -3.460  10.974  16.924  0.00  0.00    +0.000 A 
ATOM      6  C   UNL     1      -4.818  11.225  16.713  0.00  0.00    +0.000 A 
ATOM      7  C   UNL     1      -5.569  11.888  17.682  0.00  0.00    +0.000 A 
ATOM      8  C   UNL     1      -4.963  12.298  18.864  0.00  0.00    +0.000 A 
ATOM      9  C   UNL     1      -3.606  12.037  19.061  0.00  0.00    +0.000 A 
ATOM     10  O   UNL     1      -3.059  12.445  20.281  0.00  0.00    +0.000 OA
ATOM     11  C   UNL     1      -1.760  12.125  20.625  0.00  0.00    +0.000 A 
ATOM     12  O   UNL     1      -1.361  12.349  21.766  0.00  0.00    +0.000 OA
BRANCH   3  13
ATOM     13  O   UNL     1      -0.744  10.494  17.392  0.00  0.00    +0.000 OA
ATOM     14  H   UNL     1      -0.718   9.535  17.526  0.00  0.00    +0.000 HD
ENDBRANCH   3  13
ENDBRANCH   1   2
BRANCH   1  15
ATOM     15  C   UNL     1       1.090   9.817  19.747  0.00  0.00    +0.000 A 
ATOM     16  C   UNL     1       1.769   9.358  18.678  0.00  0.00    +0.000 A 
ATOM     17  C   UNL     1       2.355   8.023  18.640  0.00  0.00    +0.000 A 
ATOM     18  C   UNL     1       3.123   7.555  17.566  0.00  0.00    +0.000 A 
ATOM     19  C   UNL     1       3.701   6.283  17.607  0.00  0.00    +0.000 A 
ATOM     20  C   UNL     1       3.514   5.466  18.720  0.00  0.00    +0.000 A 
ATOM     21  C   UNL     1       2.739   5.916  19.789  0.00  0.00    +0.000 A 
ATOM     22  C   UNL     1       2.170   7.187  19.732  0.00  0.00    +0.000 A 
ATOM     23  O   UNL     1       1.387   7.602  20.818  0.00  0.00    +0.000 OA
ATOM     24  C   UNL     1       0.791   8.855  20.847  0.00  0.00    +0.000 A 
ATOM     25  O   UNL     1       0.027   9.159  21.760  0.00  0.00    +0.000 OA
BRANCH  16  26
ATOM     26  O   UNL     1       1.922  10.070  17.513  0.00  0.00    +0.000 OA
ATOM     27  H   UNL     1       1.356   9.606  16.857  0.00  0.00    +0.000 HD
ENDBRANCH  16  26
ENDBRANCH   1  15
BRANCH   1  32
ATOM     28  C   UNL     1       3.952  15.833  18.597  0.00  0.00    +0.000 C 
ATOM     29  C   UNL     1       3.093  14.664  18.975  0.00  0.00    +0.000 A 
ATOM     30  C   UNL     1       3.089  14.140  20.270  0.00  0.00    +0.000 A 
ATOM     31  C   UNL     1       2.298  13.026  20.586  0.00  0.00    +0.000 A 
ATOM     32  C   UNL     1       1.471  12.424  19.619  0.00  0.00    +0.000 A 
ATOM     33  C   UNL     1       1.468  12.989  18.334  0.00  0.00    +0.000 A 
ATOM     34  C   UNL     1       2.286  14.071  18.008  0.00  0.00    +0.000 A 
ENDBRANCH   1  32
TORSDOF 5
ENDMDL
MODEL 3
REMARK VINA RESULT:      -8.6      1.898      6.814
REMARK  Name = 
REMARK  6 active torsions:
REMARK  status: ('A' for Active; 'I' for Inactive)
REMARK    1  A    between atoms: C_1  and  C_2
REMARK    2  A    between atoms: C_5  and  C_6
REMARK    3  A    between atoms: C_6  and  C_7
REMARK    4  A    between atoms: C_6  and  C_19
REMARK    5  A    between atoms: C_8  and  O_9
REMARK    6  A    between atoms: C_20  and  O_21
REMARK                            x       y       z     vdW  Elec       q    Type
REMARK                         _______ _______ _______ _____ _____    ______ ____
ROOT
ATOM      1  C   UNL     1       0.093  11.614  20.342  0.00  0.00    +0.000 C 
ENDROOT
BRANCH   1   2
ATOM      2  C   UNL     1      -1.368  11.830  19.946  0.00  0.00    +0.000 A 
ATOM      3  C   UNL     1      -1.875  11.556  18.720  0.00  0.00    +0.000 A 
ATOM      4  C   UNL     1      -3.301  11.751  18.437  0.00  0.00    +0.000 A 
ATOM      5  C   UNL     1      -3.898  11.421  17.209  0.00  0.00    +0.000 A 
ATOM      6  C   UNL     1      -5.266  11.619  17.009  0.00  0.00    +0.000 A 
ATOM      7  C   UNL     1      -6.056  12.150  18.027  0.00  0.00    +0.000 A 
ATOM      8  C   UNL     1      -5.479  12.482  19.247  0.00  0.00    +0.000 A 
ATOM      9  C   UNL     1      -4.111  12.275  19.432  0.00  0.00    +0.000 A 
ATOM     10  O   UNL     1      -3.592  12.598  20.689  0.00  0.00    +0.000 OA
ATOM     11  C   UNL     1      -2.279  12.317  21.015  0.00  0.00    +0.000 A 
ATOM     12  O   UNL     1      -1.898  12.456  22.176  0.00  0.00    +0.000 OA
BRANCH   3  13
ATOM     13  O   UNL     1      -1.162  11.044  17.657  0.00  0.00    +0.000 OA
ATOM     14  H   UNL     1      -1.696  10.438  17.123  0.00  0.00    +0.000 HD
ENDBRANCH   3  13
ENDBRANCH   1   2
BRANCH   1  15
ATOM     15  C   UNL     1       0.668  10.221  20.038  0.00  0.00    +0.000 A 
ATOM     16  C   UNL     1       1.364   9.820  18.958  0.00  0.00    +0.000 A 
ATOM     17  C   UNL     1       1.997   8.508  18.879  0.00  0.00    +0.000 A 
ATOM     18  C   UNL     1       2.783   8.101  17.794  0.00  0.00    +0.000 A 
ATOM     19  C   UNL     1       3.405   6.850  17.796  0.00  0.00    +0.000 A 
ATOM     20  C   UNL     1       3.244   5.992  18.882  0.00  0.00    +0.000 A 
ATOM     21  C   UNL     1       2.451   6.380  19.962  0.00  0.00    +0.000 A 
ATOM     22  C   UNL     1       1.839   7.632  19.943  0.00  0.00    +0.000 A 
ATOM     23  O   UNL     1       1.039   7.985  21.040  0.00  0.00    +0.000 OA
ATOM     24  C   UNL     1       0.400   9.214  21.107  0.00  0.00    +0.000 A 
ATOM     25  O   UNL     1      -0.376   9.463  22.026  0.00  0.00    +0.000 OA
BRANCH  16  26
ATOM     26  O   UNL     1       1.495  10.574  17.816  0.00  0.00    +0.000 OA
ATOM     27  H   UNL     1       0.580  10.849  17.589  0.00  0.00    +0.000 HD
ENDBRANCH  16  26
ENDBRANCH   1  15
BRANCH   1  32
ATOM     28  C   UNL     1       3.396  16.251  18.871  0.00  0.00    +0.000 C 
ATOM     29  C   UNL     1       2.541  15.074  19.231  0.00  0.00    +0.000 A 
ATOM     30  C   UNL     1       1.276  14.881  18.671  0.00  0.00    +0.000 A 
ATOM     31  C   UNL     1       0.487  13.785  19.052  0.00  0.00    +0.000 A 
ATOM     32  C   UNL     1       0.955  12.842  19.986  0.00  0.00    +0.000 A 
ATOM     33  C   UNL     1       2.242  13.040  20.510  0.00  0.00    +0.000 A 
ATOM     34  C   UNL     1       3.011  14.151  20.163  0.00  0.00    +0.000 A 
ENDBRANCH   1  32
TORSDOF 5
ENDMDL
MODEL 4
REMARK VINA RESULT:      -8.3      2.517      7.092
REMARK  Name = 
REMARK  6 active torsions:
REMARK  status: ('A' for Active; 'I' for Inactive)
REMARK    1  A    between atoms: C_1  and  C_2
REMARK    2  A    between atoms: C_5  and  C_6
REMARK    3  A    between atoms: C_6  and  C_7
REMARK    4  A    between atoms: C_6  and  C_19
REMARK    5  A    between atoms: C_8  and  O_9
REMARK    6  A    between atoms: C_20  and  O_21
REMARK                            x       y       z     vdW  Elec       q    Type
REMARK                         _______ _______ _______ _____ _____    ______ ____
ROOT
ATOM      1  C   UNL     1       0.216  12.253  21.009  0.00  0.00    +0.000 C 
ENDROOT
BRANCH   1   2
ATOM      2  C   UNL     1      -1.289  12.504  21.104  0.00  0.00    +0.000 A 
ATOM      3  C   UNL     1      -2.163  12.299  20.089  0.00  0.00    +0.000 A 
ATOM      4  C   UNL     1      -3.599  12.522  20.279  0.00  0.00    +0.000 A 
ATOM      5  C   UNL     1      -4.561  12.262  19.288  0.00  0.00    +0.000 A 
ATOM      6  C   UNL     1      -5.917  12.484  19.538  0.00  0.00    +0.000 A 
ATOM      7  C   UNL     1      -6.333  12.969  20.777  0.00  0.00    +0.000 A 
ATOM      8  C   UNL     1      -5.393  13.232  21.767  0.00  0.00    +0.000 A 
ATOM      9  C   UNL     1      -4.042  13.003  21.502  0.00  0.00    +0.000 A 
ATOM     10  O   UNL     1      -3.146  13.256  22.545  0.00  0.00    +0.000 OA
ATOM     11  C   UNL     1      -1.805  12.945  22.427  0.00  0.00    +0.000 A 
ATOM     12  O   UNL     1      -1.075  13.020  23.414  0.00  0.00    +0.000 OA
BRANCH   3  13
ATOM     13  O   UNL     1      -1.833  11.836  18.834  0.00  0.00    +0.000 OA
ATOM     14  H   UNL     1      -2.095  12.457  18.139  0.00  0.00    +0.000 HD
ENDBRANCH   3  13
ENDBRANCH   1   2
BRANCH   1  15
ATOM     15  C   UNL     1       0.632  10.823  20.631  0.00  0.00    +0.000 A 
ATOM     16  C   UNL     1       0.926  10.330  19.414  0.00  0.00    +0.000 A 
ATOM     17  C   UNL     1       1.472   8.990  19.224  0.00  0.00    +0.000 A 
ATOM     18  C   UNL     1       1.849   8.488  17.972  0.00  0.00    +0.000 A 
ATOM     19  C   UNL     1       2.413   7.215  17.857  0.00  0.00    +0.000 A 
ATOM     20  C   UNL     1       2.601   6.430  18.994  0.00  0.00    +0.000 A 
ATOM     21  C   UNL     1       2.216   6.913  20.244  0.00  0.00    +0.000 A 
ATOM     22  C   UNL     1       1.656   8.186  20.339  0.00  0.00    +0.000 A 
ATOM     23  O   UNL     1       1.269   8.636  21.610  0.00  0.00    +0.000 OA
ATOM     24  C   UNL     1       0.711   9.893  21.796  0.00  0.00    +0.000 A 
ATOM     25  O   UNL     1       0.286  10.227  22.899  0.00  0.00    +0.000 OA
BRANCH  16  26
ATOM     26  O   UNL     1       0.689  11.009  18.243  0.00  0.00    +0.000 OA
ATOM     27  H   UNL     1       1.538  10.966  17.750  0.00  0.00    +0.000 HD
ENDBRANCH  16  26
ENDBRANCH   1  15
BRANCH   1  32
ATOM     28  C   UNL     1       2.993  16.747  18.427  0.00  0.00    +0.000 C 
ATOM     29  C   UNL     1       2.302  15.595  19.091  0.00  0.00    +0.000 A 
ATOM     30  C   UNL     1       3.014  14.537  19.662  0.00  0.00    +0.000 A 
ATOM     31  C   UNL     1       2.339  13.457  20.250  0.00  0.00    +0.000 A 
ATOM     32  C   UNL     1       0.933  13.422  20.303  0.00  0.00    +0.000 A 
ATOM     33  C   UNL     1       0.240  14.512  19.752  0.00  0.00    +0.000 A 
ATOM     34  C   UNL     1       0.910  15.566  19.131  0.00  0.00    +0.000 A 
ENDBRANCH   1  32
TORSDOF 5
ENDMDL
MODEL 5
REMARK VINA RESULT:      -8.2      2.971      7.164
REMARK  Name = 
REMARK  6 active torsions:
REMARK  status: ('A' for Active; 'I' for Inactive)
REMARK    1  A    between atoms: C_1  and  C_2
REMARK    2  A    between atoms: C_5  and  C_6
REMARK    3  A    between atoms: C_6  and  C_7
REMARK    4  A    between atoms: C_6  and  C_19
REMARK    5  A    between atoms: C_8  and  O_9
REMARK    6  A    between atoms: C_20  and  O_21
REMARK                            x       y       z     vdW  Elec       q    Type
REMARK                         _______ _______ _______ _____ _____    ______ ____
ROOT
ATOM      1  C   UNL     1      -1.002  12.482  20.928  0.00  0.00    +0.000 C 
ENDROOT
BRANCH   1   2
ATOM      2  C   UNL     1      -2.523  12.500  20.778  0.00  0.00    +0.000 A 
ATOM      3  C   UNL     1      -3.176  12.333  19.604  0.00  0.00    +0.000 A 
ATOM      4  C   UNL     1      -4.642  12.318  19.556  0.00  0.00    +0.000 A 
ATOM      5  C   UNL     1      -5.376  12.081  18.381  0.00  0.00    +0.000 A 
ATOM      6  C   UNL     1      -6.772  12.068  18.407  0.00  0.00    +0.000 A 
ATOM      7  C   UNL     1      -7.456  12.291  19.601  0.00  0.00    +0.000 A 
ATOM      8  C   UNL     1      -6.743  12.528  20.770  0.00  0.00    +0.000 A 
ATOM      9  C   UNL     1      -5.348  12.536  20.729  0.00  0.00    +0.000 A 
ATOM     10  O   UNL     1      -4.685  12.749  21.941  0.00  0.00    +0.000 OA
ATOM     11  C   UNL     1      -3.310  12.653  22.031  0.00  0.00    +0.000 A 
ATOM     12  O   UNL     1      -2.770  12.677  23.135  0.00  0.00    +0.000 OA
BRANCH   3  13
ATOM     13  O   UNL     1      -2.578  12.120  18.381  0.00  0.00    +0.000 OA
ATOM     14  H   UNL     1      -1.642  12.369  18.388  0.00  0.00    +0.000 HD
ENDBRANCH   3  13
ENDBRANCH   1   2
BRANCH   1  15
ATOM     15  C   UNL     1      -0.305  11.175  20.517  0.00  0.00    +0.000 A 
ATOM     16  C   UNL     1       0.236  10.853  19.327  0.00  0.00    +0.000 A 
ATOM     17  C   UNL     1       1.018   9.637  19.128  0.00  0.00    +0.000 A 
ATOM     18  C   UNL     1       1.646   9.322  17.917  0.00  0.00    +0.000 A 
ATOM     19  C   UNL     1       2.423   8.166  17.799  0.00  0.00    +0.000 A 
ATOM     20  C   UNL     1       2.576   7.313  18.892  0.00  0.00    +0.000 A 
ATOM     21  C   UNL     1       1.943   7.610  20.098  0.00  0.00    +0.000 A 
ATOM     22  C   UNL     1       1.172   8.767  20.197  0.00  0.00    +0.000 A 
ATOM     23  O   UNL     1       0.539   9.028  21.421  0.00  0.00    +0.000 OA
ATOM     24  C   UNL     1      -0.239  10.160  21.610  0.00  0.00    +0.000 A 
ATOM     25  O   UNL     1      -0.866  10.318  22.654  0.00  0.00    +0.000 OA
BRANCH  16  26
ATOM     26  O   UNL     1       0.058  11.597  18.186  0.00  0.00    +0.000 OA
ATOM     27  H   UNL     1       0.873  12.141  18.109  0.00  0.00    +0.000 HD
ENDBRANCH  16  26
ENDBRANCH   1  15
BRANCH   1  32
ATOM     28  C   UNL     1       1.402  17.573  19.232  0.00  0.00    +0.000 C 
ATOM     29  C   UNL     1       0.806  16.270  19.671  0.00  0.00    +0.000 A 
ATOM     30  C   UNL     1       1.594  15.230  20.170  0.00  0.00    +0.000 A 
ATOM     31  C   UNL     1       1.011  14.010  20.544  0.00  0.00    +0.000 A 
ATOM     32  C   UNL     1      -0.379  13.810  20.452  0.00  0.00    +0.000 A 
ATOM     33  C   UNL     1      -1.153  14.882  19.979  0.00  0.00    +0.000 A 
ATOM     34  C   UNL     1      -0.570  16.080  19.567  0.00  0.00    +0.000 A 
ENDBRANCH   1  32
TORSDOF 5
ENDMDL
MODEL 6
REMARK VINA RESULT:      -8.1      3.135      7.194
REMARK  Name = 
REMARK  6 active torsions:
REMARK  status: ('A' for Active; 'I' for Inactive)
REMARK    1  A    between atoms: C_1  and  C_2
REMARK    2  A    between atoms: C_5  and  C_6
REMARK    3  A    between atoms: C_6  and  C_7
REMARK    4  A    between atoms: C_6  and  C_19
REMARK    5  A    between atoms: C_8  and  O_9
REMARK    6  A    between atoms: C_20  and  O_21
REMARK                            x       y       z     vdW  Elec       q    Type
REMARK                         _______ _______ _______ _____ _____    ______ ____
ROOT
ATOM      1  C   UNL     1      -0.690  12.795  21.088  0.00  0.00    +0.000 C 
ENDROOT
BRANCH   1   2
ATOM      2  C   UNL     1      -2.214  12.849  21.203  0.00  0.00    +0.000 A 
ATOM      3  C   UNL     1      -3.065  12.614  20.176  0.00  0.00    +0.000 A 
ATOM      4  C   UNL     1      -4.517  12.642  20.383  0.00  0.00    +0.000 A 
ATOM      5  C   UNL     1      -5.448  12.340  19.376  0.00  0.00    +0.000 A 
ATOM      6  C   UNL     1      -6.819  12.371  19.643  0.00  0.00    +0.000 A 
ATOM      7  C   UNL     1      -7.279  12.706  20.916  0.00  0.00    +0.000 A 
ATOM      8  C   UNL     1      -6.369  13.008  21.922  0.00  0.00    +0.000 A 
ATOM      9  C   UNL     1      -5.003  12.970  21.639  0.00  0.00    +0.000 A 
ATOM     10  O   UNL     1      -4.135  13.253  22.698  0.00  0.00    +0.000 OA
ATOM     11  C   UNL     1      -2.767  13.121  22.556  0.00  0.00    +0.000 A 
ATOM     12  O   UNL     1      -2.042  13.212  23.545  0.00  0.00    +0.000 OA
BRANCH   3  13
ATOM     13  O   UNL     1      -2.694  12.291  18.889  0.00  0.00    +0.000 OA
ATOM     14  H   UNL     1      -3.040  11.428  18.618  0.00  0.00    +0.000 HD
ENDBRANCH   3  13
ENDBRANCH   1   2
BRANCH   1  15
ATOM     15  C   UNL     1      -0.099  11.439  20.672  0.00  0.00    +0.000 A 
ATOM     16  C   UNL     1       0.221  11.009  19.437  0.00  0.00    +0.000 A 
ATOM     17  C   UNL     1       0.934   9.757  19.207  0.00  0.00    +0.000 A 
ATOM     18  C   UNL     1       1.337   9.329  17.935  0.00  0.00    +0.000 A 
ATOM     19  C   UNL     1       2.061   8.144  17.780  0.00  0.00    +0.000 A 
ATOM     20  C   UNL     1       2.387   7.374  18.896  0.00  0.00    +0.000 A 
ATOM     21  C   UNL     1       1.978   7.783  20.165  0.00  0.00    +0.000 A 
ATOM     22  C   UNL     1       1.257   8.968  20.300  0.00  0.00    +0.000 A 
ATOM     23  O   UNL     1       0.852   9.343  21.590  0.00  0.00    +0.000 OA
ATOM     24  C   UNL     1       0.138  10.510  21.816  0.00  0.00    +0.000 A 
ATOM     25  O   UNL     1      -0.294  10.768  22.936  0.00  0.00    +0.000 OA
BRANCH  16  26
ATOM     26  O   UNL     1      -0.140  11.667  18.287  0.00  0.00    +0.000 OA
ATOM     27  H   UNL     1      -0.657  11.010  17.771  0.00  0.00    +0.000 HD
ENDBRANCH  16  26
ENDBRANCH   1  15
BRANCH   1  32
ATOM     28  C   UNL     1       1.361  17.592  18.375  0.00  0.00    +0.000 C 
ATOM     29  C   UNL     1       0.820  16.376  19.063  0.00  0.00    +0.000 A 
ATOM     30  C   UNL     1      -0.540  16.234  19.351  0.00  0.00    +0.000 A 
ATOM     31  C   UNL     1      -1.012  15.097  20.024  0.00  0.00    +0.000 A 
ATOM     32  C   UNL     1      -0.137  14.062  20.404  0.00  0.00    +0.000 A 
ATOM     33  C   UNL     1       1.219  14.213  20.075  0.00  0.00    +0.000 A 
ATOM     34  C   UNL     1       1.696  15.361  19.443  0.00  0.00    +0.000 A 
ENDBRANCH   1  32
TORSDOF 5
ENDMDL
MODEL 7
REMARK VINA RESULT:      -8.0      3.129      6.338
REMARK  Name = 
REMARK  6 active torsions:
REMARK  status: ('A' for Active; 'I' for Inactive)
REMARK    1  A    between atoms: C_1  and  C_2
REMARK    2  A    between atoms: C_5  and  C_6
REMARK    3  A    between atoms: C_6  and  C_7
REMARK    4  A    between atoms: C_6  and  C_19
REMARK    5  A    between atoms: C_8  and  O_9
REMARK    6  A    between atoms: C_20  and  O_21
REMARK                            x       y       z     vdW  Elec       q    Type
REMARK                         _______ _______ _______ _____ _____    ______ ____
ROOT
ATOM      1  C   UNL     1      -1.007  11.607  19.435  0.00  0.00    +0.000 C 
ENDROOT
BRANCH   1   2
ATOM      2  C   UNL     1       0.130  12.559  19.064  0.00  0.00    +0.000 A 
ATOM      3  C   UNL     1       0.016  13.909  19.032  0.00  0.00    +0.000 A 
ATOM      4  C   UNL     1       1.171  14.752  18.709  0.00  0.00    +0.000 A 
ATOM      5  C   UNL     1       1.133  16.157  18.727  0.00  0.00    +0.000 A 
ATOM      6  C   UNL     1       2.274  16.901  18.422  0.00  0.00    +0.000 A 
ATOM      7  C   UNL     1       3.467  16.259  18.093  0.00  0.00    +0.000 A 
ATOM      8  C   UNL     1       3.519  14.870  18.071  0.00  0.00    +0.000 A 
ATOM      9  C   UNL     1       2.370  14.140  18.380  0.00  0.00    +0.000 A 
ATOM     10  O   UNL     1       2.490  12.747  18.371  0.00  0.00    +0.000 OA
ATOM     11  C   UNL     1       1.450  11.937  18.783  0.00  0.00    +0.000 A 
ATOM     12  O   UNL     1       1.640  10.730  18.925  0.00  0.00    +0.000 OA
BRANCH   3  13
ATOM     13  O   UNL     1      -1.127  14.621  19.329  0.00  0.00    +0.000 OA
ATOM     14  H   UNL     1      -1.926  14.164  19.029  0.00  0.00    +0.000 HD
ENDBRANCH   3  13
ENDBRANCH   1   2
BRANCH   1  15
ATOM     15  C   UNL     1      -1.819  11.990  20.683  0.00  0.00    +0.000 A 
ATOM     16  C   UNL     1      -3.030  12.573  20.748  0.00  0.00    +0.000 A 
ATOM     17  C   UNL     1      -3.758  12.725  22.004  0.00  0.00    +0.000 A 
ATOM     18  C   UNL     1      -5.047  13.265  22.080  0.00  0.00    +0.000 A 
ATOM     19  C   UNL     1      -5.716  13.341  23.305  0.00  0.00    +0.000 A 
ATOM     20  C   UNL     1      -5.098  12.879  24.467  0.00  0.00    +0.000 A 
ATOM     21  C   UNL     1      -3.809  12.352  24.405  0.00  0.00    +0.000 A 
ATOM     22  C   UNL     1      -3.158  12.285  23.174  0.00  0.00    +0.000 A 
ATOM     23  O   UNL     1      -1.857  11.761  23.151  0.00  0.00    +0.000 OA
ATOM     24  C   UNL     1      -1.140  11.650  21.968  0.00  0.00    +0.000 A 
ATOM     25  O   UNL     1       0.033  11.284  21.984  0.00  0.00    +0.000 OA
BRANCH  16  26
ATOM     26  O   UNL     1      -3.664  13.129  19.663  0.00  0.00    +0.000 OA
ATOM     27  H   UNL     1      -2.982  13.691  19.233  0.00  0.00    +0.000 HD
ENDBRANCH  16  26
ENDBRANCH   1  15
BRANCH   1  32
ATOM     28  C   UNL     1      -3.883   9.783  14.642  0.00  0.00    +0.000 C 
ATOM     29  C   UNL     1      -3.152  10.230  15.871  0.00  0.00    +0.000 A 
ATOM     30  C   UNL     1      -3.073   9.431  17.014  0.00  0.00    +0.000 A 
ATOM     31  C   UNL     1      -2.408   9.890  18.161  0.00  0.00    +0.000 A 
ATOM     32  C   UNL     1      -1.785  11.152  18.183  0.00  0.00    +0.000 A 
ATOM     33  C   UNL     1      -1.850  11.923  17.012  0.00  0.00    +0.000 A 
ATOM     34  C   UNL     1      -2.546  11.484  15.886  0.00  0.00    +0.000 A 
ENDBRANCH   1  32
TORSDOF 5
ENDMDL
MODEL 8
REMARK VINA RESULT:      -8.0      2.326      2.846
REMARK  Name = 
REMARK  6 active torsions:
REMARK  status: ('A' for Active; 'I' for Inactive)
REMARK    1  A    between atoms: C_1  and  C_2
REMARK    2  A    between atoms: C_5  and  C_6
REMARK    3  A    between atoms: C_6  and  C_7
REMARK    4  A    between atoms: C_6  and  C_19
REMARK    5  A    between atoms: C_8  and  O_9
REMARK    6  A    between atoms: C_20  and  O_21
REMARK                            x       y       z     vdW  Elec       q    Type
REMARK                         _______ _______ _______ _____ _____    ______ ____
ROOT
ATOM      1  C   UNL     1      -1.278  12.396  20.494  0.00  0.00    +0.000 C 
ENDROOT
BRANCH   1   2
ATOM      2  C   UNL     1      -0.430  11.142  20.276  0.00  0.00    +0.000 A 
ATOM      3  C   UNL     1       0.269  10.882  19.145  0.00  0.00    +0.000 A 
ATOM      4  C   UNL     1       1.095   9.675  19.035  0.00  0.00    +0.000 A 
ATOM      5  C   UNL     1       1.895   9.384  17.917  0.00  0.00    +0.000 A 
ATOM      6  C   UNL     1       2.669   8.222  17.882  0.00  0.00    +0.000 A 
ATOM      7  C   UNL     1       2.655   7.334  18.956  0.00  0.00    +0.000 A 
ATOM      8  C   UNL     1       1.867   7.608  20.068  0.00  0.00    +0.000 A 
ATOM      9  C   UNL     1       1.101   8.775  20.089  0.00  0.00    +0.000 A 
ATOM     10  O   UNL     1       0.353   9.013  21.246  0.00  0.00    +0.000 OA
ATOM     11  C   UNL     1      -0.340  10.196  21.419  0.00  0.00    +0.000 A 
ATOM     12  O   UNL     1      -0.848  10.448  22.510  0.00  0.00    +0.000 OA
BRANCH   3  13
ATOM     13  O   UNL     1       0.326  11.697  18.036  0.00  0.00    +0.000 OA
ATOM     14  H   UNL     1       1.201  11.683  17.621  0.00  0.00    +0.000 HD
ENDBRANCH   3  13
ENDBRANCH   1   2
BRANCH   1  15
ATOM     15  C   UNL     1      -0.533  13.735  20.372  0.00  0.00    +0.000 A 
ATOM     16  C   UNL     1      -0.417  14.533  19.294  0.00  0.00    +0.000 A 
ATOM     17  C   UNL     1       0.178  15.863  19.367  0.00  0.00    +0.000 A 
ATOM     18  C   UNL     1       0.243  16.733  18.271  0.00  0.00    +0.000 A 
ATOM     19  C   UNL     1       0.781  18.015  18.412  0.00  0.00    +0.000 A 
ATOM     20  C   UNL     1       1.262  18.438  19.651  0.00  0.00    +0.000 A 
ATOM     21  C   UNL     1       1.216  17.575  20.745  0.00  0.00    +0.000 A 
ATOM     22  C   UNL     1       0.675  16.300  20.585  0.00  0.00    +0.000 A 
ATOM     23  O   UNL     1       0.656  15.454  21.704  0.00  0.00    +0.000 OA
ATOM     24  C   UNL     1       0.129  14.172  21.636  0.00  0.00    +0.000 A 
ATOM     25  O   UNL     1       0.214  13.413  22.598  0.00  0.00    +0.000 OA
BRANCH  16  26
ATOM     26  O   UNL     1      -0.789  14.155  18.026  0.00  0.00    +0.000 OA
ATOM     27  H   UNL     1      -0.172  13.427  17.789  0.00  0.00    +0.000 HD
ENDBRANCH  16  26
ENDBRANCH   1  15
BRANCH   1  32
ATOM     28  C   UNL     1      -6.551  11.842  17.954  0.00  0.00    +0.000 C 
ATOM     29  C   UNL     1      -5.216  11.992  18.617  0.00  0.00    +0.000 A 
ATOM     30  C   UNL     1      -5.052  12.737  19.787  0.00  0.00    +0.000 A 
ATOM     31  C   UNL     1      -3.783  12.885  20.367  0.00  0.00    +0.000 A 
ATOM     32  C   UNL     1      -2.650  12.269  19.803  0.00  0.00    +0.000 A 
ATOM     33  C   UNL     1      -2.846  11.499  18.646  0.00  0.00    +0.000 A 
ATOM     34  C   UNL     1      -4.099  11.386  18.045  0.00  0.00    +0.000 A 
ENDBRANCH   1  32
TORSDOF 5
ENDMDL
MODEL 9
REMARK VINA RESULT:      -7.8      2.862      7.251
REMARK  Name = 
REMARK  6 active torsions:
REMARK  status: ('A' for Active; 'I' for Inactive)
REMARK    1  A    between atoms: C_1  and  C_2
REMARK    2  A    between atoms: C_5  and  C_6
REMARK    3  A    between atoms: C_6  and  C_7
REMARK    4  A    between atoms: C_6  and  C_19
REMARK    5  A    between atoms: C_8  and  O_9
REMARK    6  A    between atoms: C_20  and  O_21
REMARK                            x       y       z     vdW  Elec       q    Type
REMARK                         _______ _______ _______ _____ _____    ______ ____
ROOT
ATOM      1  C   UNL     1       0.281  12.029  20.771  0.00  0.00    +0.000 C 
ENDROOT
BRANCH   1   2
ATOM      2  C   UNL     1      -1.225  12.234  20.936  0.00  0.00    +0.000 A 
ATOM      3  C   UNL     1      -1.839  12.464  22.121  0.00  0.00    +0.000 A 
ATOM      4  C   UNL     1      -3.285  12.695  22.185  0.00  0.00    +0.000 A 
ATOM      5  C   UNL     1      -3.968  13.007  23.373  0.00  0.00    +0.000 A 
ATOM      6  C   UNL     1      -5.347  13.229  23.363  0.00  0.00    +0.000 A 
ATOM      7  C   UNL     1      -6.064  13.141  22.171  0.00  0.00    +0.000 A 
ATOM      8  C   UNL     1      -5.402  12.833  20.988  0.00  0.00    +0.000 A 
ATOM      9  C   UNL     1      -4.024  12.616  21.015  0.00  0.00    +0.000 A 
ATOM     10  O   UNL     1      -3.408  12.340  19.790  0.00  0.00    +0.000 OA
ATOM     11  C   UNL     1      -2.035  12.233  19.688  0.00  0.00    +0.000 A 
ATOM     12  O   UNL     1      -1.512  12.159  18.578  0.00  0.00    +0.000 OA
BRANCH   3  13
ATOM     13  O   UNL     1      -1.207  12.552  23.343  0.00  0.00    +0.000 OA
ATOM     14  H   UNL     1      -0.473  13.184  23.327  0.00  0.00    +0.000 HD
ENDBRANCH   3  13
ENDBRANCH   1   2
BRANCH   1  15
ATOM     15  C   UNL     1       0.727  10.599  20.426  0.00  0.00    +0.000 A 
ATOM     16  C   UNL     1       0.996  10.075  19.215  0.00  0.00    +0.000 A 
ATOM     17  C   UNL     1       1.575   8.746  19.051  0.00  0.00    +0.000 A 
ATOM     18  C   UNL     1       1.927   8.214  17.804  0.00  0.00    +0.000 A 
ATOM     19  C   UNL     1       2.524   6.954  17.712  0.00  0.00    +0.000 A 
ATOM     20  C   UNL     1       2.771   6.212  18.866  0.00  0.00    +0.000 A 
ATOM     21  C   UNL     1       2.411   6.725  20.111  0.00  0.00    +0.000 A 
ATOM     22  C   UNL     1       1.818   7.985  20.184  0.00  0.00    +0.000 A 
ATOM     23  O   UNL     1       1.457   8.465  21.452  0.00  0.00    +0.000 OA
ATOM     24  C   UNL     1       0.869   9.710  21.616  0.00  0.00    +0.000 A 
ATOM     25  O   UNL     1       0.470  10.069  22.721  0.00  0.00    +0.000 OA
BRANCH  16  26
ATOM     26  O   UNL     1       0.702  10.708  18.032  0.00  0.00    +0.000 OA
ATOM     27  H   UNL     1       0.790  11.667  18.230  0.00  0.00    +0.000 HD
ENDBRANCH  16  26
ENDBRANCH   1  15
BRANCH   1  32
ATOM     28  C   UNL     1       2.799  16.476  17.863  0.00  0.00    +0.000 C 
ATOM     29  C   UNL     1       2.174  15.332  18.603  0.00  0.00    +0.000 A 
ATOM     30  C   UNL     1       2.829  14.109  18.761  0.00  0.00    +0.000 A 
ATOM     31  C   UNL     1       2.206  13.047  19.432  0.00  0.00    +0.000 A 
ATOM     32  C   UNL     1       0.919  13.192  19.984  0.00  0.00    +0.000 A 
ATOM     33  C   UNL     1       0.295  14.441  19.841  0.00  0.00    +0.000 A 
ATOM     34  C   UNL     1       0.897  15.484  19.138  0.00  0.00    +0.000 A 
ENDBRANCH   1  32
TORSDOF 5
ENDMDL
