MODEL 1
REMARK VINA RESULT:      -8.2      0.000      0.000
REMARK  Name = 
REMARK  9 active torsions:
REMARK  status: ('A' for Active; 'I' for Inactive)
REMARK    1  A    between atoms: N_1  and  S_2
REMARK    2  A    between atoms: S_2  and  O_5
REMARK    3  A    between atoms: O_5  and  C_6
REMARK    4  A    between atoms: C_6  and  C_7
REMARK    5  A    between atoms: C_9  and  N_10
REMARK    6  A    between atoms: C_14  and  C_15
REMARK    7  A    between atoms: C_16  and  C_17
REMARK    8  A    between atoms: C_28  and  O_29
REMARK    9  A    between atoms: C_30  and  O_31
REMARK                            x       y       z     vdW  Elec       q    Type
REMARK                         _______ _______ _______ _____ _____    ______ ____
ROOT
ATOM      1  N   UNL     1       5.361   4.212  18.493  0.00  0.00    +0.000 N 
ATOM      2  C   UNL     1       5.459   4.967  19.633  0.00  0.00    +0.000 A 
ATOM      3  N   UNL     1       6.206   6.036  19.457  0.00  0.00    +0.000 NA
ATOM      4  C   UNL     1       6.599   5.985  18.135  0.00  0.00    +0.000 A 
ATOM      5  C   UNL     1       7.366   6.809  17.316  0.00  0.00    +0.000 A 
ATOM      6  N   UNL     1       7.564   6.501  16.013  0.00  0.00    +0.000 NA
ATOM      7  C   UNL     1       6.990   5.369  15.555  0.00  0.00    +0.000 A 
ATOM      8  N   UNL     1       6.226   4.487  16.232  0.00  0.00    +0.000 NA
ATOM      9  C   UNL     1       6.077   4.853  17.518  0.00  0.00    +0.000 A 
ENDROOT
BRANCH   1  12
ATOM     10  C   UNL     1       2.299   2.440  18.304  0.00  0.00    +0.000 C 
ATOM     11  O   UNL     1       3.320   3.292  17.730  0.00  0.00    +0.000 OA
ATOM     12  C   UNL     1       4.580   3.001  18.365  0.00  0.00    +0.000 C 
ATOM     13  C   UNL     1       4.273   2.284  19.676  0.00  0.00    +0.000 C 
ATOM     14  C   UNL     1       2.999   1.532  19.323  0.00  0.00    +0.000 C 
BRANCH  13  15
ATOM     15  O   UNL     1       5.321   1.392  20.062  0.00  0.00    +0.000 OA
ATOM     16  H   UNL     1       5.031   0.973  20.900  0.00  0.00    +0.000 HD
ENDBRANCH  13  15
BRANCH  14  17
ATOM     17  O   UNL     1       3.375   0.267  18.745  0.00  0.00    +0.000 OA
ATOM     18  H   UNL     1       3.307  -0.433  19.421  0.00  0.00    +0.000 HD
ENDBRANCH  14  17
BRANCH  10  19
ATOM     19  C   UNL     1       1.193   3.286  18.940  0.00  0.00    +0.000 C 
BRANCH  19  20
ATOM     20  O   UNL     1       1.567   4.661  18.934  0.00  0.00    +0.000 OA
BRANCH  20  21
ATOM     21  S   UNL     1       1.771   5.360  20.383  0.00  0.00    +0.000 S 
ATOM     22  O   UNL     1       2.365   4.411  21.292  0.00  0.00    +0.000 OA
ATOM     23  O   UNL     1       0.564   6.079  20.712  0.00  0.00    +0.000 OA
BRANCH  21  24
ATOM     24  N   UNL     1       2.926   6.537  20.114  0.00  0.00    +0.000 NA
ATOM     25  H   UNL     1       3.380   6.351  19.218  0.00  0.00    +0.000 HD
ATOM     26  H   UNL     1       3.590   6.539  20.887  0.00  0.00    +0.000 HD
ENDBRANCH  21  24
ENDBRANCH  20  21
ENDBRANCH  19  20
ENDBRANCH  10  19
ENDBRANCH   1  12
BRANCH   5  27
ATOM     27  C   UNL     1       7.952   8.015  17.792  0.00  0.00    +0.000 C 
ATOM     28  C   UNL     1       8.456   9.024  18.216  0.00  0.00    +0.000 C 
BRANCH  28  29
ATOM     29  C   UNL     1       9.048  10.232  18.696  0.00  0.00    +0.000 A 
ATOM     30  C   UNL     1       9.302  11.290  17.816  0.00  0.00    +0.000 A 
ATOM     31  C   UNL     1       9.936  12.445  18.277  0.00  0.00    +0.000 A 
ATOM     32  C   UNL     1      10.309  12.544  19.618  0.00  0.00    +0.000 A 
ATOM     33 CL   UNL     1      11.130  13.948  20.176  0.00  0.00    +0.000 Cl
ATOM     34  C   UNL     1      10.030  11.506  20.506  0.00  0.00    +0.000 A 
ATOM     35  C   UNL     1       9.397  10.350  20.044  0.00  0.00    +0.000 A 
ENDBRANCH  28  29
ENDBRANCH   5  27
TORSDOF 9
ENDMDL
MODEL 2
REMARK VINA RESULT:      -8.1      6.073      7.464
REMARK  Name = 
REMARK  9 active torsions:
REMARK  status: ('A' for Active; 'I' for Inactive)
REMARK    1  A    between atoms: N_1  and  S_2
REMARK    2  A    between atoms: S_2  and  O_5
REMARK    3  A    between atoms: O_5  and  C_6
REMARK    4  A    between atoms: C_6  and  C_7
REMARK    5  A    between atoms: C_9  and  N_10
REMARK    6  A    between atoms: C_14  and  C_15
REMARK    7  A    between atoms: C_16  and  C_17
REMARK    8  A    between atoms: C_28  and  O_29
REMARK    9  A    between atoms: C_30  and  O_31
REMARK                            x       y       z     vdW  Elec       q    Type
REMARK                         _______ _______ _______ _____ _____    ______ ____
ROOT
ATOM      1  N   UNL     1       2.721   5.281  19.753  0.00  0.00    +0.000 N 
ATOM      2  C   UNL     1       1.900   5.409  20.845  0.00  0.00    +0.000 A 
ATOM      3  N   UNL     1       1.369   6.610  20.927  0.00  0.00    +0.000 NA
ATOM      4  C   UNL     1       1.850   7.291  19.828  0.00  0.00    +0.000 A 
ATOM      5  C   UNL     1       1.660   8.573  19.319  0.00  0.00    +0.000 A 
ATOM      6  N   UNL     1       2.267   8.960  18.172  0.00  0.00    +0.000 NA
ATOM      7  C   UNL     1       3.055   8.054  17.558  0.00  0.00    +0.000 A 
ATOM      8  N   UNL     1       3.323   6.788  17.936  0.00  0.00    +0.000 NA
ATOM      9  C   UNL     1       2.693   6.474  19.082  0.00  0.00    +0.000 A 
ENDROOT
BRANCH   1  12
ATOM     10  C   UNL     1       4.776   3.366  17.594  0.00  0.00    +0.000 C 
ATOM     11  O   UNL     1       4.584   4.393  18.597  0.00  0.00    +0.000 OA
ATOM     12  C   UNL     1       3.416   4.070  19.376  0.00  0.00    +0.000 C 
ATOM     13  C   UNL     1       2.591   3.073  18.567  0.00  0.00    +0.000 C 
ATOM     14  C   UNL     1       3.677   2.319  17.814  0.00  0.00    +0.000 C 
BRANCH  13  15
ATOM     15  O   UNL     1       1.828   2.199  19.401  0.00  0.00    +0.000 OA
ATOM     16  H   UNL     1       2.232   1.310  19.312  0.00  0.00    +0.000 HD
ENDBRANCH  13  15
BRANCH  14  17
ATOM     17  O   UNL     1       4.127   1.235  18.648  0.00  0.00    +0.000 OA
ATOM     18  H   UNL     1       3.983   1.463  19.585  0.00  0.00    +0.000 HD
ENDBRANCH  14  17
BRANCH  10  19
ATOM     19  C   UNL     1       4.730   3.976  16.190  0.00  0.00    +0.000 C 
BRANCH  19  20
ATOM     20  O   UNL     1       5.987   3.799  15.541  0.00  0.00    +0.000 OA
BRANCH  20  21
ATOM     21  S   UNL     1       7.108   4.937  15.818  0.00  0.00    +0.000 S 
ATOM     22  O   UNL     1       7.671   5.369  14.563  0.00  0.00    +0.000 OA
ATOM     23  O   UNL     1       7.937   4.498  16.915  0.00  0.00    +0.000 OA
BRANCH  21  24
ATOM     24  N   UNL     1       6.239   6.234  16.415  0.00  0.00    +0.000 NA
ATOM     25  H   UNL     1       5.253   5.971  16.466  0.00  0.00    +0.000 HD
ATOM     26  H   UNL     1       6.389   7.043  15.813  0.00  0.00    +0.000 HD
ENDBRANCH  21  24
ENDBRANCH  20  21
ENDBRANCH  19  20
ENDBRANCH  10  19
ENDBRANCH   1  12
BRANCH   5  27
ATOM     27  C   UNL     1       0.810   9.522  19.954  0.00  0.00    +0.000 C 
ATOM     28  C   UNL     1       0.093  10.312  20.513  0.00  0.00    +0.000 C 
BRANCH  28  29
ATOM     29  C   UNL     1      -0.758  11.262  21.155  0.00  0.00    +0.000 A 
ATOM     30  C   UNL     1      -0.833  11.308  22.552  0.00  0.00    +0.000 A 
ATOM     31  C   UNL     1      -1.711  12.197  23.175  0.00  0.00    +0.000 A 
ATOM     32  C   UNL     1      -2.508  13.042  22.402  0.00  0.00    +0.000 A 
ATOM     33 CL   UNL     1      -3.622  14.105  23.168  0.00  0.00    +0.000 Cl
ATOM     34  C   UNL     1      -2.415  13.021  21.011  0.00  0.00    +0.000 A 
ATOM     35  C   UNL     1      -1.538  12.131  20.388  0.00  0.00    +0.000 A 
ENDBRANCH  28  29
ENDBRANCH   5  27
TORSDOF 9
ENDMDL
MODEL 3
REMARK VINA RESULT:      -8.1      0.592      1.043
REMARK  Name = 
REMARK  9 active torsions:
REMARK  status: ('A' for Active; 'I' for Inactive)
REMARK    1  A    between atoms: N_1  and  S_2
REMARK    2  A    between atoms: S_2  and  O_5
REMARK    3  A    between atoms: O_5  and  C_6
REMARK    4  A    between atoms: C_6  and  C_7
REMARK    5  A    between atoms: C_9  and  N_10
REMARK    6  A    between atoms: C_14  and  C_15
REMARK    7  A    between atoms: C_16  and  C_17
REMARK    8  A    between atoms: C_28  and  O_29
REMARK    9  A    between atoms: C_30  and  O_31
REMARK                            x       y       z     vdW  Elec       q    Type
REMARK                         _______ _______ _______ _____ _____    ______ ____
ROOT
ATOM      1  N   UNL     1       5.488   4.180  18.383  0.00  0.00    +0.000 N 
ATOM      2  C   UNL     1       5.538   4.935  19.527  0.00  0.00    +0.000 A 
ATOM      3  N   UNL     1       6.252   6.029  19.366  0.00  0.00    +0.000 NA
ATOM      4  C   UNL     1       6.672   5.994  18.052  0.00  0.00    +0.000 A 
ATOM      5  C   UNL     1       7.426   6.845  17.249  0.00  0.00    +0.000 A 
ATOM      6  N   UNL     1       7.659   6.546  15.950  0.00  0.00    +0.000 NA
ATOM      7  C   UNL     1       7.133   5.397  15.479  0.00  0.00    +0.000 A 
ATOM      8  N   UNL     1       6.386   4.488  16.140  0.00  0.00    +0.000 NA
ATOM      9  C   UNL     1       6.200   4.847  17.423  0.00  0.00    +0.000 A 
ENDROOT
BRANCH   1  12
ATOM     10  C   UNL     1       2.509   2.322  17.902  0.00  0.00    +0.000 C 
ATOM     11  O   UNL     1       3.588   3.156  17.414  0.00  0.00    +0.000 OA
ATOM     12  C   UNL     1       4.750   2.943  18.238  0.00  0.00    +0.000 C 
ATOM     13  C   UNL     1       4.272   2.315  19.544  0.00  0.00    +0.000 C 
ATOM     14  C   UNL     1       3.072   1.508  19.073  0.00  0.00    +0.000 C 
BRANCH  13  15
ATOM     15  O   UNL     1       5.268   1.480  20.138  0.00  0.00    +0.000 OA
ATOM     16  H   UNL     1       5.891   1.240  19.420  0.00  0.00    +0.000 HD
ENDBRANCH  13  15
BRANCH  14  17
ATOM     17  O   UNL     1       3.545   0.215  18.650  0.00  0.00    +0.000 OA
ATOM     18  H   UNL     1       4.284  -0.065  19.220  0.00  0.00    +0.000 HD
ENDBRANCH  14  17
BRANCH  10  19
ATOM     19  C   UNL     1       1.312   3.184  18.312  0.00  0.00    +0.000 C 
BRANCH  19  20
ATOM     20  O   UNL     1       1.765   4.377  18.947  0.00  0.00    +0.000 OA
BRANCH  20  21
ATOM     21  S   UNL     1       1.342   4.574  20.500  0.00  0.00    +0.000 S 
ATOM     22  O   UNL     1       0.908   3.310  21.041  0.00  0.00    +0.000 OA
ATOM     23  O   UNL     1       0.535   5.766  20.601  0.00  0.00    +0.000 OA
BRANCH  21  24
ATOM     24  N   UNL     1       2.777   4.948  21.272  0.00  0.00    +0.000 NA
ATOM     25  H   UNL     1       3.469   4.234  21.038  0.00  0.00    +0.000 HD
ATOM     26  H   UNL     1       2.611   5.005  22.276  0.00  0.00    +0.000 HD
ENDBRANCH  21  24
ENDBRANCH  20  21
ENDBRANCH  19  20
ENDBRANCH  10  19
ENDBRANCH   1  12
BRANCH   5  27
ATOM     27  C   UNL     1       7.962   8.069  17.739  0.00  0.00    +0.000 C 
ATOM     28  C   UNL     1       8.427   9.093  18.171  0.00  0.00    +0.000 C 
BRANCH  28  29
ATOM     29  C   UNL     1       8.968  10.319  18.665  0.00  0.00    +0.000 A 
ATOM     30  C   UNL     1       9.512  10.380  19.953  0.00  0.00    +0.000 A 
ATOM     31  C   UNL     1       9.984  11.593  20.455  0.00  0.00    +0.000 A 
ATOM     32  C   UNL     1       9.920  12.743  19.666  0.00  0.00    +0.000 A 
ATOM     33 CL   UNL     1      10.461  14.247  20.301  0.00  0.00    +0.000 Cl
ATOM     34  C   UNL     1       9.408  12.681  18.371  0.00  0.00    +0.000 A 
ATOM     35  C   UNL     1       8.934  11.468  17.870  0.00  0.00    +0.000 A 
ENDBRANCH  28  29
ENDBRANCH   5  27
TORSDOF 9
ENDMDL
MODEL 4
REMARK VINA RESULT:      -7.9      6.062      7.160
REMARK  Name = 
REMARK  9 active torsions:
REMARK  status: ('A' for Active; 'I' for Inactive)
REMARK    1  A    between atoms: N_1  and  S_2
REMARK    2  A    between atoms: S_2  and  O_5
REMARK    3  A    between atoms: O_5  and  C_6
REMARK    4  A    between atoms: C_6  and  C_7
REMARK    5  A    between atoms: C_9  and  N_10
REMARK    6  A    between atoms: C_14  and  C_15
REMARK    7  A    between atoms: C_16  and  C_17
REMARK    8  A    between atoms: C_28  and  O_29
REMARK    9  A    between atoms: C_30  and  O_31
REMARK                            x       y       z     vdW  Elec       q    Type
REMARK                         _______ _______ _______ _____ _____    ______ ____
ROOT
ATOM      1  N   UNL     1       2.300   5.376  19.799  0.00  0.00    +0.000 N 
ATOM      2  C   UNL     1       1.655   5.586  20.992  0.00  0.00    +0.000 A 
ATOM      3  N   UNL     1       1.302   6.844  21.149  0.00  0.00    +0.000 NA
ATOM      4  C   UNL     1       1.719   7.480  19.998  0.00  0.00    +0.000 A 
ATOM      5  C   UNL     1       1.635   8.787  19.524  0.00  0.00    +0.000 A 
ATOM      6  N   UNL     1       2.130   9.116  18.309  0.00  0.00    +0.000 NA
ATOM      7  C   UNL     1       2.705   8.129  17.591  0.00  0.00    +0.000 A 
ATOM      8  N   UNL     1       2.851   6.831  17.924  0.00  0.00    +0.000 NA
ATOM      9  C   UNL     1       2.342   6.577  19.143  0.00  0.00    +0.000 A 
ENDROOT
BRANCH   1  12
ATOM     10  C   UNL     1       4.232   3.321  17.655  0.00  0.00    +0.000 C 
ATOM     11  O   UNL     1       4.098   4.229  18.776  0.00  0.00    +0.000 OA
ATOM     12  C   UNL     1       2.774   4.093  19.327  0.00  0.00    +0.000 C 
ATOM     13  C   UNL     1       1.904   3.430  18.264  0.00  0.00    +0.000 C 
ATOM     14  C   UNL     1       2.914   2.544  17.552  0.00  0.00    +0.000 C 
BRANCH  13  15
ATOM     15  O   UNL     1       0.843   2.662  18.836  0.00  0.00    +0.000 OA
ATOM     16  H   UNL     1       0.493   3.190  19.585  0.00  0.00    +0.000 HD
ENDBRANCH  13  15
BRANCH  14  17
ATOM     17  O   UNL     1       2.976   1.287  18.253  0.00  0.00    +0.000 OA
ATOM     18  H   UNL     1       2.245   0.714  17.959  0.00  0.00    +0.000 HD
ENDBRANCH  14  17
BRANCH  10  19
ATOM     19  C   UNL     1       4.553   4.098  16.375  0.00  0.00    +0.000 C 
BRANCH  19  20
ATOM     20  O   UNL     1       5.880   3.803  15.946  0.00  0.00    +0.000 OA
BRANCH  20  21
ATOM     21  S   UNL     1       7.019   4.896  16.318  0.00  0.00    +0.000 S 
ATOM     22  O   UNL     1       8.083   4.249  17.045  0.00  0.00    +0.000 OA
ATOM     23  O   UNL     1       6.363   6.080  16.818  0.00  0.00    +0.000 OA
BRANCH  21  24
ATOM     24  N   UNL     1       7.661   5.340  14.840  0.00  0.00    +0.000 NA
ATOM     25  H   UNL     1       7.793   4.499  14.275  0.00  0.00    +0.000 HD
ATOM     26  H   UNL     1       8.537   5.840  14.992  0.00  0.00    +0.000 HD
ENDBRANCH  21  24
ENDBRANCH  20  21
ENDBRANCH  19  20
ENDBRANCH  10  19
ENDBRANCH   1  12
BRANCH   5  27
ATOM     27  C   UNL     1       1.008   9.823  20.271  0.00  0.00    +0.000 C 
ATOM     28  C   UNL     1       0.463  10.705  20.885  0.00  0.00    +0.000 C 
BRANCH  28  29
ATOM     29  C   UNL     1      -0.170  11.745  21.632  0.00  0.00    +0.000 A 
ATOM     30  C   UNL     1       0.266  13.069  21.504  0.00  0.00    +0.000 A 
ATOM     31  C   UNL     1      -0.314  14.073  22.281  0.00  0.00    +0.000 A 
ATOM     32  C   UNL     1      -1.333  13.754  23.179  0.00  0.00    +0.000 A 
ATOM     33 CL   UNL     1      -2.018  14.983  24.169  0.00  0.00    +0.000 Cl
ATOM     34  C   UNL     1      -1.793  12.442  23.288  0.00  0.00    +0.000 A 
ATOM     35  C   UNL     1      -1.211  11.438  22.512  0.00  0.00    +0.000 A 
ENDBRANCH  28  29
ENDBRANCH   5  27
TORSDOF 9
ENDMDL
MODEL 5
REMARK VINA RESULT:      -7.9      6.303      7.825
REMARK  Name = 
REMARK  9 active torsions:
REMARK  status: ('A' for Active; 'I' for Inactive)
REMARK    1  A    between atoms: N_1  and  S_2
REMARK    2  A    between atoms: S_2  and  O_5
REMARK    3  A    between atoms: O_5  and  C_6
REMARK    4  A    between atoms: C_6  and  C_7
REMARK    5  A    between atoms: C_9  and  N_10
REMARK    6  A    between atoms: C_14  and  C_15
REMARK    7  A    between atoms: C_16  and  C_17
REMARK    8  A    between atoms: C_28  and  O_29
REMARK    9  A    between atoms: C_30  and  O_31
REMARK                            x       y       z     vdW  Elec       q    Type
REMARK                         _______ _______ _______ _____ _____    ______ ____
ROOT
ATOM      1  N   UNL     1       2.601   5.669  19.646  0.00  0.00    +0.000 N 
ATOM      2  C   UNL     1       1.803   5.720  20.761  0.00  0.00    +0.000 A 
ATOM      3  N   UNL     1       1.241   6.900  20.913  0.00  0.00    +0.000 NA
ATOM      4  C   UNL     1       1.677   7.647  19.838  0.00  0.00    +0.000 A 
ATOM      5  C   UNL     1       1.440   8.946  19.397  0.00  0.00    +0.000 A 
ATOM      6  N   UNL     1       2.008   9.405  18.257  0.00  0.00    +0.000 NA
ATOM      7  C   UNL     1       2.807   8.553  17.582  0.00  0.00    +0.000 A 
ATOM      8  N   UNL     1       3.119   7.278  17.892  0.00  0.00    +0.000 NA
ATOM      9  C   UNL     1       2.524   6.892  19.035  0.00  0.00    +0.000 A 
ENDROOT
BRANCH   1  12
ATOM     10  C   UNL     1       5.443   4.038  18.301  0.00  0.00    +0.000 C 
ATOM     11  O   UNL     1       4.736   4.684  19.386  0.00  0.00    +0.000 OA
ATOM     12  C   UNL     1       3.320   4.498  19.195  0.00  0.00    +0.000 C 
ATOM     13  C   UNL     1       3.104   4.126  17.731  0.00  0.00    +0.000 C 
ATOM     14  C   UNL     1       4.385   3.368  17.417  0.00  0.00    +0.000 C 
BRANCH  13  15
ATOM     15  O   UNL     1       1.949   3.306  17.546  0.00  0.00    +0.000 OA
ATOM     16  H   UNL     1       1.874   3.149  16.581  0.00  0.00    +0.000 HD
ENDBRANCH  13  15
BRANCH  14  17
ATOM     17  O   UNL     1       4.183   1.987  17.773  0.00  0.00    +0.000 OA
ATOM     18  H   UNL     1       4.996   1.481  17.591  0.00  0.00    +0.000 HD
ENDBRANCH  14  17
BRANCH  10  19
ATOM     19  C   UNL     1       6.287   5.058  17.531  0.00  0.00    +0.000 C 
BRANCH  19  20
ATOM     20  O   UNL     1       7.056   4.397  16.529  0.00  0.00    +0.000 OA
BRANCH  20  21
ATOM     21  S   UNL     1       6.763   4.828  14.993  0.00  0.00    +0.000 S 
ATOM     22  O   UNL     1       6.177   3.714  14.288  0.00  0.00    +0.000 OA
ATOM     23  O   UNL     1       7.921   5.526  14.490  0.00  0.00    +0.000 OA
BRANCH  21  24
ATOM     24  N   UNL     1       5.566   5.989  15.113  0.00  0.00    +0.000 NA
ATOM     25  H   UNL     1       4.835   5.642  15.736  0.00  0.00    +0.000 HD
ATOM     26  H   UNL     1       5.209   6.199  14.182  0.00  0.00    +0.000 HD
ENDBRANCH  21  24
ENDBRANCH  20  21
ENDBRANCH  19  20
ENDBRANCH  10  19
ENDBRANCH   1  12
BRANCH   5  27
ATOM     27  C   UNL     1       0.579   9.838  20.096  0.00  0.00    +0.000 C 
ATOM     28  C   UNL     1      -0.169  10.584  20.676  0.00  0.00    +0.000 C 
BRANCH  28  29
ATOM     29  C   UNL     1      -1.037  11.475  21.377  0.00  0.00    +0.000 A 
ATOM     30  C   UNL     1      -1.267  11.301  22.747  0.00  0.00    +0.000 A 
ATOM     31  C   UNL     1      -2.163  12.136  23.416  0.00  0.00    +0.000 A 
ATOM     32  C   UNL     1      -2.823  13.148  22.717  0.00  0.00    +0.000 A 
ATOM     33 CL   UNL     1      -3.960  14.148  23.532  0.00  0.00    +0.000 Cl
ATOM     34  C   UNL     1      -2.574  13.345  21.360  0.00  0.00    +0.000 A 
ATOM     35  C   UNL     1      -1.679  12.508  20.690  0.00  0.00    +0.000 A 
ENDBRANCH  28  29
ENDBRANCH   5  27
TORSDOF 9
ENDMDL
MODEL 6
REMARK VINA RESULT:      -7.8      6.026      7.142
REMARK  Name = 
REMARK  9 active torsions:
REMARK  status: ('A' for Active; 'I' for Inactive)
REMARK    1  A    between atoms: N_1  and  S_2
REMARK    2  A    between atoms: S_2  and  O_5
REMARK    3  A    between atoms: O_5  and  C_6
REMARK    4  A    between atoms: C_6  and  C_7
REMARK    5  A    between atoms: C_9  and  N_10
REMARK    6  A    between atoms: C_14  and  C_15
REMARK    7  A    between atoms: C_16  and  C_17
REMARK    8  A    between atoms: C_28  and  O_29
REMARK    9  A    between atoms: C_30  and  O_31
REMARK                            x       y       z     vdW  Elec       q    Type
REMARK                         _______ _______ _______ _____ _____    ______ ____
ROOT
ATOM      1  N   UNL     1       2.413   5.217  19.830  0.00  0.00    +0.000 N 
ATOM      2  C   UNL     1       1.756   5.408  21.019  0.00  0.00    +0.000 A 
ATOM      3  N   UNL     1       1.373   6.657  21.178  0.00  0.00    +0.000 NA
ATOM      4  C   UNL     1       1.782   7.306  20.031  0.00  0.00    +0.000 A 
ATOM      5  C   UNL     1       1.669   8.612  19.561  0.00  0.00    +0.000 A 
ATOM      6  N   UNL     1       2.164   8.957  18.349  0.00  0.00    +0.000 NA
ATOM      7  C   UNL     1       2.766   7.986  17.632  0.00  0.00    +0.000 A 
ATOM      8  N   UNL     1       2.941   6.690  17.962  0.00  0.00    +0.000 NA
ATOM      9  C   UNL     1       2.430   6.421  19.177  0.00  0.00    +0.000 A 
ENDROOT
BRANCH   1  12
ATOM     10  C   UNL     1       4.328   3.207  17.629  0.00  0.00    +0.000 C 
ATOM     11  O   UNL     1       4.208   4.129  18.740  0.00  0.00    +0.000 OA
ATOM     12  C   UNL     1       2.919   3.947  19.357  0.00  0.00    +0.000 C 
ATOM     13  C   UNL     1       2.029   3.227  18.348  0.00  0.00    +0.000 C 
ATOM     14  C   UNL     1       3.043   2.372  17.603  0.00  0.00    +0.000 C 
BRANCH  13  15
ATOM     15  O   UNL     1       1.031   2.426  18.983  0.00  0.00    +0.000 OA
ATOM     16  H   UNL     1       1.395   2.175  19.858  0.00  0.00    +0.000 HD
ENDBRANCH  13  15
BRANCH  14  17
ATOM     17  O   UNL     1       3.193   1.133  18.321  0.00  0.00    +0.000 OA
ATOM     18  H   UNL     1       2.600   0.460  17.937  0.00  0.00    +0.000 HD
ENDBRANCH  14  17
BRANCH  10  19
ATOM     19  C   UNL     1       4.554   3.973  16.323  0.00  0.00    +0.000 C 
BRANCH  19  20
ATOM     20  O   UNL     1       5.930   4.327  16.197  0.00  0.00    +0.000 OA
BRANCH  20  21
ATOM     21  S   UNL     1       6.269   5.912  16.190  0.00  0.00    +0.000 S 
ATOM     22  O   UNL     1       5.272   6.612  15.419  0.00  0.00    +0.000 OA
ATOM     23  O   UNL     1       7.681   6.072  15.937  0.00  0.00    +0.000 OA
BRANCH  21  24
ATOM     24  N   UNL     1       6.051   6.385  17.779  0.00  0.00    +0.000 NA
ATOM     25  H   UNL     1       6.666   7.178  17.971  0.00  0.00    +0.000 HD
ATOM     26  H   UNL     1       6.242   5.595  18.393  0.00  0.00    +0.000 HD
ENDBRANCH  21  24
ENDBRANCH  20  21
ENDBRANCH  19  20
ENDBRANCH  10  19
ENDBRANCH   1  12
BRANCH   5  27
ATOM     27  C   UNL     1       1.014   9.631  20.307  0.00  0.00    +0.000 C 
ATOM     28  C   UNL     1       0.480  10.507  20.939  0.00  0.00    +0.000 C 
BRANCH  28  29
ATOM     29  C   UNL     1      -0.174  11.533  21.686  0.00  0.00    +0.000 A 
ATOM     30  C   UNL     1      -1.205  11.208  22.575  0.00  0.00    +0.000 A 
ATOM     31  C   UNL     1      -1.883  12.219  23.258  0.00  0.00    +0.000 A 
ATOM     32  C   UNL     1      -1.527  13.553  23.056  0.00  0.00    +0.000 A 
ATOM     33 CL   UNL     1      -2.392  14.802  23.862  0.00  0.00    +0.000 Cl
ATOM     34  C   UNL     1      -0.481  13.880  22.194  0.00  0.00    +0.000 A 
ATOM     35  C   UNL     1       0.197  12.869  21.510  0.00  0.00    +0.000 A 
ENDBRANCH  28  29
ENDBRANCH   5  27
TORSDOF 9
ENDMDL
MODEL 7
REMARK VINA RESULT:      -7.8      6.109      7.182
REMARK  Name = 
REMARK  9 active torsions:
REMARK  status: ('A' for Active; 'I' for Inactive)
REMARK    1  A    between atoms: N_1  and  S_2
REMARK    2  A    between atoms: S_2  and  O_5
REMARK    3  A    between atoms: O_5  and  C_6
REMARK    4  A    between atoms: C_6  and  C_7
REMARK    5  A    between atoms: C_9  and  N_10
REMARK    6  A    between atoms: C_14  and  C_15
REMARK    7  A    between atoms: C_16  and  C_17
REMARK    8  A    between atoms: C_28  and  O_29
REMARK    9  A    between atoms: C_30  and  O_31
REMARK                            x       y       z     vdW  Elec       q    Type
REMARK                         _______ _______ _______ _____ _____    ______ ____
ROOT
ATOM      1  N   UNL     1       2.403   5.429  19.748  0.00  0.00    +0.000 N 
ATOM      2  C   UNL     1       1.781   5.610  20.957  0.00  0.00    +0.000 A 
ATOM      3  N   UNL     1       1.388   6.853  21.131  0.00  0.00    +0.000 NA
ATOM      4  C   UNL     1       1.753   7.510  19.974  0.00  0.00    +0.000 A 
ATOM      5  C   UNL     1       1.610   8.815  19.510  0.00  0.00    +0.000 A 
ATOM      6  N   UNL     1       2.063   9.168  18.284  0.00  0.00    +0.000 NA
ATOM      7  C   UNL     1       2.653   8.206  17.546  0.00  0.00    +0.000 A 
ATOM      8  N   UNL     1       2.854   6.911  17.868  0.00  0.00    +0.000 NA
ATOM      9  C   UNL     1       2.385   6.634  19.098  0.00  0.00    +0.000 A 
ENDROOT
BRANCH   1  12
ATOM     10  C   UNL     1       4.530   3.463  17.708  0.00  0.00    +0.000 C 
ATOM     11  O   UNL     1       4.287   4.309  18.858  0.00  0.00    +0.000 OA
ATOM     12  C   UNL     1       2.910   4.166  19.257  0.00  0.00    +0.000 C 
ATOM     13  C   UNL     1       2.151   3.578  18.071  0.00  0.00    +0.000 C 
ATOM     14  C   UNL     1       3.222   2.716  17.421  0.00  0.00    +0.000 C 
BRANCH  13  15
ATOM     15  O   UNL     1       1.026   2.799  18.482  0.00  0.00    +0.000 OA
ATOM     16  H   UNL     1       1.051   2.774  19.462  0.00  0.00    +0.000 HD
ENDBRANCH  13  15
BRANCH  14  17
ATOM     17  O   UNL     1       3.194   1.421  18.052  0.00  0.00    +0.000 OA
ATOM     18  H   UNL     1       2.743   1.488  18.914  0.00  0.00    +0.000 HD
ENDBRANCH  14  17
BRANCH  10  19
ATOM     19  C   UNL     1       4.995   4.304  16.516  0.00  0.00    +0.000 C 
BRANCH  19  20
ATOM     20  O   UNL     1       5.587   5.516  16.976  0.00  0.00    +0.000 OA
BRANCH  20  21
ATOM     21  S   UNL     1       7.202   5.521  17.120  0.00  0.00    +0.000 S 
ATOM     22  O   UNL     1       7.699   6.856  16.890  0.00  0.00    +0.000 OA
ATOM     23  O   UNL     1       7.724   4.380  16.406  0.00  0.00    +0.000 OA
BRANCH  21  24
ATOM     24  N   UNL     1       7.473   5.191  18.736  0.00  0.00    +0.000 NA
ATOM     25  H   UNL     1       8.431   5.457  18.968  0.00  0.00    +0.000 HD
ATOM     26  H   UNL     1       7.297   4.202  18.910  0.00  0.00    +0.000 HD
ENDBRANCH  21  24
ENDBRANCH  20  21
ENDBRANCH  19  20
ENDBRANCH  10  19
ENDBRANCH   1  12
BRANCH   5  27
ATOM     27  C   UNL     1       0.966   9.825  20.279  0.00  0.00    +0.000 C 
ATOM     28  C   UNL     1       0.412  10.689  20.909  0.00  0.00    +0.000 C 
BRANCH  28  29
ATOM     29  C   UNL     1      -0.238  11.703  21.676  0.00  0.00    +0.000 A 
ATOM     30  C   UNL     1       0.164  13.039  21.561  0.00  0.00    +0.000 A 
ATOM     31  C   UNL     1      -0.432  14.018  22.358  0.00  0.00    +0.000 A 
ATOM     32  C   UNL     1      -1.432  13.663  23.263  0.00  0.00    +0.000 A 
ATOM     33 CL   UNL     1      -2.135  14.862  24.277  0.00  0.00    +0.000 Cl
ATOM     34  C   UNL     1      -1.858  12.338  23.360  0.00  0.00    +0.000 A 
ATOM     35  C   UNL     1      -1.261  11.359  22.564  0.00  0.00    +0.000 A 
ENDBRANCH  28  29
ENDBRANCH   5  27
TORSDOF 9
ENDMDL
MODEL 8
REMARK VINA RESULT:      -7.8      6.837      8.164
REMARK  Name = 
REMARK  9 active torsions:
REMARK  status: ('A' for Active; 'I' for Inactive)
REMARK    1  A    between atoms: N_1  and  S_2
REMARK    2  A    between atoms: S_2  and  O_5
REMARK    3  A    between atoms: O_5  and  C_6
REMARK    4  A    between atoms: C_6  and  C_7
REMARK    5  A    between atoms: C_9  and  N_10
REMARK    6  A    between atoms: C_14  and  C_15
REMARK    7  A    between atoms: C_16  and  C_17
REMARK    8  A    between atoms: C_28  and  O_29
REMARK    9  A    between atoms: C_30  and  O_31
REMARK                            x       y       z     vdW  Elec       q    Type
REMARK                         _______ _______ _______ _____ _____    ______ ____
ROOT
ATOM      1  N   UNL     1       2.281   6.674  19.802  0.00  0.00    +0.000 N 
ATOM      2  C   UNL     1       1.710   6.683  21.049  0.00  0.00    +0.000 A 
ATOM      3  N   UNL     1       1.149   7.841  21.328  0.00  0.00    +0.000 NA
ATOM      4  C   UNL     1       1.347   8.616  20.203  0.00  0.00    +0.000 A 
ATOM      5  C   UNL     1       0.988   9.911  19.839  0.00  0.00    +0.000 A 
ATOM      6  N   UNL     1       1.314  10.403  18.621  0.00  0.00    +0.000 NA
ATOM      7  C   UNL     1       1.996   9.587  17.790  0.00  0.00    +0.000 A 
ATOM      8  N   UNL     1       2.402   8.320  18.011  0.00  0.00    +0.000 NA
ATOM      9  C   UNL     1       2.050   7.900  19.239  0.00  0.00    +0.000 A 
ENDROOT
BRANCH   1  12
ATOM     10  C   UNL     1       4.559   5.179  17.537  0.00  0.00    +0.000 C 
ATOM     11  O   UNL     1       4.257   5.904  18.755  0.00  0.00    +0.000 OA
ATOM     12  C   UNL     1       2.939   5.534  19.201  0.00  0.00    +0.000 C 
ATOM     13  C   UNL     1       2.211   4.918  18.009  0.00  0.00    +0.000 C 
ATOM     14  C   UNL     1       3.360   4.267  17.254  0.00  0.00    +0.000 C 
BRANCH  13  15
ATOM     15  O   UNL     1       1.234   3.956  18.411  0.00  0.00    +0.000 OA
ATOM     16  H   UNL     1       1.334   3.192  17.805  0.00  0.00    +0.000 HD
ENDBRANCH  13  15
BRANCH  14  17
ATOM     17  O   UNL     1       3.552   2.944  17.791  0.00  0.00    +0.000 OA
ATOM     18  H   UNL     1       3.982   2.380  17.122  0.00  0.00    +0.000 HD
ENDBRANCH  14  17
BRANCH  10  19
ATOM     19  C   UNL     1       4.835   6.155  16.390  0.00  0.00    +0.000 C 
BRANCH  19  20
ATOM     20  O   UNL     1       6.236   6.228  16.139  0.00  0.00    +0.000 OA
BRANCH  20  21
ATOM     21  S   UNL     1       6.922   4.911  15.487  0.00  0.00    +0.000 S 
ATOM     22  O   UNL     1       5.903   4.096  14.872  0.00  0.00    +0.000 OA
ATOM     23  O   UNL     1       7.858   4.369  16.442  0.00  0.00    +0.000 OA
BRANCH  21  24
ATOM     24  N   UNL     1       7.860   5.510  14.241  0.00  0.00    +0.000 NA
ATOM     25  H   UNL     1       8.674   5.980  14.641  0.00  0.00    +0.000 HD
ATOM     26  H   UNL     1       7.297   6.140  13.670  0.00  0.00    +0.000 HD
ENDBRANCH  21  24
ENDBRANCH  20  21
ENDBRANCH  19  20
ENDBRANCH  10  19
ENDBRANCH   1  12
BRANCH   5  27
ATOM     27  C   UNL     1       0.249  10.763  20.706  0.00  0.00    +0.000 C 
ATOM     28  C   UNL     1      -0.367  11.474  21.459  0.00  0.00    +0.000 C 
BRANCH  28  29
ATOM     29  C   UNL     1      -1.105  12.329  22.332  0.00  0.00    +0.000 A 
ATOM     30  C   UNL     1      -2.326  11.901  22.868  0.00  0.00    +0.000 A 
ATOM     31  C   UNL     1      -3.075  12.763  23.672  0.00  0.00    +0.000 A 
ATOM     32  C   UNL     1      -2.600  14.046  23.945  0.00  0.00    +0.000 A 
ATOM     33 CL   UNL     1      -3.543  15.123  24.899  0.00  0.00    +0.000 Cl
ATOM     34  C   UNL     1      -1.370  14.465  23.439  0.00  0.00    +0.000 A 
ATOM     35  C   UNL     1      -0.622  13.604  22.633  0.00  0.00    +0.000 A 
ENDBRANCH  28  29
ENDBRANCH   5  27
TORSDOF 9
ENDMDL
MODEL 9
REMARK VINA RESULT:      -7.8      6.745      8.044
REMARK  Name = 
REMARK  9 active torsions:
REMARK  status: ('A' for Active; 'I' for Inactive)
REMARK    1  A    between atoms: N_1  and  S_2
REMARK    2  A    between atoms: S_2  and  O_5
REMARK    3  A    between atoms: O_5  and  C_6
REMARK    4  A    between atoms: C_6  and  C_7
REMARK    5  A    between atoms: C_9  and  N_10
REMARK    6  A    between atoms: C_14  and  C_15
REMARK    7  A    between atoms: C_16  and  C_17
REMARK    8  A    between atoms: C_28  and  O_29
REMARK    9  A    between atoms: C_30  and  O_31
REMARK                            x       y       z     vdW  Elec       q    Type
REMARK                         _______ _______ _______ _____ _____    ______ ____
ROOT
ATOM      1  N   UNL     1       2.219   6.455  19.839  0.00  0.00    +0.000 N 
ATOM      2  C   UNL     1       1.607   6.496  21.066  0.00  0.00    +0.000 A 
ATOM      3  N   UNL     1       1.087   7.678  21.321  0.00  0.00    +0.000 NA
ATOM      4  C   UNL     1       1.356   8.437  20.200  0.00  0.00    +0.000 A 
ATOM      5  C   UNL     1       1.065   9.745  19.819  0.00  0.00    +0.000 A 
ATOM      6  N   UNL     1       1.452  10.216  18.611  0.00  0.00    +0.000 NA
ATOM      7  C   UNL     1       2.126   9.368  17.807  0.00  0.00    +0.000 A 
ATOM      8  N   UNL     1       2.471   8.086  18.047  0.00  0.00    +0.000 NA
ATOM      9  C   UNL     1       2.060   7.687  19.264  0.00  0.00    +0.000 A 
ENDROOT
BRANCH   1  12
ATOM     10  C   UNL     1       4.883   4.788  18.203  0.00  0.00    +0.000 C 
ATOM     11  O   UNL     1       4.279   5.390  19.374  0.00  0.00    +0.000 OA
ATOM     12  C   UNL     1       2.847   5.285  19.264  0.00  0.00    +0.000 C 
ATOM     13  C   UNL     1       2.521   5.028  17.796  0.00  0.00    +0.000 C 
ATOM     14  C   UNL     1       3.738   4.233  17.348  0.00  0.00    +0.000 C 
BRANCH  13  15
ATOM     15  O   UNL     1       1.315   4.278  17.633  0.00  0.00    +0.000 OA
ATOM     16  H   UNL     1       1.581   3.336  17.581  0.00  0.00    +0.000 HD
ENDBRANCH  13  15
BRANCH  14  17
ATOM     17  O   UNL     1       3.487   2.842  17.625  0.00  0.00    +0.000 OA
ATOM     18  H   UNL     1       2.586   2.737  17.981  0.00  0.00    +0.000 HD
ENDBRANCH  14  17
BRANCH  10  19
ATOM     19  C   UNL     1       5.728   5.818  17.449  0.00  0.00    +0.000 C 
BRANCH  19  20
ATOM     20  O   UNL     1       5.647   5.582  16.046  0.00  0.00    +0.000 OA
BRANCH  20  21
ATOM     21  S   UNL     1       6.868   4.744  15.384  0.00  0.00    +0.000 S 
ATOM     22  O   UNL     1       7.723   5.644  14.650  0.00  0.00    +0.000 OA
ATOM     23  O   UNL     1       6.324   3.550  14.784  0.00  0.00    +0.000 OA
BRANCH  21  24
ATOM     24  N   UNL     1       7.759   4.212  16.693  0.00  0.00    +0.000 NA
ATOM     25  H   UNL     1       7.446   3.273  16.942  0.00  0.00    +0.000 HD
ATOM     26  H   UNL     1       7.647   4.870  17.464  0.00  0.00    +0.000 HD
ENDBRANCH  21  24
ENDBRANCH  20  21
ENDBRANCH  19  20
ENDBRANCH  10  19
ENDBRANCH   1  12
BRANCH   5  27
ATOM     27  C   UNL     1       0.334  10.632  20.657  0.00  0.00    +0.000 C 
ATOM     28  C   UNL     1      -0.282  11.401  21.351  0.00  0.00    +0.000 C 
BRANCH  28  29
ATOM     29  C   UNL     1      -1.017  12.294  22.188  0.00  0.00    +0.000 A 
ATOM     30  C   UNL     1      -0.522  13.577  22.454  0.00  0.00    +0.000 A 
ATOM     31  C   UNL     1      -1.213  14.425  23.322  0.00  0.00    +0.000 A 
ATOM     32  C   UNL     1      -2.399  13.994  23.915  0.00  0.00    +0.000 A 
ATOM     33 CL   UNL     1      -3.227  15.022  25.019  0.00  0.00    +0.000 Cl
ATOM     34  C   UNL     1      -2.913  12.730  23.629  0.00  0.00    +0.000 A 
ATOM     35  C   UNL     1      -2.221  11.881  22.763  0.00  0.00    +0.000 A 
ENDBRANCH  28  29
ENDBRANCH   5  27
TORSDOF 9
ENDMDL
