MODEL 1
REMARK VINA RESULT:      -8.8      0.000      0.000
REMARK  Name = 
REMARK  6 active torsions:
REMARK  status: ('A' for Active; 'I' for Inactive)
REMARK    1  A    between atoms: C_1  and  C_2
REMARK    2  A    between atoms: C_2  and  C_3
REMARK    3  A    between atoms: C_2  and  N_4
REMARK    4  A    between atoms: C_8  and  C_9
REMARK    5  A    between atoms: C_13  and  N_14
REMARK    6  A    between atoms: N_17  and  C_18
REMARK                            x       y       z     vdW  Elec       q    Type
REMARK                         _______ _______ _______ _____ _____    ______ ____
ROOT
ATOM      1  N   UNL     1       1.101   8.899  19.655  0.00  0.00    +0.000 N 
ATOM      2  C   UNL     1       1.354   8.365  20.879  0.00  0.00    +0.000 C 
ATOM      3  O   UNL     1       1.026   8.851  21.953  0.00  0.00    +0.000 OA
ATOM      4  N   UNL     1       2.032   7.183  20.892  0.00  0.00    +0.000 N 
ATOM      5  H   UNL     1       1.421   8.393  18.851  0.00  0.00    +0.000 HD
ATOM      6  H   UNL     1       1.810   6.685  21.740  0.00  0.00    +0.000 HD
ENDROOT
BRANCH   4   7
ATOM      7  C   UNL     1       2.400   6.334  19.850  0.00  0.00    +0.000 A 
ATOM      8  N   UNL     1       3.213   6.972  18.984  0.00  0.00    +0.000 NA
ATOM      9  C   UNL     1       3.618   6.305  17.892  0.00  0.00    +0.000 A 
ATOM     10  C   UNL     1       3.103   5.081  17.535  0.00  0.00    +0.000 A 
ATOM     11  C   UNL     1       2.235   4.433  18.409  0.00  0.00    +0.000 A 
ATOM     12  C   UNL     1       1.708   3.192  18.036  0.00  0.00    +0.000 A 
ATOM     13  C   UNL     1       1.184   2.337  18.992  0.00  0.00    +0.000 A 
ATOM     14  C   UNL     1       0.953   2.812  20.275  0.00  0.00    +0.000 A 
ATOM     15  C   UNL     1       1.191   4.162  20.562  0.00  0.00    +0.000 A 
ATOM     16  C   UNL     1       1.928   5.001  19.658  0.00  0.00    +0.000 A 
ENDBRANCH   4   7
BRANCH   1  21
ATOM     17  C   UNL     1      -1.083  11.761  19.537  0.00  0.00    +0.000 A 
ATOM     18  C   UNL     1      -0.244  12.742  19.021  0.00  0.00    +0.000 A 
ATOM     19  C   UNL     1       1.044  12.391  18.634  0.00  0.00    +0.000 A 
ATOM     20  C   UNL     1       1.456  11.077  18.806  0.00  0.00    +0.000 A 
ATOM     21  C   UNL     1       0.590  10.178  19.416  0.00  0.00    +0.000 A 
ATOM     22  N   UNL     1      -0.664  10.500  19.772  0.00  0.00    +0.000 NA
BRANCH  17  27
ATOM     23  N   UNL     1      -3.557  11.900  18.914  0.00  0.00    +0.000 N 
ATOM     24  C   UNL     1      -4.626  12.495  19.521  0.00  0.00    +0.000 A 
ATOM     25  N   UNL     1      -4.289  12.938  20.705  0.00  0.00    +0.000 NA
ATOM     26  N   UNL     1      -2.947  12.679  20.865  0.00  0.00    +0.000 NA
ATOM     27  C   UNL     1      -2.493  12.065  19.784  0.00  0.00    +0.000 A 
BRANCH  23  29
ATOM     28  C   UNL     1      -3.402   9.815  17.592  0.00  0.00    +0.000 C 
ATOM     29  C   UNL     1      -3.577  11.340  17.567  0.00  0.00    +0.000 C 
ATOM     30  C   UNL     1      -4.858  11.726  16.811  0.00  0.00    +0.000 C 
ENDBRANCH  23  29
ENDBRANCH  17  27
ENDBRANCH   1  21
TORSDOF 4
ENDMDL
MODEL 2
REMARK VINA RESULT:      -8.6      0.857      1.052
REMARK  Name = 
REMARK  6 active torsions:
REMARK  status: ('A' for Active; 'I' for Inactive)
REMARK    1  A    between atoms: C_1  and  C_2
REMARK    2  A    between atoms: C_2  and  C_3
REMARK    3  A    between atoms: C_2  and  N_4
REMARK    4  A    between atoms: C_8  and  C_9
REMARK    5  A    between atoms: C_13  and  N_14
REMARK    6  A    between atoms: N_17  and  C_18
REMARK                            x       y       z     vdW  Elec       q    Type
REMARK                         _______ _______ _______ _____ _____    ______ ____
ROOT
ATOM      1  N   UNL     1       1.080   8.898  19.445  0.00  0.00    +0.000 N 
ATOM      2  C   UNL     1       1.406   8.471  20.694  0.00  0.00    +0.000 C 
ATOM      3  O   UNL     1       1.101   9.025  21.741  0.00  0.00    +0.000 OA
ATOM      4  N   UNL     1       2.136   7.322  20.766  0.00  0.00    +0.000 N 
ATOM      5  H   UNL     1       1.389   8.344  18.669  0.00  0.00    +0.000 HD
ATOM      6  H   UNL     1       1.971   6.883  21.658  0.00  0.00    +0.000 HD
ENDROOT
BRANCH   4   7
ATOM      7  C   UNL     1       2.498   6.411  19.776  0.00  0.00    +0.000 A 
ATOM      8  N   UNL     1       3.334   6.986  18.887  0.00  0.00    +0.000 NA
ATOM      9  C   UNL     1       3.737   6.254  17.836  0.00  0.00    +0.000 A 
ATOM     10  C   UNL     1       3.203   5.021  17.540  0.00  0.00    +0.000 A 
ATOM     11  C   UNL     1       2.313   4.438  18.437  0.00  0.00    +0.000 A 
ATOM     12  C   UNL     1       1.766   3.189  18.126  0.00  0.00    +0.000 A 
ATOM     13  C   UNL     1       1.215   2.398  19.119  0.00  0.00    +0.000 A 
ATOM     14  C   UNL     1       0.979   2.945  20.372  0.00  0.00    +0.000 A 
ATOM     15  C   UNL     1       1.240   4.304  20.589  0.00  0.00    +0.000 A 
ATOM     16  C   UNL     1       2.003   5.079  19.650  0.00  0.00    +0.000 A 
ENDBRANCH   4   7
BRANCH   1  21
ATOM     17  C   UNL     1      -1.319  11.494  18.752  0.00  0.00    +0.000 A 
ATOM     18  C   UNL     1      -0.507  12.618  18.656  0.00  0.00    +0.000 A 
ATOM     19  C   UNL     1       0.871  12.462  18.742  0.00  0.00    +0.000 A 
ATOM     20  C   UNL     1       1.385  11.190  18.953  0.00  0.00    +0.000 A 
ATOM     21  C   UNL     1       0.503  10.132  19.133  0.00  0.00    +0.000 A 
ATOM     22  N   UNL     1      -0.829  10.267  19.028  0.00  0.00    +0.000 NA
BRANCH  17  27
ATOM     23  N   UNL     1      -3.418  11.330  17.305  0.00  0.00    +0.000 N 
ATOM     24  C   UNL     1      -4.700  11.766  17.492  0.00  0.00    +0.000 A 
ATOM     25  N   UNL     1      -4.855  12.217  18.710  0.00  0.00    +0.000 NA
ATOM     26  N   UNL     1      -3.630  12.128  19.331  0.00  0.00    +0.000 NA
ATOM     27  C   UNL     1      -2.754  11.607  18.487  0.00  0.00    +0.000 A 
BRANCH  23  29
ATOM     28  C   UNL     1      -2.394   9.367  16.204  0.00  0.00    +0.000 C 
ATOM     29  C   UNL     1      -2.897  10.809  16.046  0.00  0.00    +0.000 C 
ATOM     30  C   UNL     1      -3.938  10.901  14.920  0.00  0.00    +0.000 C 
ENDBRANCH  23  29
ENDBRANCH  17  27
ENDBRANCH   1  21
TORSDOF 4
ENDMDL
MODEL 3
REMARK VINA RESULT:      -8.6      0.899      1.865
REMARK  Name = 
REMARK  6 active torsions:
REMARK  status: ('A' for Active; 'I' for Inactive)
REMARK    1  A    between atoms: C_1  and  C_2
REMARK    2  A    between atoms: C_2  and  C_3
REMARK    3  A    between atoms: C_2  and  N_4
REMARK    4  A    between atoms: C_8  and  C_9
REMARK    5  A    between atoms: C_13  and  N_14
REMARK    6  A    between atoms: N_17  and  C_18
REMARK                            x       y       z     vdW  Elec       q    Type
REMARK                         _______ _______ _______ _____ _____    ______ ____
ROOT
ATOM      1  N   UNL     1       1.081   8.959  19.431  0.00  0.00    +0.000 N 
ATOM      2  C   UNL     1       1.354   8.504  20.682  0.00  0.00    +0.000 C 
ATOM      3  O   UNL     1       1.030   9.049  21.728  0.00  0.00    +0.000 OA
ATOM      4  N   UNL     1       2.052   7.335  20.758  0.00  0.00    +0.000 N 
ATOM      5  H   UNL     1       1.400   8.410  18.656  0.00  0.00    +0.000 HD
ATOM      6  H   UNL     1       1.847   6.887  21.637  0.00  0.00    +0.000 HD
ENDROOT
BRANCH   4   7
ATOM      7  C   UNL     1       2.422   6.431  19.766  0.00  0.00    +0.000 A 
ATOM      8  N   UNL     1       3.241   7.019  18.870  0.00  0.00    +0.000 NA
ATOM      9  C   UNL     1       3.649   6.294  17.817  0.00  0.00    +0.000 A 
ATOM     10  C   UNL     1       3.134   5.053  17.524  0.00  0.00    +0.000 A 
ATOM     11  C   UNL     1       2.260   4.455  18.428  0.00  0.00    +0.000 A 
ATOM     12  C   UNL     1       1.732   3.197  18.120  0.00  0.00    +0.000 A 
ATOM     13  C   UNL     1       1.202   2.396  19.118  0.00  0.00    +0.000 A 
ATOM     14  C   UNL     1       0.966   2.940  20.372  0.00  0.00    +0.000 A 
ATOM     15  C   UNL     1       1.205   4.303  20.587  0.00  0.00    +0.000 A 
ATOM     16  C   UNL     1       1.948   5.090  19.643  0.00  0.00    +0.000 A 
ENDBRANCH   4   7
BRANCH   1  21
ATOM     17  C   UNL     1      -1.226  11.659  18.828  0.00  0.00    +0.000 A 
ATOM     18  C   UNL     1      -0.367  12.735  18.637  0.00  0.00    +0.000 A 
ATOM     19  C   UNL     1       1.003  12.507  18.629  0.00  0.00    +0.000 A 
ATOM     20  C   UNL     1       1.466  11.216  18.843  0.00  0.00    +0.000 A 
ATOM     21  C   UNL     1       0.546  10.213  19.121  0.00  0.00    +0.000 A 
ATOM     22  N   UNL     1      -0.781  10.416  19.108  0.00  0.00    +0.000 NA
BRANCH  17  27
ATOM     23  N   UNL     1      -3.571  12.320  19.598  0.00  0.00    +0.000 N 
ATOM     24  C   UNL     1      -4.808  12.126  19.050  0.00  0.00    +0.000 A 
ATOM     25  N   UNL     1      -4.699  11.633  17.843  0.00  0.00    +0.000 NA
ATOM     26  N   UNL     1      -3.357  11.443  17.605  0.00  0.00    +0.000 NA
ATOM     27  C   UNL     1      -2.669  11.841  18.664  0.00  0.00    +0.000 A 
BRANCH  23  29
ATOM     28  C   UNL     1      -2.791  14.250  20.932  0.00  0.00    +0.000 C 
ATOM     29  C   UNL     1      -3.335  12.815  20.950  0.00  0.00    +0.000 C 
ATOM     30  C   UNL     1      -4.600  12.724  21.817  0.00  0.00    +0.000 C 
ENDBRANCH  23  29
ENDBRANCH  17  27
ENDBRANCH   1  21
TORSDOF 4
ENDMDL
MODEL 4
REMARK VINA RESULT:      -8.6      2.261      3.804
REMARK  Name = 
REMARK  6 active torsions:
REMARK  status: ('A' for Active; 'I' for Inactive)
REMARK    1  A    between atoms: C_1  and  C_2
REMARK    2  A    between atoms: C_2  and  C_3
REMARK    3  A    between atoms: C_2  and  N_4
REMARK    4  A    between atoms: C_8  and  C_9
REMARK    5  A    between atoms: C_13  and  N_14
REMARK    6  A    between atoms: N_17  and  C_18
REMARK                            x       y       z     vdW  Elec       q    Type
REMARK                         _______ _______ _______ _____ _____    ______ ____
ROOT
ATOM      1  N   UNL     1       0.959   9.006  19.917  0.00  0.00    +0.000 N 
ATOM      2  C   UNL     1       1.216   8.411  21.111  0.00  0.00    +0.000 C 
ATOM      3  O   UNL     1       0.887   8.838  22.209  0.00  0.00    +0.000 OA
ATOM      4  N   UNL     1       1.903   7.234  21.062  0.00  0.00    +0.000 N 
ATOM      5  H   UNL     1       1.280   8.544  19.087  0.00  0.00    +0.000 HD
ATOM      6  H   UNL     1       1.685   6.692  21.883  0.00  0.00    +0.000 HD
ENDROOT
BRANCH   4   7
ATOM      7  C   UNL     1       2.274   6.443  19.977  0.00  0.00    +0.000 A 
ATOM      8  N   UNL     1       3.037   7.148  19.116  0.00  0.00    +0.000 NA
ATOM      9  C   UNL     1       3.437   6.542  17.987  0.00  0.00    +0.000 A 
ATOM     10  C   UNL     1       2.962   5.312  17.595  0.00  0.00    +0.000 A 
ATOM     11  C   UNL     1       2.145   4.595  18.464  0.00  0.00    +0.000 A 
ATOM     12  C   UNL     1       1.658   3.350  18.056  0.00  0.00    +0.000 A 
ATOM     13  C   UNL     1       1.196   2.437  18.989  0.00  0.00    +0.000 A 
ATOM     14  C   UNL     1       0.982   2.851  20.296  0.00  0.00    +0.000 A 
ATOM     15  C   UNL     1       1.174   4.197  20.631  0.00  0.00    +0.000 A 
ATOM     16  C   UNL     1       1.851   5.100  19.743  0.00  0.00    +0.000 A 
ENDBRANCH   4   7
BRANCH   1  21
ATOM     17  C   UNL     1       0.523  12.580  20.019  0.00  0.00    +0.000 A 
ATOM     18  C   UNL     1      -0.604  12.756  19.224  0.00  0.00    +0.000 A 
ATOM     19  C   UNL     1      -1.259  11.635  18.729  0.00  0.00    +0.000 A 
ATOM     20  C   UNL     1      -0.746  10.379  19.023  0.00  0.00    +0.000 A 
ATOM     21  C   UNL     1       0.438  10.292  19.745  0.00  0.00    +0.000 A 
ATOM     22  N   UNL     1       1.067  11.367  20.248  0.00  0.00    +0.000 NA
BRANCH  17  27
ATOM     23  N   UNL     1       1.880  14.742  20.130  0.00  0.00    +0.000 N 
ATOM     24  C   UNL     1       2.368  15.469  21.179  0.00  0.00    +0.000 A 
ATOM     25  N   UNL     1       1.904  15.003  22.310  0.00  0.00    +0.000 NA
ATOM     26  N   UNL     1       1.132  13.905  22.008  0.00  0.00    +0.000 NA
ATOM     27  C   UNL     1       1.123  13.731  20.696  0.00  0.00    +0.000 A 
BRANCH  23  29
ATOM     28  C   UNL     1       2.534  16.448  18.463  0.00  0.00    +0.000 C 
ATOM     29  C   UNL     1       2.235  14.967  18.732  0.00  0.00    +0.000 C 
ATOM     30  C   UNL     1       3.417  14.086  18.298  0.00  0.00    +0.000 C 
ENDBRANCH  23  29
ENDBRANCH  17  27
ENDBRANCH   1  21
TORSDOF 4
ENDMDL
MODEL 5
REMARK VINA RESULT:      -8.5      2.907      9.079
REMARK  Name = 
REMARK  6 active torsions:
REMARK  status: ('A' for Active; 'I' for Inactive)
REMARK    1  A    between atoms: C_1  and  C_2
REMARK    2  A    between atoms: C_2  and  C_3
REMARK    3  A    between atoms: C_2  and  N_4
REMARK    4  A    between atoms: C_8  and  C_9
REMARK    5  A    between atoms: C_13  and  N_14
REMARK    6  A    between atoms: N_17  and  C_18
REMARK                            x       y       z     vdW  Elec       q    Type
REMARK                         _______ _______ _______ _____ _____    ______ ____
ROOT
ATOM      1  N   UNL     1       1.832   7.505  19.962  0.00  0.00    +0.000 N 
ATOM      2  C   UNL     1       1.718   8.489  19.031  0.00  0.00    +0.000 C 
ATOM      3  O   UNL     1       2.039   8.400  17.853  0.00  0.00    +0.000 OA
ATOM      4  N   UNL     1       1.198   9.672  19.465  0.00  0.00    +0.000 N 
ATOM      5  H   UNL     1       1.525   7.709  20.894  0.00  0.00    +0.000 HD
ATOM      6  H   UNL     1       0.780  10.153  18.684  0.00  0.00    +0.000 HD
ENDROOT
BRANCH   4   7
ATOM      7  C   UNL     1       0.620  10.018  20.684  0.00  0.00    +0.000 A 
ATOM      8  N   UNL     1       1.042   9.188  21.660  0.00  0.00    +0.000 NA
ATOM      9  C   UNL     1       0.536   9.356  22.892  0.00  0.00    +0.000 A 
ATOM     10  C   UNL     1      -0.510  10.210  23.156  0.00  0.00    +0.000 A 
ATOM     11  C   UNL     1      -0.973  11.043  22.143  0.00  0.00    +0.000 A 
ATOM     12  C   UNL     1      -2.043  11.902  22.415  0.00  0.00    +0.000 A 
ATOM     13  C   UNL     1      -2.279  13.005  21.611  0.00  0.00    +0.000 A 
ATOM     14  C   UNL     1      -1.614  13.116  20.398  0.00  0.00    +0.000 A 
ATOM     15  C   UNL     1      -0.770  12.081  19.979  0.00  0.00    +0.000 A 
ATOM     16  C   UNL     1      -0.349  11.046  20.882  0.00  0.00    +0.000 A 
ENDBRANCH   4   7
BRANCH   1  21
ATOM     17  C   UNL     1       4.394   5.049  19.346  0.00  0.00    +0.000 A 
ATOM     18  C   UNL     1       3.720   3.860  19.597  0.00  0.00    +0.000 A 
ATOM     19  C   UNL     1       2.363   3.906  19.892  0.00  0.00    +0.000 A 
ATOM     20  C   UNL     1       1.736   5.143  19.954  0.00  0.00    +0.000 A 
ATOM     21  C   UNL     1       2.501   6.290  19.783  0.00  0.00    +0.000 A 
ATOM     22  N   UNL     1       3.807   6.257  19.475  0.00  0.00    +0.000 NA
BRANCH  17  27
ATOM     23  N   UNL     1       6.207   4.878  17.554  0.00  0.00    +0.000 N 
ATOM     24  C   UNL     1       7.561   4.710  17.628  0.00  0.00    +0.000 A 
ATOM     25  N   UNL     1       7.964   4.803  18.870  0.00  0.00    +0.000 NA
ATOM     26  N   UNL     1       6.841   4.981  19.645  0.00  0.00    +0.000 NA
ATOM     27  C   UNL     1       5.775   5.015  18.861  0.00  0.00    +0.000 A 
BRANCH  23  29
ATOM     28  C   UNL     1       5.176   6.179  15.720  0.00  0.00    +0.000 C 
ATOM     29  C   UNL     1       5.430   4.789  16.322  0.00  0.00    +0.000 C 
ATOM     30  C   UNL     1       6.100   3.866  15.294  0.00  0.00    +0.000 C 
ENDBRANCH  23  29
ENDBRANCH  17  27
ENDBRANCH   1  21
TORSDOF 4
ENDMDL
MODEL 6
REMARK VINA RESULT:      -8.5      2.827      4.603
REMARK  Name = 
REMARK  6 active torsions:
REMARK  status: ('A' for Active; 'I' for Inactive)
REMARK    1  A    between atoms: C_1  and  C_2
REMARK    2  A    between atoms: C_2  and  C_3
REMARK    3  A    between atoms: C_2  and  N_4
REMARK    4  A    between atoms: C_8  and  C_9
REMARK    5  A    between atoms: C_13  and  N_14
REMARK    6  A    between atoms: N_17  and  C_18
REMARK                            x       y       z     vdW  Elec       q    Type
REMARK                         _______ _______ _______ _____ _____    ______ ____
ROOT
ATOM      1  N   UNL     1       3.078   6.801  18.856  0.00  0.00    +0.000 N 
ATOM      2  C   UNL     1       2.828   5.535  19.280  0.00  0.00    +0.000 C 
ATOM      3  O   UNL     1       1.744   5.107  19.655  0.00  0.00    +0.000 OA
ATOM      4  N   UNL     1       3.889   4.679  19.280  0.00  0.00    +0.000 N 
ATOM      5  H   UNL     1       4.013   7.020  18.569  0.00  0.00    +0.000 HD
ATOM      6  H   UNL     1       3.549   3.734  19.197  0.00  0.00    +0.000 HD
ENDROOT
BRANCH   4   7
ATOM      7  C   UNL     1       5.180   4.832  18.781  0.00  0.00    +0.000 A 
ATOM      8  N   UNL     1       6.022   5.223  19.760  0.00  0.00    +0.000 NA
ATOM      9  C   UNL     1       7.301   5.466  19.431  0.00  0.00    +0.000 A 
ATOM     10  C   UNL     1       7.740   5.504  18.128  0.00  0.00    +0.000 A 
ATOM     11  C   UNL     1       6.865   5.136  17.110  0.00  0.00    +0.000 A 
ATOM     12  C   UNL     1       7.314   5.185  15.787  0.00  0.00    +0.000 A 
ATOM     13  C   UNL     1       6.658   4.472  14.797  0.00  0.00    +0.000 A 
ATOM     14  C   UNL     1       5.417   3.915  15.069  0.00  0.00    +0.000 A 
ATOM     15  C   UNL     1       4.821   4.141  16.316  0.00  0.00    +0.000 A 
ATOM     16  C   UNL     1       5.567   4.686  17.416  0.00  0.00    +0.000 A 
ENDBRANCH   4   7
BRANCH   1  21
ATOM     17  C   UNL     1       0.884   9.348  20.151  0.00  0.00    +0.000 A 
ATOM     18  C   UNL     1       0.582  10.077  19.007  0.00  0.00    +0.000 A 
ATOM     19  C   UNL     1       1.064   9.636  17.782  0.00  0.00    +0.000 A 
ATOM     20  C   UNL     1       1.858   8.497  17.749  0.00  0.00    +0.000 A 
ATOM     21  C   UNL     1       2.192   7.879  18.947  0.00  0.00    +0.000 A 
ATOM     22  N   UNL     1       1.712   8.283  20.135  0.00  0.00    +0.000 NA
BRANCH  17  27
ATOM     23  N   UNL     1      -0.485  10.828  21.721  0.00  0.00    +0.000 N 
ATOM     24  C   UNL     1      -0.709  10.779  23.069  0.00  0.00    +0.000 A 
ATOM     25  N   UNL     1      -0.226   9.671  23.571  0.00  0.00    +0.000 NA
ATOM     26  N   UNL     1       0.383   8.994  22.540  0.00  0.00    +0.000 NA
ATOM     27  C   UNL     1       0.244   9.690  21.423  0.00  0.00    +0.000 A 
BRANCH  23  29
ATOM     28  C   UNL     1      -2.303  12.389  21.114  0.00  0.00    +0.000 C 
ATOM     29  C   UNL     1      -0.855  11.947  20.862  0.00  0.00    +0.000 C 
ATOM     30  C   UNL     1       0.110  13.131  21.024  0.00  0.00    +0.000 C 
ENDBRANCH  23  29
ENDBRANCH  17  27
ENDBRANCH   1  21
TORSDOF 4
ENDMDL
MODEL 7
REMARK VINA RESULT:      -8.3      3.314      9.011
REMARK  Name = 
REMARK  6 active torsions:
REMARK  status: ('A' for Active; 'I' for Inactive)
REMARK    1  A    between atoms: C_1  and  C_2
REMARK    2  A    between atoms: C_2  and  C_3
REMARK    3  A    between atoms: C_2  and  N_4
REMARK    4  A    between atoms: C_8  and  C_9
REMARK    5  A    between atoms: C_13  and  N_14
REMARK    6  A    between atoms: N_17  and  C_18
REMARK                            x       y       z     vdW  Elec       q    Type
REMARK                         _______ _______ _______ _____ _____    ______ ____
ROOT
ATOM      1  N   UNL     1       2.214   6.336  19.210  0.00  0.00    +0.000 N 
ATOM      2  C   UNL     1       2.036   6.227  20.553  0.00  0.00    +0.000 C 
ATOM      3  O   UNL     1       2.372   5.274  21.244  0.00  0.00    +0.000 OA
ATOM      4  N   UNL     1       1.429   7.281  21.168  0.00  0.00    +0.000 N 
ATOM      5  H   UNL     1       1.896   7.177  18.765  0.00  0.00    +0.000 HD
ATOM      6  H   UNL     1       1.709   7.303  22.136  0.00  0.00    +0.000 HD
ENDROOT
BRANCH   4   7
ATOM      7  C   UNL     1       1.075   8.537  20.681  0.00  0.00    +0.000 A 
ATOM      8  N   UNL     1       1.535   8.703  19.424  0.00  0.00    +0.000 NA
ATOM      9  C   UNL     1       1.322   9.887  18.826  0.00  0.00    +0.000 A 
ATOM     10  C   UNL     1       0.819  10.978  19.496  0.00  0.00    +0.000 A 
ATOM     11  C   UNL     1       0.376  10.821  20.806  0.00  0.00    +0.000 A 
ATOM     12  C   UNL     1      -0.126  11.936  21.484  0.00  0.00    +0.000 A 
ATOM     13  C   UNL     1      -0.929  11.775  22.600  0.00  0.00    +0.000 A 
ATOM     14  C   UNL     1      -1.030  10.523  23.190  0.00  0.00    +0.000 A 
ATOM     15  C   UNL     1      -0.266   9.463  22.688  0.00  0.00    +0.000 A 
ATOM     16  C   UNL     1       0.398   9.554  21.417  0.00  0.00    +0.000 A 
ENDBRANCH   4   7
BRANCH   1  21
ATOM     17  C   UNL     1       4.190   4.340  16.955  0.00  0.00    +0.000 A 
ATOM     18  C   UNL     1       3.420   3.189  16.839  0.00  0.00    +0.000 A 
ATOM     19  C   UNL     1       2.182   3.141  17.468  0.00  0.00    +0.000 A 
ATOM     20  C   UNL     1       1.773   4.237  18.216  0.00  0.00    +0.000 A 
ATOM     21  C   UNL     1       2.641   5.311  18.360  0.00  0.00    +0.000 A 
ATOM     22  N   UNL     1       3.829   5.378  17.738  0.00  0.00    +0.000 NA
BRANCH  17  27
ATOM     23  N   UNL     1       6.551   5.195  16.485  0.00  0.00    +0.000 N 
ATOM     24  C   UNL     1       7.326   5.186  15.359  0.00  0.00    +0.000 A 
ATOM     25  N   UNL     1       6.759   4.470  14.422  0.00  0.00    +0.000 NA
ATOM     26  N   UNL     1       5.551   4.039  14.920  0.00  0.00    +0.000 NA
ATOM     27  C   UNL     1       5.410   4.483  16.159  0.00  0.00    +0.000 A 
BRANCH  23  29
ATOM     28  C   UNL     1       7.818   5.140  18.608  0.00  0.00    +0.000 C 
ATOM     29  C   UNL     1       6.869   5.936  17.701  0.00  0.00    +0.000 C 
ATOM     30  C   UNL     1       7.455   7.320  17.385  0.00  0.00    +0.000 C 
ENDBRANCH  23  29
ENDBRANCH  17  27
ENDBRANCH   1  21
TORSDOF 4
ENDMDL
MODEL 8
REMARK VINA RESULT:      -8.2      2.312      3.704
REMARK  Name = 
REMARK  6 active torsions:
REMARK  status: ('A' for Active; 'I' for Inactive)
REMARK    1  A    between atoms: C_1  and  C_2
REMARK    2  A    between atoms: C_2  and  C_3
REMARK    3  A    between atoms: C_2  and  N_4
REMARK    4  A    between atoms: C_8  and  C_9
REMARK    5  A    between atoms: C_13  and  N_14
REMARK    6  A    between atoms: N_17  and  C_18
REMARK                            x       y       z     vdW  Elec       q    Type
REMARK                         _______ _______ _______ _____ _____    ______ ____
ROOT
ATOM      1  N   UNL     1       1.070   8.989  19.455  0.00  0.00    +0.000 N 
ATOM      2  C   UNL     1       1.340   8.531  20.706  0.00  0.00    +0.000 C 
ATOM      3  O   UNL     1       1.012   9.073  21.753  0.00  0.00    +0.000 OA
ATOM      4  N   UNL     1       2.037   7.362  20.782  0.00  0.00    +0.000 N 
ATOM      5  H   UNL     1       1.392   8.442  18.679  0.00  0.00    +0.000 HD
ATOM      6  H   UNL     1       1.829   6.911  21.659  0.00  0.00    +0.000 HD
ENDROOT
BRANCH   4   7
ATOM      7  C   UNL     1       2.410   6.460  19.788  0.00  0.00    +0.000 A 
ATOM      8  N   UNL     1       3.221   7.055  18.889  0.00  0.00    +0.000 NA
ATOM      9  C   UNL     1       3.631   6.333  17.834  0.00  0.00    +0.000 A 
ATOM     10  C   UNL     1       3.124   5.088  17.544  0.00  0.00    +0.000 A 
ATOM     11  C   UNL     1       2.259   4.483  18.451  0.00  0.00    +0.000 A 
ATOM     12  C   UNL     1       1.739   3.221  18.146  0.00  0.00    +0.000 A 
ATOM     13  C   UNL     1       1.219   2.416  19.145  0.00  0.00    +0.000 A 
ATOM     14  C   UNL     1       0.984   2.958  20.400  0.00  0.00    +0.000 A 
ATOM     15  C   UNL     1       1.213   4.323  20.614  0.00  0.00    +0.000 A 
ATOM     16  C   UNL     1       1.947   5.116  19.667  0.00  0.00    +0.000 A 
ENDBRANCH   4   7
BRANCH   1  21
ATOM     17  C   UNL     1       0.751  12.485  18.648  0.00  0.00    +0.000 A 
ATOM     18  C   UNL     1      -0.615  12.604  18.414  0.00  0.00    +0.000 A 
ATOM     19  C   UNL     1      -1.430  11.498  18.622  0.00  0.00    +0.000 A 
ATOM     20  C   UNL     1      -0.846  10.306  19.027  0.00  0.00    +0.000 A 
ATOM     21  C   UNL     1       0.536  10.244  19.147  0.00  0.00    +0.000 A 
ATOM     22  N   UNL     1       1.332  11.311  18.972  0.00  0.00    +0.000 NA
BRANCH  17  27
ATOM     23  N   UNL     1       1.227  14.988  18.838  0.00  0.00    +0.000 N 
ATOM     24  C   UNL     1       2.315  15.745  18.502  0.00  0.00    +0.000 A 
ATOM     25  N   UNL     1       3.316  14.977  18.158  0.00  0.00    +0.000 NA
ATOM     26  N   UNL     1       2.865  13.678  18.213  0.00  0.00    +0.000 NA
ATOM     27  C   UNL     1       1.602  13.675  18.609  0.00  0.00    +0.000 A 
BRANCH  23  29
ATOM     28  C   UNL     1      -0.099  15.900  20.715  0.00  0.00    +0.000 C 
ATOM     29  C   UNL     1      -0.070  15.531  19.225  0.00  0.00    +0.000 C 
ATOM     30  C   UNL     1      -0.462  16.737  18.359  0.00  0.00    +0.000 C 
ENDBRANCH  23  29
ENDBRANCH  17  27
ENDBRANCH   1  21
TORSDOF 4
ENDMDL
MODEL 9
REMARK VINA RESULT:      -8.2      1.067      1.991
REMARK  Name = 
REMARK  6 active torsions:
REMARK  status: ('A' for Active; 'I' for Inactive)
REMARK    1  A    between atoms: C_1  and  C_2
REMARK    2  A    between atoms: C_2  and  C_3
REMARK    3  A    between atoms: C_2  and  N_4
REMARK    4  A    between atoms: C_8  and  C_9
REMARK    5  A    between atoms: C_13  and  N_14
REMARK    6  A    between atoms: N_17  and  C_18
REMARK                            x       y       z     vdW  Elec       q    Type
REMARK                         _______ _______ _______ _____ _____    ______ ____
ROOT
ATOM      1  N   UNL     1       1.117   8.945  19.622  0.00  0.00    +0.000 N 
ATOM      2  C   UNL     1       1.336   8.419  20.856  0.00  0.00    +0.000 C 
ATOM      3  O   UNL     1       0.992   8.920  21.918  0.00  0.00    +0.000 OA
ATOM      4  N   UNL     1       1.997   7.228  20.894  0.00  0.00    +0.000 N 
ATOM      5  H   UNL     1       1.447   8.427  18.830  0.00  0.00    +0.000 HD
ATOM      6  H   UNL     1       1.750   6.742  21.741  0.00  0.00    +0.000 HD
ENDROOT
BRANCH   4   7
ATOM      7  C   UNL     1       2.375   6.365  19.868  0.00  0.00    +0.000 A 
ATOM      8  N   UNL     1       3.176   6.998  18.988  0.00  0.00    +0.000 NA
ATOM      9  C   UNL     1       3.589   6.316  17.907  0.00  0.00    +0.000 A 
ATOM     10  C   UNL     1       3.092   5.077  17.576  0.00  0.00    +0.000 A 
ATOM     11  C   UNL     1       2.237   4.433  18.465  0.00  0.00    +0.000 A 
ATOM     12  C   UNL     1       1.728   3.177  18.118  0.00  0.00    +0.000 A 
ATOM     13  C   UNL     1       1.220   2.334  19.092  0.00  0.00    +0.000 A 
ATOM     14  C   UNL     1       0.985   2.830  20.366  0.00  0.00    +0.000 A 
ATOM     15  C   UNL     1       1.202   4.189  20.625  0.00  0.00    +0.000 A 
ATOM     16  C   UNL     1       1.924   5.021  19.704  0.00  0.00    +0.000 A 
ENDBRANCH   4   7
BRANCH   1  21
ATOM     17  C   UNL     1      -1.040  11.820  19.385  0.00  0.00    +0.000 A 
ATOM     18  C   UNL     1      -0.165  12.801  18.933  0.00  0.00    +0.000 A 
ATOM     19  C   UNL     1       1.143  12.446  18.628  0.00  0.00    +0.000 A 
ATOM     20  C   UNL     1       1.537  11.128  18.816  0.00  0.00    +0.000 A 
ATOM     21  C   UNL     1       0.628  10.229  19.361  0.00  0.00    +0.000 A 
ATOM     22  N   UNL     1      -0.645  10.555  19.636  0.00  0.00    +0.000 NA
BRANCH  17  27
ATOM     23  N   UNL     1      -3.097  12.635  20.663  0.00  0.00    +0.000 N 
ATOM     24  C   UNL     1      -4.435  12.573  20.388  0.00  0.00    +0.000 A 
ATOM     25  N   UNL     1      -4.630  12.132  19.172  0.00  0.00    +0.000 NA
ATOM     26  N   UNL     1      -3.393  11.843  18.645  0.00  0.00    +0.000 NA
ATOM     27  C   UNL     1      -2.462  12.130  19.541  0.00  0.00    +0.000 A 
BRANCH  23  29
ATOM     28  C   UNL     1      -1.802  11.878  22.628  0.00  0.00    +0.000 C 
ATOM     29  C   UNL     1      -2.534  13.042  21.946  0.00  0.00    +0.000 C 
ATOM     30  C   UNL     1      -1.606  14.257  21.799  0.00  0.00    +0.000 C 
ENDBRANCH  23  29
ENDBRANCH  17  27
ENDBRANCH   1  21
TORSDOF 4
ENDMDL
