MODEL 1
REMARK VINA RESULT:      -7.7      0.000      0.000
REMARK  Name = 
REMARK  8 active torsions:
REMARK  status: ('A' for Active; 'I' for Inactive)
REMARK    1  A    between atoms: C_1  and  O_2
REMARK    2  A    between atoms: O_2  and  C_3
REMARK    3  A    between atoms: C_6  and  C_7
REMARK    4  A    between atoms: N_9  and  C_10
REMARK    5  A    between atoms: C_10  and  C_11
REMARK    6  A    between atoms: C_11  and  C_12
REMARK    7  A    between atoms: N_14  and  C_15
REMARK    8  A    between atoms: C_18  and  C_19
REMARK                            x       y       z     vdW  Elec       q    Type
REMARK                         _______ _______ _______ _____ _____    ______ ____
ROOT
ATOM      1  C   UNL     1       4.651   4.357  18.304  0.00  0.00    +0.000 C 
ATOM      2  N   UNL     1       4.420   3.794  19.449  0.00  0.00    +0.000 NA
ATOM      3  N   UNL     1       3.396   2.885  19.570  0.00  0.00    +0.000 N 
ATOM      4  C   UNL     1       2.748   2.298  18.469  0.00  0.00    +0.000 C 
ATOM      5  O   UNL     1       1.833   1.486  18.556  0.00  0.00    +0.000 OA
ATOM      6  C   UNL     1       3.292   2.664  17.113  0.00  0.00    +0.000 C 
ATOM      7  C   UNL     1       3.872   4.053  17.058  0.00  0.00    +0.000 C 
ENDROOT
BRANCH   1  11
ATOM      8  C   UNL     1       7.667   7.388  18.002  0.00  0.00    +0.000 A 
ATOM      9  C   UNL     1       7.799   6.353  18.930  0.00  0.00    +0.000 A 
ATOM     10  C   UNL     1       6.818   5.363  19.036  0.00  0.00    +0.000 A 
ATOM     11  C   UNL     1       5.694   5.414  18.211  0.00  0.00    +0.000 A 
ATOM     12  C   UNL     1       5.550   6.463  17.296  0.00  0.00    +0.000 A 
ATOM     13  C   UNL     1       6.532   7.449  17.194  0.00  0.00    +0.000 A 
BRANCH   8  15
ATOM     14  C   UNL     1       8.312   9.657  18.110  0.00  0.00    +0.000 C 
ATOM     15  O   UNL     1       8.694   8.291  17.971  0.00  0.00    +0.000 OA
ENDBRANCH   8  15
ENDBRANCH   1  11
BRANCH   3  16
ATOM     16  C   UNL     1       3.052   2.480  20.949  0.00  0.00    +0.000 C 
BRANCH  16  17
ATOM     17  C   UNL     1       2.405   3.591  21.785  0.00  0.00    +0.000 C 
BRANCH  17  18
ATOM     18  C   UNL     1       1.616   4.575  20.949  0.00  0.00    +0.000 C 
ATOM     19  O   UNL     1       0.583   4.288  20.352  0.00  0.00    +0.000 OA
ATOM     20  N   UNL     1       2.203   5.831  20.908  0.00  0.00    +0.000 N 
ATOM     21  H   UNL     1       2.945   6.036  21.568  0.00  0.00    +0.000 HD
BRANCH  20  22
ATOM     22  C   UNL     1       1.600   6.936  20.176  0.00  0.00    +0.000 C 
ATOM     23  C   UNL     1       2.492   7.373  19.006  0.00  0.00    +0.000 C 
ATOM     24  C   UNL     1       1.858   8.527  18.227  0.00  0.00    +0.000 C 
ATOM     25  C   UNL     1       1.532   9.719  19.139  0.00  0.00    +0.000 C 
ATOM     26  C   UNL     1       0.828  10.825  18.355  0.00  0.00    +0.000 C 
ATOM     27  C   UNL     1       0.675   9.279  20.334  0.00  0.00    +0.000 C 
ATOM     28  C   UNL     1       1.319   8.126  21.101  0.00  0.00    +0.000 C 
ENDBRANCH  20  22
ENDBRANCH  17  18
ENDBRANCH  16  17
ENDBRANCH   3  16
TORSDOF 6
ENDMDL
MODEL 2
REMARK VINA RESULT:      -7.7      0.490      1.047
REMARK  Name = 
REMARK  8 active torsions:
REMARK  status: ('A' for Active; 'I' for Inactive)
REMARK    1  A    between atoms: C_1  and  O_2
REMARK    2  A    between atoms: O_2  and  C_3
REMARK    3  A    between atoms: C_6  and  C_7
REMARK    4  A    between atoms: N_9  and  C_10
REMARK    5  A    between atoms: C_10  and  C_11
REMARK    6  A    between atoms: C_11  and  C_12
REMARK    7  A    between atoms: N_14  and  C_15
REMARK    8  A    between atoms: C_18  and  C_19
REMARK                            x       y       z     vdW  Elec       q    Type
REMARK                         _______ _______ _______ _____ _____    ______ ____
ROOT
ATOM      1  C   UNL     1       4.775   4.232  18.321  0.00  0.00    +0.000 C 
ATOM      2  N   UNL     1       4.610   3.821  19.540  0.00  0.00    +0.000 NA
ATOM      3  N   UNL     1       3.673   2.855  19.815  0.00  0.00    +0.000 N 
ATOM      4  C   UNL     1       3.064   2.063  18.826  0.00  0.00    +0.000 C 
ATOM      5  O   UNL     1       2.225   1.196  19.051  0.00  0.00    +0.000 OA
ATOM      6  C   UNL     1       3.554   2.276  17.418  0.00  0.00    +0.000 C 
ATOM      7  C   UNL     1       4.008   3.687  17.151  0.00  0.00    +0.000 C 
ENDROOT
BRANCH   1  11
ATOM      8  C   UNL     1       7.486   7.467  17.575  0.00  0.00    +0.000 A 
ATOM      9  C   UNL     1       6.295   7.364  16.851  0.00  0.00    +0.000 A 
ATOM     10  C   UNL     1       5.409   6.310  17.087  0.00  0.00    +0.000 A 
ATOM     11  C   UNL     1       5.719   5.350  18.051  0.00  0.00    +0.000 A 
ATOM     12  C   UNL     1       6.921   5.440  18.761  0.00  0.00    +0.000 A 
ATOM     13  C   UNL     1       7.803   6.494  18.521  0.00  0.00    +0.000 A 
BRANCH   8  15
ATOM     14  C   UNL     1       8.570   9.408  18.370  0.00  0.00    +0.000 C 
ATOM     15  O   UNL     1       8.269   8.548  17.275  0.00  0.00    +0.000 OA
ENDBRANCH   8  15
ENDBRANCH   1  11
BRANCH   3  16
ATOM     16  C   UNL     1       3.386   2.623  21.246  0.00  0.00    +0.000 C 
BRANCH  16  17
ATOM     17  C   UNL     1       1.987   3.074  21.685  0.00  0.00    +0.000 C 
BRANCH  17  18
ATOM     18  C   UNL     1       1.398   4.134  20.780  0.00  0.00    +0.000 C 
ATOM     19  O   UNL     1       0.486   3.922  19.985  0.00  0.00    +0.000 OA
ATOM     20  N   UNL     1       2.018   5.365  20.927  0.00  0.00    +0.000 N 
ATOM     21  H   UNL     1       2.629   5.503  21.724  0.00  0.00    +0.000 HD
BRANCH  20  22
ATOM     22  C   UNL     1       1.596   6.533  20.166  0.00  0.00    +0.000 C 
ATOM     23  C   UNL     1       2.601   6.856  19.051  0.00  0.00    +0.000 C 
ATOM     24  C   UNL     1       2.156   8.076  18.242  0.00  0.00    +0.000 C 
ATOM     25  C   UNL     1       1.924   9.301  19.138  0.00  0.00    +0.000 C 
ATOM     26  C   UNL     1       1.404  10.482  18.320  0.00  0.00    +0.000 C 
ATOM     27  C   UNL     1       0.953   8.971  20.280  0.00  0.00    +0.000 C 
ATOM     28  C   UNL     1       1.407   7.751  21.078  0.00  0.00    +0.000 C 
ENDBRANCH  20  22
ENDBRANCH  17  18
ENDBRANCH  16  17
ENDBRANCH   3  16
TORSDOF 6
ENDMDL
MODEL 3
REMARK VINA RESULT:      -7.2      4.245      6.283
REMARK  Name = 
REMARK  8 active torsions:
REMARK  status: ('A' for Active; 'I' for Inactive)
REMARK    1  A    between atoms: C_1  and  O_2
REMARK    2  A    between atoms: O_2  and  C_3
REMARK    3  A    between atoms: C_6  and  C_7
REMARK    4  A    between atoms: N_9  and  C_10
REMARK    5  A    between atoms: C_10  and  C_11
REMARK    6  A    between atoms: C_11  and  C_12
REMARK    7  A    between atoms: N_14  and  C_15
REMARK    8  A    between atoms: C_18  and  C_19
REMARK                            x       y       z     vdW  Elec       q    Type
REMARK                         _______ _______ _______ _____ _____    ______ ____
ROOT
ATOM      1  C   UNL     1       2.616   7.638  18.308  0.00  0.00    +0.000 C 
ATOM      2  N   UNL     1       2.168   7.510  19.518  0.00  0.00    +0.000 NA
ATOM      3  N   UNL     1       1.536   8.566  20.130  0.00  0.00    +0.000 N 
ATOM      4  C   UNL     1       1.081   9.701  19.438  0.00  0.00    +0.000 C 
ATOM      5  O   UNL     1       0.516  10.654  19.965  0.00  0.00    +0.000 OA
ATOM      6  C   UNL     1       1.255   9.675  17.942  0.00  0.00    +0.000 C 
ATOM      7  C   UNL     1       2.461   8.891  17.495  0.00  0.00    +0.000 C 
ENDROOT
BRANCH   1  11
ATOM      8  C   UNL     1       4.850   4.418  16.575  0.00  0.00    +0.000 A 
ATOM      9  C   UNL     1       5.237   5.742  16.356  0.00  0.00    +0.000 A 
ATOM     10  C   UNL     1       4.511   6.797  16.915  0.00  0.00    +0.000 A 
ATOM     11  C   UNL     1       3.387   6.524  17.695  0.00  0.00    +0.000 A 
ATOM     12  C   UNL     1       2.985   5.199  17.896  0.00  0.00    +0.000 A 
ATOM     13  C   UNL     1       3.713   4.149  17.335  0.00  0.00    +0.000 A 
BRANCH   8  15
ATOM     14  C   UNL     1       6.178   3.810  14.719  0.00  0.00    +0.000 C 
ATOM     15  O   UNL     1       5.643   3.466  15.994  0.00  0.00    +0.000 OA
ENDBRANCH   8  15
ENDBRANCH   1  11
BRANCH   3  16
ATOM     16  C   UNL     1       1.278   8.413  21.577  0.00  0.00    +0.000 C 
BRANCH  16  17
ATOM     17  C   UNL     1      -0.190   8.617  21.975  0.00  0.00    +0.000 C 
BRANCH  17  18
ATOM     18  C   UNL     1      -0.381   9.750  22.960  0.00  0.00    +0.000 C 
ATOM     19  O   UNL     1       0.182   9.809  24.049  0.00  0.00    +0.000 OA
ATOM     20  N   UNL     1      -1.281  10.704  22.508  0.00  0.00    +0.000 N 
ATOM     21  H   UNL     1      -1.558  10.678  21.533  0.00  0.00    +0.000 HD
BRANCH  20  22
ATOM     22  C   UNL     1      -1.598  11.890  23.289  0.00  0.00    +0.000 C 
ATOM     23  C   UNL     1      -3.113  12.137  23.325  0.00  0.00    +0.000 C 
ATOM     24  C   UNL     1      -3.453  13.378  24.153  0.00  0.00    +0.000 C 
ATOM     25  C   UNL     1      -2.709  14.622  23.647  0.00  0.00    +0.000 C 
ATOM     26  C   UNL     1      -3.001  15.828  24.539  0.00  0.00    +0.000 C 
ATOM     27  C   UNL     1      -1.198  14.367  23.570  0.00  0.00    +0.000 C 
ATOM     28  C   UNL     1      -0.873  13.125  22.741  0.00  0.00    +0.000 C 
ENDBRANCH  20  22
ENDBRANCH  17  18
ENDBRANCH  16  17
ENDBRANCH   3  16
TORSDOF 6
ENDMDL
MODEL 4
REMARK VINA RESULT:      -7.1      0.457      1.071
REMARK  Name = 
REMARK  8 active torsions:
REMARK  status: ('A' for Active; 'I' for Inactive)
REMARK    1  A    between atoms: C_1  and  O_2
REMARK    2  A    between atoms: O_2  and  C_3
REMARK    3  A    between atoms: C_6  and  C_7
REMARK    4  A    between atoms: N_9  and  C_10
REMARK    5  A    between atoms: C_10  and  C_11
REMARK    6  A    between atoms: C_11  and  C_12
REMARK    7  A    between atoms: N_14  and  C_15
REMARK    8  A    between atoms: C_18  and  C_19
REMARK                            x       y       z     vdW  Elec       q    Type
REMARK                         _______ _______ _______ _____ _____    ______ ____
ROOT
ATOM      1  C   UNL     1       4.704   4.163  18.440  0.00  0.00    +0.000 C 
ATOM      2  N   UNL     1       4.403   3.697  19.612  0.00  0.00    +0.000 NA
ATOM      3  N   UNL     1       3.404   2.762  19.741  0.00  0.00    +0.000 N 
ATOM      4  C   UNL     1       2.864   2.052  18.654  0.00  0.00    +0.000 C 
ATOM      5  O   UNL     1       1.972   1.215  18.748  0.00  0.00    +0.000 OA
ATOM      6  C   UNL     1       3.499   2.316  17.314  0.00  0.00    +0.000 C 
ATOM      7  C   UNL     1       4.036   3.716  17.173  0.00  0.00    +0.000 C 
ENDROOT
BRANCH   1  11
ATOM      8  C   UNL     1       7.628   7.276  18.078  0.00  0.00    +0.000 A 
ATOM      9  C   UNL     1       7.820   6.231  18.984  0.00  0.00    +0.000 A 
ATOM     10  C   UNL     1       6.869   5.215  19.110  0.00  0.00    +0.000 A 
ATOM     11  C   UNL     1       5.716   5.248  18.326  0.00  0.00    +0.000 A 
ATOM     12  C   UNL     1       5.511   6.307  17.434  0.00  0.00    +0.000 A 
ATOM     13  C   UNL     1       6.464   7.320  17.313  0.00  0.00    +0.000 A 
BRANCH   8  15
ATOM     14  C   UNL     1       8.205   9.552  17.829  0.00  0.00    +0.000 C 
ATOM     15  O   UNL     1       8.630   8.206  18.026  0.00  0.00    +0.000 OA
ENDBRANCH   8  15
ENDBRANCH   1  11
BRANCH   3  16
ATOM     16  C   UNL     1       2.967   2.470  21.122  0.00  0.00    +0.000 C 
BRANCH  16  17
ATOM     17  C   UNL     1       1.747   3.282  21.577  0.00  0.00    +0.000 C 
BRANCH  17  18
ATOM     18  C   UNL     1       1.537   4.538  20.761  0.00  0.00    +0.000 C 
ATOM     19  O   UNL     1       0.688   4.646  19.881  0.00  0.00    +0.000 OA
ATOM     20  N   UNL     1       2.425   5.548  21.100  0.00  0.00    +0.000 N 
ATOM     21  H   UNL     1       2.965   5.447  21.951  0.00  0.00    +0.000 HD
BRANCH  20  22
ATOM     22  C   UNL     1       2.387   6.852  20.452  0.00  0.00    +0.000 C 
ATOM     23  C   UNL     1       1.201   7.684  20.959  0.00  0.00    +0.000 C 
ATOM     24  C   UNL     1       1.163   9.059  20.289  0.00  0.00    +0.000 C 
ATOM     25  C   UNL     1       1.135   8.946  18.758  0.00  0.00    +0.000 C 
ATOM     26  C   UNL     1       1.179  10.330  18.111  0.00  0.00    +0.000 C 
ATOM     27  C   UNL     1       2.295   8.080  18.249  0.00  0.00    +0.000 C 
ATOM     28  C   UNL     1       2.322   6.711  18.926  0.00  0.00    +0.000 C 
ENDBRANCH  20  22
ENDBRANCH  17  18
ENDBRANCH  16  17
ENDBRANCH   3  16
TORSDOF 6
ENDMDL
MODEL 5
REMARK VINA RESULT:      -7.0      2.687      3.592
REMARK  Name = 
REMARK  8 active torsions:
REMARK  status: ('A' for Active; 'I' for Inactive)
REMARK    1  A    between atoms: C_1  and  O_2
REMARK    2  A    between atoms: O_2  and  C_3
REMARK    3  A    between atoms: C_6  and  C_7
REMARK    4  A    between atoms: N_9  and  C_10
REMARK    5  A    between atoms: C_10  and  C_11
REMARK    6  A    between atoms: C_11  and  C_12
REMARK    7  A    between atoms: N_14  and  C_15
REMARK    8  A    between atoms: C_18  and  C_19
REMARK                            x       y       z     vdW  Elec       q    Type
REMARK                         _______ _______ _______ _____ _____    ______ ____
ROOT
ATOM      1  C   UNL     1       4.010   3.801  17.944  0.00  0.00    +0.000 C 
ATOM      2  N   UNL     1       3.487   4.671  18.751  0.00  0.00    +0.000 NA
ATOM      3  N   UNL     1       2.443   4.307  19.566  0.00  0.00    +0.000 N 
ATOM      4  C   UNL     1       2.074   2.971  19.802  0.00  0.00    +0.000 C 
ATOM      5  O   UNL     1       1.146   2.625  20.526  0.00  0.00    +0.000 OA
ATOM      6  C   UNL     1       2.947   1.924  19.161  0.00  0.00    +0.000 C 
ATOM      7  C   UNL     1       3.558   2.372  17.859  0.00  0.00    +0.000 C 
ENDROOT
BRANCH   1  11
ATOM      8  C   UNL     1       7.050   5.082  15.207  0.00  0.00    +0.000 A 
ATOM      9  C   UNL     1       6.041   4.212  14.784  0.00  0.00    +0.000 A 
ATOM     10  C   UNL     1       5.050   3.788  15.672  0.00  0.00    +0.000 A 
ATOM     11  C   UNL     1       5.070   4.234  16.994  0.00  0.00    +0.000 A 
ATOM     12  C   UNL     1       6.093   5.087  17.425  0.00  0.00    +0.000 A 
ATOM     13  C   UNL     1       7.081   5.507  16.534  0.00  0.00    +0.000 A 
BRANCH   8  15
ATOM     14  C   UNL     1       7.628   5.063  12.918  0.00  0.00    +0.000 C 
ATOM     15  O   UNL     1       7.958   5.445  14.251  0.00  0.00    +0.000 OA
ENDBRANCH   8  15
ENDBRANCH   1  11
BRANCH   3  16
ATOM     16  C   UNL     1       1.757   5.411  20.268  0.00  0.00    +0.000 C 
BRANCH  16  17
ATOM     17  C   UNL     1       2.536   6.732  20.270  0.00  0.00    +0.000 C 
BRANCH  17  18
ATOM     18  C   UNL     1       1.639   7.946  20.171  0.00  0.00    +0.000 C 
ATOM     19  O   UNL     1       1.441   8.565  19.129  0.00  0.00    +0.000 OA
ATOM     20  N   UNL     1       1.084   8.300  21.391  0.00  0.00    +0.000 N 
ATOM     21  H   UNL     1       1.147   7.639  22.157  0.00  0.00    +0.000 HD
BRANCH  20  22
ATOM     22  C   UNL     1       0.172   9.428  21.522  0.00  0.00    +0.000 C 
ATOM     23  C   UNL     1       0.820  10.721  21.009  0.00  0.00    +0.000 C 
ATOM     24  C   UNL     1      -0.138  11.908  21.134  0.00  0.00    +0.000 C 
ATOM     25  C   UNL     1      -0.643  12.083  22.574  0.00  0.00    +0.000 C 
ATOM     26  C   UNL     1      -1.659  13.222  22.658  0.00  0.00    +0.000 C 
ATOM     27  C   UNL     1      -1.254  10.780  23.106  0.00  0.00    +0.000 C 
ATOM     28  C   UNL     1      -0.288   9.604  22.974  0.00  0.00    +0.000 C 
ENDBRANCH  20  22
ENDBRANCH  17  18
ENDBRANCH  16  17
ENDBRANCH   3  16
TORSDOF 6
ENDMDL
MODEL 6
REMARK VINA RESULT:      -7.0      3.251      6.985
REMARK  Name = 
REMARK  8 active torsions:
REMARK  status: ('A' for Active; 'I' for Inactive)
REMARK    1  A    between atoms: C_1  and  O_2
REMARK    2  A    between atoms: O_2  and  C_3
REMARK    3  A    between atoms: C_6  and  C_7
REMARK    4  A    between atoms: N_9  and  C_10
REMARK    5  A    between atoms: C_10  and  C_11
REMARK    6  A    between atoms: C_11  and  C_12
REMARK    7  A    between atoms: N_14  and  C_15
REMARK    8  A    between atoms: C_18  and  C_19
REMARK                            x       y       z     vdW  Elec       q    Type
REMARK                         _______ _______ _______ _____ _____    ______ ____
ROOT
ATOM      1  C   UNL     1       3.030   6.289  19.335  0.00  0.00    +0.000 C 
ATOM      2  N   UNL     1       4.311   6.276  19.134  0.00  0.00    +0.000 NA
ATOM      3  N   UNL     1       5.026   5.121  19.346  0.00  0.00    +0.000 N 
ATOM      4  C   UNL     1       4.428   3.858  19.495  0.00  0.00    +0.000 C 
ATOM      5  O   UNL     1       5.047   2.816  19.685  0.00  0.00    +0.000 OA
ATOM      6  C   UNL     1       2.931   3.814  19.334  0.00  0.00    +0.000 C 
ATOM      7  C   UNL     1       2.246   5.083  19.768  0.00  0.00    +0.000 C 
ENDROOT
BRANCH   1  11
ATOM      8  C   UNL     1       0.851   9.959  18.953  0.00  0.00    +0.000 A 
ATOM      9  C   UNL     1       1.564   9.447  17.866  0.00  0.00    +0.000 A 
ATOM     10  C   UNL     1       2.280   8.252  17.985  0.00  0.00    +0.000 A 
ATOM     11  C   UNL     1       2.284   7.569  19.202  0.00  0.00    +0.000 A 
ATOM     12  C   UNL     1       1.588   8.093  20.297  0.00  0.00    +0.000 A 
ATOM     13  C   UNL     1       0.876   9.287  20.173  0.00  0.00    +0.000 A 
BRANCH   8  15
ATOM     14  C   UNL     1      -1.249  11.017  18.729  0.00  0.00    +0.000 C 
ATOM     15  O   UNL     1       0.173  11.125  18.719  0.00  0.00    +0.000 OA
ENDBRANCH   8  15
ENDBRANCH   1  11
BRANCH   3  16
ATOM     16  C   UNL     1       6.496   5.260  19.328  0.00  0.00    +0.000 C 
BRANCH  16  17
ATOM     17  C   UNL     1       7.030   6.115  18.171  0.00  0.00    +0.000 C 
BRANCH  17  18
ATOM     18  C   UNL     1       7.074   5.368  16.857  0.00  0.00    +0.000 C 
ATOM     19  O   UNL     1       7.764   4.372  16.661  0.00  0.00    +0.000 OA
ATOM     20  N   UNL     1       6.267   5.946  15.887  0.00  0.00    +0.000 N 
ATOM     21  H   UNL     1       5.596   6.648  16.177  0.00  0.00    +0.000 HD
BRANCH  20  22
ATOM     22  C   UNL     1       6.144   5.377  14.553  0.00  0.00    +0.000 C 
ATOM     23  C   UNL     1       5.389   4.041  14.591  0.00  0.00    +0.000 C 
ATOM     24  C   UNL     1       5.248   3.444  13.189  0.00  0.00    +0.000 C 
ATOM     25  C   UNL     1       6.610   3.281  12.500  0.00  0.00    +0.000 C 
ATOM     26  C   UNL     1       6.437   2.760  11.074  0.00  0.00    +0.000 C 
ATOM     27  C   UNL     1       7.387   4.604  12.496  0.00  0.00    +0.000 C 
ATOM     28  C   UNL     1       7.519   5.189  13.901  0.00  0.00    +0.000 C 
ENDBRANCH  20  22
ENDBRANCH  17  18
ENDBRANCH  16  17
ENDBRANCH   3  16
TORSDOF 6
ENDMDL
MODEL 7
REMARK VINA RESULT:      -7.0      3.097      7.421
REMARK  Name = 
REMARK  8 active torsions:
REMARK  status: ('A' for Active; 'I' for Inactive)
REMARK    1  A    between atoms: C_1  and  O_2
REMARK    2  A    between atoms: O_2  and  C_3
REMARK    3  A    between atoms: C_6  and  C_7
REMARK    4  A    between atoms: N_9  and  C_10
REMARK    5  A    between atoms: C_10  and  C_11
REMARK    6  A    between atoms: C_11  and  C_12
REMARK    7  A    between atoms: N_14  and  C_15
REMARK    8  A    between atoms: C_18  and  C_19
REMARK                            x       y       z     vdW  Elec       q    Type
REMARK                         _______ _______ _______ _____ _____    ______ ____
ROOT
ATOM      1  C   UNL     1       4.979   4.678  16.915  0.00  0.00    +0.000 C 
ATOM      2  N   UNL     1       5.826   5.644  17.091  0.00  0.00    +0.000 NA
ATOM      3  N   UNL     1       6.863   5.817  16.207  0.00  0.00    +0.000 N 
ATOM      4  C   UNL     1       6.918   5.192  14.948  0.00  0.00    +0.000 C 
ATOM      5  O   UNL     1       7.834   5.333  14.144  0.00  0.00    +0.000 OA
ATOM      6  C   UNL     1       5.720   4.360  14.573  0.00  0.00    +0.000 C 
ATOM      7  C   UNL     1       5.040   3.724  15.757  0.00  0.00    +0.000 C 
ENDROOT
BRANCH   1  11
ATOM      8  C   UNL     1       1.915   4.013  19.837  0.00  0.00    +0.000 A 
ATOM      9  C   UNL     1       3.095   4.673  20.190  0.00  0.00    +0.000 A 
ATOM     10  C   UNL     1       4.099   4.890  19.243  0.00  0.00    +0.000 A 
ATOM     11  C   UNL     1       3.923   4.438  17.935  0.00  0.00    +0.000 A 
ATOM     12  C   UNL     1       2.752   3.758  17.585  0.00  0.00    +0.000 A 
ATOM     13  C   UNL     1       1.752   3.543  18.535  0.00  0.00    +0.000 A 
BRANCH   8  15
ATOM     14  C   UNL     1       1.230   2.791  21.738  0.00  0.00    +0.000 C 
ATOM     15  O   UNL     1       0.994   3.871  20.838  0.00  0.00    +0.000 OA
ENDBRANCH   8  15
ENDBRANCH   1  11
BRANCH   3  16
ATOM     16  C   UNL     1       7.906   6.779  16.615  0.00  0.00    +0.000 C 
BRANCH  16  17
ATOM     17  C   UNL     1       7.703   7.366  18.018  0.00  0.00    +0.000 C 
BRANCH  17  18
ATOM     18  C   UNL     1       7.914   8.863  18.067  0.00  0.00    +0.000 C 
ATOM     19  O   UNL     1       7.294   9.663  17.372  0.00  0.00    +0.000 OA
ATOM     20  N   UNL     1       8.903   9.233  18.967  0.00  0.00    +0.000 N 
ATOM     21  H   UNL     1       9.234   8.540  19.628  0.00  0.00    +0.000 HD
BRANCH  20  22
ATOM     22  C   UNL     1       9.256  10.628  19.188  0.00  0.00    +0.000 C 
ATOM     23  C   UNL     1      10.356  11.078  18.217  0.00  0.00    +0.000 C 
ATOM     24  C   UNL     1      10.723  12.547  18.439  0.00  0.00    +0.000 C 
ATOM     25  C   UNL     1      11.135  12.818  19.894  0.00  0.00    +0.000 C 
ATOM     26  C   UNL     1      11.418  14.304  20.110  0.00  0.00    +0.000 C 
ATOM     27  C   UNL     1      10.056  12.331  20.871  0.00  0.00    +0.000 C 
ATOM     28  C   UNL     1       9.698  10.864  20.637  0.00  0.00    +0.000 C 
ENDBRANCH  20  22
ENDBRANCH  17  18
ENDBRANCH  16  17
ENDBRANCH   3  16
TORSDOF 6
ENDMDL
MODEL 8
REMARK VINA RESULT:      -6.9      3.232      7.854
REMARK  Name = 
REMARK  8 active torsions:
REMARK  status: ('A' for Active; 'I' for Inactive)
REMARK    1  A    between atoms: C_1  and  O_2
REMARK    2  A    between atoms: O_2  and  C_3
REMARK    3  A    between atoms: C_6  and  C_7
REMARK    4  A    between atoms: N_9  and  C_10
REMARK    5  A    between atoms: C_10  and  C_11
REMARK    6  A    between atoms: C_11  and  C_12
REMARK    7  A    between atoms: N_14  and  C_15
REMARK    8  A    between atoms: C_18  and  C_19
REMARK                            x       y       z     vdW  Elec       q    Type
REMARK                         _______ _______ _______ _____ _____    ______ ____
ROOT
ATOM      1  C   UNL     1       5.071   4.619  17.272  0.00  0.00    +0.000 C 
ATOM      2  N   UNL     1       5.853   5.578  17.661  0.00  0.00    +0.000 NA
ATOM      3  N   UNL     1       6.895   5.980  16.860  0.00  0.00    +0.000 N 
ATOM      4  C   UNL     1       7.013   5.620  15.506  0.00  0.00    +0.000 C 
ATOM      5  O   UNL     1       7.934   5.968  14.774  0.00  0.00    +0.000 OA
ATOM      6  C   UNL     1       5.876   4.813  14.938  0.00  0.00    +0.000 C 
ATOM      7  C   UNL     1       5.213   3.918  15.952  0.00  0.00    +0.000 C 
ENDROOT
BRANCH   1  11
ATOM      8  C   UNL     1       2.025   3.159  19.909  0.00  0.00    +0.000 A 
ATOM      9  C   UNL     1       1.684   3.941  18.803  0.00  0.00    +0.000 A 
ATOM     10  C   UNL     1       2.672   4.423  17.941  0.00  0.00    +0.000 A 
ATOM     11  C   UNL     1       4.012   4.124  18.192  0.00  0.00    +0.000 A 
ATOM     12  C   UNL     1       4.357   3.360  19.312  0.00  0.00    +0.000 A 
ATOM     13  C   UNL     1       3.366   2.882  20.170  0.00  0.00    +0.000 A 
BRANCH   8  15
ATOM     14  C   UNL     1       1.255   2.576  22.064  0.00  0.00    +0.000 C 
ATOM     15  O   UNL     1       0.976   2.726  20.674  0.00  0.00    +0.000 OA
ENDBRANCH   8  15
ENDBRANCH   1  11
BRANCH   3  16
ATOM     16  C   UNL     1       7.869   6.900  17.482  0.00  0.00    +0.000 C 
BRANCH  16  17
ATOM     17  C   UNL     1       7.411   8.363  17.521  0.00  0.00    +0.000 C 
BRANCH  17  18
ATOM     18  C   UNL     1       8.378   9.264  18.258  0.00  0.00    +0.000 C 
ATOM     19  O   UNL     1       9.003   8.921  19.257  0.00  0.00    +0.000 OA
ATOM     20  N   UNL     1       8.462  10.529  17.696  0.00  0.00    +0.000 N 
ATOM     21  H   UNL     1       8.060  10.674  16.777  0.00  0.00    +0.000 HD
BRANCH  20  22
ATOM     22  C   UNL     1       9.349  11.551  18.235  0.00  0.00    +0.000 C 
ATOM     23  C   UNL     1       8.742  12.951  18.067  0.00  0.00    +0.000 C 
ATOM     24  C   UNL     1       9.666  14.027  18.641  0.00  0.00    +0.000 C 
ATOM     25  C   UNL     1      11.070  13.962  18.022  0.00  0.00    +0.000 C 
ATOM     26  C   UNL     1      11.996  14.992  18.668  0.00  0.00    +0.000 C 
ATOM     27  C   UNL     1      11.664  12.553  18.150  0.00  0.00    +0.000 C 
ATOM     28  C   UNL     1      10.731  11.489  17.574  0.00  0.00    +0.000 C 
ENDBRANCH  20  22
ENDBRANCH  17  18
ENDBRANCH  16  17
ENDBRANCH   3  16
TORSDOF 6
ENDMDL
MODEL 9
REMARK VINA RESULT:      -6.9      3.297      5.742
REMARK  Name = 
REMARK  8 active torsions:
REMARK  status: ('A' for Active; 'I' for Inactive)
REMARK    1  A    between atoms: C_1  and  O_2
REMARK    2  A    between atoms: O_2  and  C_3
REMARK    3  A    between atoms: C_6  and  C_7
REMARK    4  A    between atoms: N_9  and  C_10
REMARK    5  A    between atoms: C_10  and  C_11
REMARK    6  A    between atoms: C_11  and  C_12
REMARK    7  A    between atoms: N_14  and  C_15
REMARK    8  A    between atoms: C_18  and  C_19
REMARK                            x       y       z     vdW  Elec       q    Type
REMARK                         _______ _______ _______ _____ _____    ______ ____
ROOT
ATOM      1  C   UNL     1       8.141   8.074  18.157  0.00  0.00    +0.000 C 
ATOM      2  N   UNL     1       7.495   7.662  17.111  0.00  0.00    +0.000 NA
ATOM      3  N   UNL     1       7.255   6.320  16.939  0.00  0.00    +0.000 N 
ATOM      4  C   UNL     1       7.410   5.369  17.963  0.00  0.00    +0.000 C 
ATOM      5  O   UNL     1       7.201   4.168  17.831  0.00  0.00    +0.000 OA
ATOM      6  C   UNL     1       7.790   5.913  19.315  0.00  0.00    +0.000 C 
ATOM      7  C   UNL     1       8.633   7.160  19.242  0.00  0.00    +0.000 C 
ENDROOT
BRANCH   1  11
ATOM      8  C   UNL     1       9.110  12.232  18.542  0.00  0.00    +0.000 A 
ATOM      9  C   UNL     1       8.241  11.800  17.537  0.00  0.00    +0.000 A 
ATOM     10  C   UNL     1       7.924  10.446  17.404  0.00  0.00    +0.000 A 
ATOM     11  C   UNL     1       8.484   9.517  18.280  0.00  0.00    +0.000 A 
ATOM     12  C   UNL     1       9.373   9.944  19.273  0.00  0.00    +0.000 A 
ATOM     13  C   UNL     1       9.687  11.298  19.402  0.00  0.00    +0.000 A 
BRANCH   8  15
ATOM     14  C   UNL     1      10.692  13.965  18.805  0.00  0.00    +0.000 C 
ATOM     15  O   UNL     1       9.337  13.580  18.592  0.00  0.00    +0.000 OA
ENDBRANCH   8  15
ENDBRANCH   1  11
BRANCH   3  16
ATOM     16  C   UNL     1       6.733   5.922  15.616  0.00  0.00    +0.000 C 
BRANCH  16  17
ATOM     17  C   UNL     1       5.209   6.035  15.484  0.00  0.00    +0.000 C 
BRANCH  17  18
ATOM     18  C   UNL     1       4.497   5.994  16.818  0.00  0.00    +0.000 C 
ATOM     19  O   UNL     1       4.168   6.996  17.447  0.00  0.00    +0.000 OA
ATOM     20  N   UNL     1       4.279   4.700  17.267  0.00  0.00    +0.000 N 
ATOM     21  H   UNL     1       4.413   3.937  16.613  0.00  0.00    +0.000 HD
BRANCH  20  22
ATOM     22  C   UNL     1       3.591   4.428  18.521  0.00  0.00    +0.000 C 
ATOM     23  C   UNL     1       4.111   3.135  19.164  0.00  0.00    +0.000 C 
ATOM     24  C   UNL     1       3.398   2.850  20.488  0.00  0.00    +0.000 C 
ATOM     25  C   UNL     1       1.873   2.800  20.315  0.00  0.00    +0.000 C 
ATOM     26  C   UNL     1       1.180   2.596  21.662  0.00  0.00    +0.000 C 
ATOM     27  C   UNL     1       1.354   4.073  19.633  0.00  0.00    +0.000 C 
ATOM     28  C   UNL     1       2.074   4.346  18.314  0.00  0.00    +0.000 C 
ENDBRANCH  20  22
ENDBRANCH  17  18
ENDBRANCH  16  17
ENDBRANCH   3  16
TORSDOF 6
ENDMDL
