MODEL 1
REMARK VINA RESULT:      -9.2      0.000      0.000
REMARK  Name = 
REMARK  6 active torsions:
REMARK  status: ('A' for Active; 'I' for Inactive)
REMARK    1  A    between atoms: C_1  and  C_2
REMARK    2  A    between atoms: C_4  and  C_5
REMARK    3  A    between atoms: C_9  and  C_10
REMARK    4  A    between atoms: C_18  and  C_19
REMARK    5  A    between atoms: C_19  and  C_20
REMARK    6  A    between atoms: C_22  and  C_23
REMARK                            x       y       z     vdW  Elec       q    Type
REMARK                         _______ _______ _______ _____ _____    ______ ____
ROOT
ATOM      1  C   UNL     1       1.477   8.533  20.065  0.00  0.00    +0.000 C 
ATOM      2  O   UNL     1       2.189   8.953  19.162  0.00  0.00    +0.000 OA
ATOM      3  N   UNL     1       1.462   7.244  20.570  0.00  0.00    +0.000 N 
ATOM      4  C   UNL     1       2.235   6.161  20.128  0.00  0.00    +0.000 A 
ATOM      5  C   UNL     1       2.139   4.967  20.833  0.00  0.00    +0.000 A 
ATOM      6  C   UNL     1       2.913   3.878  20.435  0.00  0.00    +0.000 A 
ATOM      7  C   UNL     1       3.781   4.008  19.358  0.00  0.00    +0.000 A 
ATOM      8  F   UNL     1       4.539   2.954  19.031  0.00  0.00    +0.000 F 
ATOM      9  C   UNL     1       3.863   5.227  18.697  0.00  0.00    +0.000 A 
ATOM     10  N   UNL     1       3.065   6.283  19.075  0.00  0.00    +0.000 NA
ATOM     11  H   UNL     1       0.839   7.100  21.360  0.00  0.00    +0.000 HD
ENDROOT
BRANCH   9  12
ATOM     12  C   UNL     1       4.901   5.540  17.604  0.00  0.00    +0.000 C 
ATOM     13  C   UNL     1       4.987   7.026  17.172  0.00  0.00    +0.000 C 
ATOM     14  C   UNL     1       4.485   4.721  16.372  0.00  0.00    +0.000 C 
ATOM     15  C   UNL     1       5.557   3.870  15.713  0.00  0.00    +0.000 C 
ATOM     16  O   UNL     1       6.803   3.758  16.413  0.00  0.00    +0.000 OA
ATOM     17  C   UNL     1       7.050   4.480  17.506  0.00  0.00    +0.000 C 
ATOM     18  N   UNL     1       8.315   4.281  17.931  0.00  0.00    +0.000 N 
ATOM     19  N   UNL     1       6.245   5.261  18.099  0.00  0.00    +0.000 NA
ATOM     20  H   UNL     1       8.702   3.383  17.674  0.00  0.00    +0.000 HD
ATOM     21  H   UNL     1       8.452   4.546  18.897  0.00  0.00    +0.000 HD
BRANCH  15  22
ATOM     22  C   UNL     1       5.804   4.240  14.243  0.00  0.00    +0.000 C 
ATOM     23  F   UNL     1       6.814   3.543  13.674  0.00  0.00    +0.000 F 
ATOM     24  F   UNL     1       4.712   4.044  13.469  0.00  0.00    +0.000 F 
ATOM     25  F   UNL     1       6.131   5.553  14.135  0.00  0.00    +0.000 F 
ENDBRANCH  15  22
ENDBRANCH   9  12
BRANCH   1  32
ATOM     26  C   UNL     1      -0.460  10.413  18.594  0.00  0.00    +0.000 C 
ATOM     27  C   UNL     1      -0.385  10.316  20.090  0.00  0.00    +0.000 A 
ATOM     28  C   UNL     1      -1.232  11.133  20.860  0.00  0.00    +0.000 A 
ATOM     29  C   UNL     1      -1.190  11.084  22.253  0.00  0.00    +0.000 A 
ATOM     30  C   UNL     1      -0.290  10.206  22.837  0.00  0.00    +0.000 A 
ATOM     31  N   UNL     1       0.548   9.394  22.141  0.00  0.00    +0.000 NA
ATOM     32  C   UNL     1       0.496   9.460  20.772  0.00  0.00    +0.000 A 
BRANCH  29  33
ATOM     33  C   UNL     1      -2.043  11.907  23.057  0.00  0.00    +0.000 C 
ATOM     34  N   UNL     1      -2.732  12.581  23.703  0.00  0.00    +0.000 NA
ENDBRANCH  29  33
ENDBRANCH   1  32
TORSDOF 4
ENDMDL
MODEL 2
REMARK VINA RESULT:      -8.9      1.038      1.095
REMARK  Name = 
REMARK  6 active torsions:
REMARK  status: ('A' for Active; 'I' for Inactive)
REMARK    1  A    between atoms: C_1  and  C_2
REMARK    2  A    between atoms: C_4  and  C_5
REMARK    3  A    between atoms: C_9  and  C_10
REMARK    4  A    between atoms: C_18  and  C_19
REMARK    5  A    between atoms: C_19  and  C_20
REMARK    6  A    between atoms: C_22  and  C_23
REMARK                            x       y       z     vdW  Elec       q    Type
REMARK                         _______ _______ _______ _____ _____    ______ ____
ROOT
ATOM      1  C   UNL     1       1.406   9.294  19.274  0.00  0.00    +0.000 C 
ATOM      2  O   UNL     1       2.176   9.561  18.361  0.00  0.00    +0.000 OA
ATOM      3  N   UNL     1       1.335   8.098  19.969  0.00  0.00    +0.000 N 
ATOM      4  C   UNL     1       2.108   6.950  19.743  0.00  0.00    +0.000 A 
ATOM      5  C   UNL     1       1.945   5.880  20.616  0.00  0.00    +0.000 A 
ATOM      6  C   UNL     1       2.717   4.733  20.435  0.00  0.00    +0.000 A 
ATOM      7  C   UNL     1       3.646   4.684  19.404  0.00  0.00    +0.000 A 
ATOM      8  F   UNL     1       4.398   3.583  19.287  0.00  0.00    +0.000 F 
ATOM      9  C   UNL     1       3.791   5.785  18.570  0.00  0.00    +0.000 A 
ATOM     10  N   UNL     1       2.997   6.898  18.734  0.00  0.00    +0.000 NA
ATOM     11  H   UNL     1       0.665   8.086  20.734  0.00  0.00    +0.000 HD
ENDROOT
BRANCH   9  12
ATOM     12  C   UNL     1       4.896   5.913  17.504  0.00  0.00    +0.000 C 
ATOM     13  C   UNL     1       5.087   7.331  16.910  0.00  0.00    +0.000 C 
ATOM     14  C   UNL     1       4.489   4.977  16.354  0.00  0.00    +0.000 C 
ATOM     15  C   UNL     1       5.539   4.000  15.854  0.00  0.00    +0.000 C 
ATOM     16  O   UNL     1       6.743   3.905  16.628  0.00  0.00    +0.000 OA
ATOM     17  C   UNL     1       6.981   4.737  17.642  0.00  0.00    +0.000 C 
ATOM     18  N   UNL     1       8.211   4.524  18.153  0.00  0.00    +0.000 N 
ATOM     19  N   UNL     1       6.196   5.624  18.098  0.00  0.00    +0.000 NA
ATOM     20  H   UNL     1       8.557   3.583  18.021  0.00  0.00    +0.000 HD
ATOM     21  H   UNL     1       8.319   4.893  19.088  0.00  0.00    +0.000 HD
BRANCH  15  22
ATOM     22  C   UNL     1       5.875   4.181  14.367  0.00  0.00    +0.000 C 
ATOM     23  F   UNL     1       6.624   3.176  13.858  0.00  0.00    +0.000 F 
ATOM     24  F   UNL     1       4.769   4.271  13.594  0.00  0.00    +0.000 F 
ATOM     25  F   UNL     1       6.581   5.325  14.178  0.00  0.00    +0.000 F 
ENDBRANCH  15  22
ENDBRANCH   9  12
BRANCH   1  32
ATOM     26  C   UNL     1      -1.173  10.040  17.777  0.00  0.00    +0.000 C 
ATOM     27  C   UNL     1      -0.768  10.665  19.080  0.00  0.00    +0.000 A 
ATOM     28  C   UNL     1      -1.601  11.651  19.641  0.00  0.00    +0.000 A 
ATOM     29  C   UNL     1      -1.260  12.266  20.844  0.00  0.00    +0.000 A 
ATOM     30  C   UNL     1      -0.081  11.869  21.457  0.00  0.00    +0.000 A 
ATOM     31  N   UNL     1       0.757  10.922  20.961  0.00  0.00    +0.000 NA
ATOM     32  C   UNL     1       0.408  10.332  19.773  0.00  0.00    +0.000 A 
BRANCH  29  33
ATOM     33  C   UNL     1      -2.092  13.272  21.433  0.00  0.00    +0.000 C 
ATOM     34  N   UNL     1      -2.768  14.091  21.902  0.00  0.00    +0.000 NA
ENDBRANCH  29  33
ENDBRANCH   1  32
TORSDOF 4
ENDMDL
MODEL 3
REMARK VINA RESULT:      -8.6      1.048      1.538
REMARK  Name = 
REMARK  6 active torsions:
REMARK  status: ('A' for Active; 'I' for Inactive)
REMARK    1  A    between atoms: C_1  and  C_2
REMARK    2  A    between atoms: C_4  and  C_5
REMARK    3  A    between atoms: C_9  and  C_10
REMARK    4  A    between atoms: C_18  and  C_19
REMARK    5  A    between atoms: C_19  and  C_20
REMARK    6  A    between atoms: C_22  and  C_23
REMARK                            x       y       z     vdW  Elec       q    Type
REMARK                         _______ _______ _______ _____ _____    ______ ____
ROOT
ATOM      1  C   UNL     1       1.524   8.879  19.378  0.00  0.00    +0.000 C 
ATOM      2  O   UNL     1       2.281   9.214  18.476  0.00  0.00    +0.000 OA
ATOM      3  N   UNL     1       1.479   7.643  19.998  0.00  0.00    +0.000 N 
ATOM      4  C   UNL     1       2.266   6.523  19.695  0.00  0.00    +0.000 A 
ATOM      5  C   UNL     1       2.130   5.399  20.501  0.00  0.00    +0.000 A 
ATOM      6  C   UNL     1       2.917   4.277  20.243  0.00  0.00    +0.000 A 
ATOM      7  C   UNL     1       3.836   4.307  19.202  0.00  0.00    +0.000 A 
ATOM      8  F   UNL     1       4.603   3.227  19.010  0.00  0.00    +0.000 F 
ATOM      9  C   UNL     1       3.955   5.460  18.436  0.00  0.00    +0.000 A 
ATOM     10  N   UNL     1       3.146   6.547  18.676  0.00  0.00    +0.000 NA
ATOM     11  H   UNL     1       0.817   7.573  20.767  0.00  0.00    +0.000 HD
ENDROOT
BRANCH   9  12
ATOM     12  C   UNL     1       5.047   5.671  17.370  0.00  0.00    +0.000 C 
ATOM     13  C   UNL     1       5.216   7.127  16.868  0.00  0.00    +0.000 C 
ATOM     14  C   UNL     1       4.639   4.807  16.165  0.00  0.00    +0.000 C 
ATOM     15  C   UNL     1       5.695   3.878  15.592  0.00  0.00    +0.000 C 
ATOM     16  O   UNL     1       6.908   3.748  16.346  0.00  0.00    +0.000 OA
ATOM     17  C   UNL     1       7.147   4.514  17.409  0.00  0.00    +0.000 C 
ATOM     18  N   UNL     1       8.385   4.283  17.893  0.00  0.00    +0.000 N 
ATOM     19  N   UNL     1       6.357   5.359  17.931  0.00  0.00    +0.000 NA
ATOM     20  H   UNL     1       8.740   3.357  17.696  0.00  0.00    +0.000 HD
ATOM     21  H   UNL     1       8.499   4.592  18.849  0.00  0.00    +0.000 HD
BRANCH  15  22
ATOM     22  C   UNL     1       6.012   4.160  14.116  0.00  0.00    +0.000 C 
ATOM     23  F   UNL     1       6.953   5.116  13.941  0.00  0.00    +0.000 F 
ATOM     24  F   UNL     1       6.449   3.060  13.461  0.00  0.00    +0.000 F 
ATOM     25  F   UNL     1       4.899   4.588  13.468  0.00  0.00    +0.000 F 
ENDBRANCH  15  22
ENDBRANCH   9  12
BRANCH   1  32
ATOM     26  C   UNL     1       1.103   9.343  22.388  0.00  0.00    +0.000 C 
ATOM     27  C   UNL     1       0.331  10.072  21.327  0.00  0.00    +0.000 A 
ATOM     28  C   UNL     1      -0.643  11.006  21.726  0.00  0.00    +0.000 A 
ATOM     29  C   UNL     1      -1.392  11.699  20.776  0.00  0.00    +0.000 A 
ATOM     30  C   UNL     1      -1.137  11.434  19.440  0.00  0.00    +0.000 A 
ATOM     31  N   UNL     1      -0.208  10.546  19.000  0.00  0.00    +0.000 NA
ATOM     32  C   UNL     1       0.515   9.869  19.949  0.00  0.00    +0.000 A 
BRANCH  29  33
ATOM     33  C   UNL     1      -2.388  12.654  21.160  0.00  0.00    +0.000 C 
ATOM     34  N   UNL     1      -3.189  13.431  21.477  0.00  0.00    +0.000 NA
ENDBRANCH  29  33
ENDBRANCH   1  32
TORSDOF 4
ENDMDL
MODEL 4
REMARK VINA RESULT:      -8.3      2.154      2.761
REMARK  Name = 
REMARK  6 active torsions:
REMARK  status: ('A' for Active; 'I' for Inactive)
REMARK    1  A    between atoms: C_1  and  C_2
REMARK    2  A    between atoms: C_4  and  C_5
REMARK    3  A    between atoms: C_9  and  C_10
REMARK    4  A    between atoms: C_18  and  C_19
REMARK    5  A    between atoms: C_19  and  C_20
REMARK    6  A    between atoms: C_22  and  C_23
REMARK                            x       y       z     vdW  Elec       q    Type
REMARK                         _______ _______ _______ _____ _____    ______ ____
ROOT
ATOM      1  C   UNL     1       1.418   7.920  20.333  0.00  0.00    +0.000 C 
ATOM      2  O   UNL     1       2.419   8.196  19.684  0.00  0.00    +0.000 OA
ATOM      3  N   UNL     1       0.936   6.650  20.601  0.00  0.00    +0.000 N 
ATOM      4  C   UNL     1       1.477   5.435  20.158  0.00  0.00    +0.000 A 
ATOM      5  C   UNL     1       0.893   4.261  20.617  0.00  0.00    +0.000 A 
ATOM      6  C   UNL     1       1.424   3.036  20.215  0.00  0.00    +0.000 A 
ATOM      7  C   UNL     1       2.536   3.007  19.383  0.00  0.00    +0.000 A 
ATOM      8  F   UNL     1       3.042   1.813  19.052  0.00  0.00    +0.000 F 
ATOM      9  C   UNL     1       3.101   4.206  18.967  0.00  0.00    +0.000 A 
ATOM     10  N   UNL     1       2.545   5.409  19.339  0.00  0.00    +0.000 NA
ATOM     11  H   UNL     1       0.119   6.621  21.207  0.00  0.00    +0.000 HD
ENDROOT
BRANCH   9  12
ATOM     12  C   UNL     1       4.425   4.302  18.186  0.00  0.00    +0.000 C 
ATOM     13  C   UNL     1       4.939   2.974  17.578  0.00  0.00    +0.000 C 
ATOM     14  C   UNL     1       5.480   4.792  19.192  0.00  0.00    +0.000 C 
ATOM     15  C   UNL     1       6.332   5.979  18.777  0.00  0.00    +0.000 C 
ATOM     16  O   UNL     1       5.944   6.654  17.573  0.00  0.00    +0.000 OA
ATOM     17  C   UNL     1       4.980   6.171  16.789  0.00  0.00    +0.000 C 
ATOM     18  N   UNL     1       4.859   6.916  15.670  0.00  0.00    +0.000 N 
ATOM     19  N   UNL     1       4.252   5.157  17.016  0.00  0.00    +0.000 NA
ATOM     20  H   UNL     1       5.156   7.876  15.778  0.00  0.00    +0.000 HD
ATOM     21  H   UNL     1       3.968   6.791  15.208  0.00  0.00    +0.000 HD
BRANCH  15  22
ATOM     22  C   UNL     1       7.835   5.666  18.752  0.00  0.00    +0.000 C 
ATOM     23  F   UNL     1       8.335   5.326  19.962  0.00  0.00    +0.000 F 
ATOM     24  F   UNL     1       8.138   4.653  17.908  0.00  0.00    +0.000 F 
ATOM     25  F   UNL     1       8.535   6.750  18.333  0.00  0.00    +0.000 F 
ENDBRANCH  15  22
ENDBRANCH   9  12
BRANCH   1  32
ATOM     26  C   UNL     1       0.000  10.117  18.718  0.00  0.00    +0.000 C 
ATOM     27  C   UNL     1      -0.069  10.022  20.214  0.00  0.00    +0.000 A 
ATOM     28  C   UNL     1      -0.807  10.992  20.917  0.00  0.00    +0.000 A 
ATOM     29  C   UNL     1      -0.890  10.949  22.308  0.00  0.00    +0.000 A 
ATOM     30  C   UNL     1      -0.224   9.923  22.960  0.00  0.00    +0.000 A 
ATOM     31  N   UNL     1       0.500   8.960  22.331  0.00  0.00    +0.000 NA
ATOM     32  C   UNL     1       0.575   9.022  20.962  0.00  0.00    +0.000 A 
BRANCH  29  33
ATOM     33  C   UNL     1      -1.636  11.926  23.043  0.00  0.00    +0.000 C 
ATOM     34  N   UNL     1      -2.249  12.713  23.636  0.00  0.00    +0.000 NA
ENDBRANCH  29  33
ENDBRANCH   1  32
TORSDOF 4
ENDMDL
MODEL 5
REMARK VINA RESULT:      -8.1      1.527      1.907
REMARK  Name = 
REMARK  6 active torsions:
REMARK  status: ('A' for Active; 'I' for Inactive)
REMARK    1  A    between atoms: C_1  and  C_2
REMARK    2  A    between atoms: C_4  and  C_5
REMARK    3  A    between atoms: C_9  and  C_10
REMARK    4  A    between atoms: C_18  and  C_19
REMARK    5  A    between atoms: C_19  and  C_20
REMARK    6  A    between atoms: C_22  and  C_23
REMARK                            x       y       z     vdW  Elec       q    Type
REMARK                         _______ _______ _______ _____ _____    ______ ____
ROOT
ATOM      1  C   UNL     1       1.689   9.511  18.634  0.00  0.00    +0.000 C 
ATOM      2  O   UNL     1       2.469   9.687  17.706  0.00  0.00    +0.000 OA
ATOM      3  N   UNL     1       1.584   8.375  19.417  0.00  0.00    +0.000 N 
ATOM      4  C   UNL     1       2.325   7.192  19.284  0.00  0.00    +0.000 A 
ATOM      5  C   UNL     1       2.132   6.197  20.235  0.00  0.00    +0.000 A 
ATOM      6  C   UNL     1       2.872   5.019  20.146  0.00  0.00    +0.000 A 
ATOM      7  C   UNL     1       3.802   4.866  19.125  0.00  0.00    +0.000 A 
ATOM      8  F   UNL     1       4.523   3.739  19.096  0.00  0.00    +0.000 F 
ATOM      9  C   UNL     1       3.979   5.896  18.210  0.00  0.00    +0.000 A 
ATOM     10  N   UNL     1       3.215   7.039  18.286  0.00  0.00    +0.000 NA
ATOM     11  H   UNL     1       0.913   8.440  20.178  0.00  0.00    +0.000 HD
ENDROOT
BRANCH   9  12
ATOM     12  C   UNL     1       5.089   5.912  17.143  0.00  0.00    +0.000 C 
ATOM     13  C   UNL     1       5.396   7.297  16.521  0.00  0.00    +0.000 C 
ATOM     14  C   UNL     1       4.605   4.990  16.011  0.00  0.00    +0.000 C 
ATOM     15  C   UNL     1       5.571   3.920  15.531  0.00  0.00    +0.000 C 
ATOM     16  O   UNL     1       6.764   3.742  16.307  0.00  0.00    +0.000 OA
ATOM     17  C   UNL     1       7.071   4.571  17.304  0.00  0.00    +0.000 C 
ATOM     18  N   UNL     1       8.280   4.267  17.820  0.00  0.00    +0.000 N 
ATOM     19  N   UNL     1       6.362   5.528  17.743  0.00  0.00    +0.000 NA
ATOM     20  H   UNL     1       8.547   3.299  17.707  0.00  0.00    +0.000 HD
ATOM     21  H   UNL     1       8.419   4.645  18.748  0.00  0.00    +0.000 HD
BRANCH  15  22
ATOM     22  C   UNL     1       5.918   4.044  14.040  0.00  0.00    +0.000 C 
ATOM     23  F   UNL     1       4.838   4.236  13.249  0.00  0.00    +0.000 F 
ATOM     24  F   UNL     1       6.770   5.064  13.790  0.00  0.00    +0.000 F 
ATOM     25  F   UNL     1       6.523   2.911  13.602  0.00  0.00    +0.000 F 
ENDBRANCH  15  22
ENDBRANCH   9  12
BRANCH   1  32
ATOM     26  C   UNL     1       2.314  12.513  18.409  0.00  0.00    +0.000 C 
ATOM     27  C   UNL     1       1.015  11.980  18.940  0.00  0.00    +0.000 A 
ATOM     28  C   UNL     1       0.038  12.897  19.369  0.00  0.00    +0.000 A 
ATOM     29  C   UNL     1      -1.179  12.448  19.880  0.00  0.00    +0.000 A 
ATOM     30  C   UNL     1      -1.383  11.078  19.943  0.00  0.00    +0.000 A 
ATOM     31  N   UNL     1      -0.475  10.151  19.541  0.00  0.00    +0.000 NA
ATOM     32  C   UNL     1       0.719  10.611  19.047  0.00  0.00    +0.000 A 
BRANCH  29  33
ATOM     33  C   UNL     1      -2.189  13.363  20.322  0.00  0.00    +0.000 C 
ATOM     34  N   UNL     1      -3.003  14.111  20.674  0.00  0.00    +0.000 NA
ENDBRANCH  29  33
ENDBRANCH   1  32
TORSDOF 4
ENDMDL
MODEL 6
REMARK VINA RESULT:      -8.0      1.858      2.556
REMARK  Name = 
REMARK  6 active torsions:
REMARK  status: ('A' for Active; 'I' for Inactive)
REMARK    1  A    between atoms: C_1  and  C_2
REMARK    2  A    between atoms: C_4  and  C_5
REMARK    3  A    between atoms: C_9  and  C_10
REMARK    4  A    between atoms: C_18  and  C_19
REMARK    5  A    between atoms: C_19  and  C_20
REMARK    6  A    between atoms: C_22  and  C_23
REMARK                            x       y       z     vdW  Elec       q    Type
REMARK                         _______ _______ _______ _____ _____    ______ ____
ROOT
ATOM      1  C   UNL     1       1.523   7.962  20.489  0.00  0.00    +0.000 C 
ATOM      2  O   UNL     1       2.579   8.269  19.953  0.00  0.00    +0.000 OA
ATOM      3  N   UNL     1       1.029   6.680  20.661  0.00  0.00    +0.000 N 
ATOM      4  C   UNL     1       1.623   5.486  20.228  0.00  0.00    +0.000 A 
ATOM      5  C   UNL     1       1.008   4.291  20.582  0.00  0.00    +0.000 A 
ATOM      6  C   UNL     1       1.588   3.086  20.189  0.00  0.00    +0.000 A 
ATOM      7  C   UNL     1       2.776   3.096  19.470  0.00  0.00    +0.000 A 
ATOM      8  F   UNL     1       3.325   1.919  19.146  0.00  0.00    +0.000 F 
ATOM      9  C   UNL     1       3.368   4.313  19.157  0.00  0.00    +0.000 A 
ATOM     10  N   UNL     1       2.767   5.498  19.517  0.00  0.00    +0.000 NA
ATOM     11  H   UNL     1       0.157   6.623  21.181  0.00  0.00    +0.000 HD
ENDROOT
BRANCH   9  12
ATOM     12  C   UNL     1       4.761   4.448  18.514  0.00  0.00    +0.000 C 
ATOM     13  C   UNL     1       5.882   3.601  19.168  0.00  0.00    +0.000 C 
ATOM     14  C   UNL     1       5.154   5.928  18.653  0.00  0.00    +0.000 C 
ATOM     15  C   UNL     1       5.631   6.637  17.398  0.00  0.00    +0.000 C 
ATOM     16  O   UNL     1       5.485   5.920  16.165  0.00  0.00    +0.000 OA
ATOM     17  C   UNL     1       5.090   4.648  16.147  0.00  0.00    +0.000 C 
ATOM     18  N   UNL     1       5.122   4.157  14.890  0.00  0.00    +0.000 N 
ATOM     19  N   UNL     1       4.727   3.950  17.143  0.00  0.00    +0.000 NA
ATOM     20  H   UNL     1       5.010   4.857  14.170  0.00  0.00    +0.000 HD
ATOM     21  H   UNL     1       4.553   3.329  14.776  0.00  0.00    +0.000 HD
BRANCH  15  22
ATOM     22  C   UNL     1       7.055   7.197  17.523  0.00  0.00    +0.000 C 
ATOM     23  F   UNL     1       7.104   8.549  17.533  0.00  0.00    +0.000 F 
ATOM     24  F   UNL     1       7.680   6.777  18.647  0.00  0.00    +0.000 F 
ATOM     25  F   UNL     1       7.816   6.790  16.475  0.00  0.00    +0.000 F 
ENDBRANCH  15  22
ENDBRANCH   9  12
BRANCH   1  32
ATOM     26  C   UNL     1       0.083  10.086  18.797  0.00  0.00    +0.000 C 
ATOM     27  C   UNL     1      -0.042  10.001  20.291  0.00  0.00    +0.000 A 
ATOM     28  C   UNL     1      -0.846  10.945  20.954  0.00  0.00    +0.000 A 
ATOM     29  C   UNL     1      -0.984  10.911  22.340  0.00  0.00    +0.000 A 
ATOM     30  C   UNL     1      -0.304   9.918  23.028  0.00  0.00    +0.000 A 
ATOM     31  N   UNL     1       0.484   8.981  22.438  0.00  0.00    +0.000 NA
ATOM     32  C   UNL     1       0.611   9.034  21.074  0.00  0.00    +0.000 A 
BRANCH  29  33
ATOM     33  C   UNL     1      -1.798  11.862  23.036  0.00  0.00    +0.000 C 
ATOM     34  N   UNL     1      -2.458  12.638  23.591  0.00  0.00    +0.000 NA
ENDBRANCH  29  33
ENDBRANCH   1  32
TORSDOF 4
ENDMDL
MODEL 7
REMARK VINA RESULT:      -7.9      3.017      4.995
REMARK  Name = 
REMARK  6 active torsions:
REMARK  status: ('A' for Active; 'I' for Inactive)
REMARK    1  A    between atoms: C_1  and  C_2
REMARK    2  A    between atoms: C_4  and  C_5
REMARK    3  A    between atoms: C_9  and  C_10
REMARK    4  A    between atoms: C_18  and  C_19
REMARK    5  A    between atoms: C_19  and  C_20
REMARK    6  A    between atoms: C_22  and  C_23
REMARK                            x       y       z     vdW  Elec       q    Type
REMARK                         _______ _______ _______ _____ _____    ______ ____
ROOT
ATOM      1  C   UNL     1       2.192   8.680  18.516  0.00  0.00    +0.000 C 
ATOM      2  O   UNL     1       1.597   7.805  19.132  0.00  0.00    +0.000 OA
ATOM      3  N   UNL     1       3.233   8.494  17.623  0.00  0.00    +0.000 N 
ATOM      4  C   UNL     1       3.831   7.276  17.273  0.00  0.00    +0.000 A 
ATOM      5  C   UNL     1       4.806   7.295  16.282  0.00  0.00    +0.000 A 
ATOM      6  C   UNL     1       5.403   6.096  15.892  0.00  0.00    +0.000 A 
ATOM      7  C   UNL     1       5.001   4.904  16.482  0.00  0.00    +0.000 A 
ATOM      8  F   UNL     1       5.567   3.769  16.053  0.00  0.00    +0.000 F 
ATOM      9  C   UNL     1       4.007   4.929  17.452  0.00  0.00    +0.000 A 
ATOM     10  N   UNL     1       3.453   6.123  17.856  0.00  0.00    +0.000 NA
ATOM     11  H   UNL     1       3.562   9.342  17.167  0.00  0.00    +0.000 HD
ENDROOT
BRANCH   9  12
ATOM     12  C   UNL     1       3.366   3.665  18.054  0.00  0.00    +0.000 C 
ATOM     13  C   UNL     1       2.625   2.750  17.047  0.00  0.00    +0.000 C 
ATOM     14  C   UNL     1       2.334   4.158  19.081  0.00  0.00    +0.000 C 
ATOM     15  C   UNL     1       2.396   3.549  20.471  0.00  0.00    +0.000 C 
ATOM     16  O   UNL     1       3.530   2.718  20.753  0.00  0.00    +0.000 OA
ATOM     17  C   UNL     1       4.398   2.385  19.799  0.00  0.00    +0.000 C 
ATOM     18  N   UNL     1       5.320   1.521  20.274  0.00  0.00    +0.000 N 
ATOM     19  N   UNL     1       4.401   2.792  18.597  0.00  0.00    +0.000 NA
ATOM     20  H   UNL     1       5.482   1.595  21.269  0.00  0.00    +0.000 HD
ATOM     21  H   UNL     1       6.155   1.483  19.705  0.00  0.00    +0.000 HD
BRANCH  15  22
ATOM     22  C   UNL     1       1.098   2.835  20.878  0.00  0.00    +0.000 C 
ATOM     23  F   UNL     1       0.999   2.617  22.209  0.00  0.00    +0.000 F 
ATOM     24  F   UNL     1      -0.007   3.524  20.513  0.00  0.00    +0.000 F 
ATOM     25  F   UNL     1       1.021   1.620  20.278  0.00  0.00    +0.000 F 
ENDBRANCH  15  22
ENDBRANCH   9  12
BRANCH   1  32
ATOM     26  C   UNL     1      -0.094   9.645  20.330  0.00  0.00    +0.000 C 
ATOM     27  C   UNL     1       0.748  10.573  19.504  0.00  0.00    +0.000 A 
ATOM     28  C   UNL     1       0.473  11.952  19.550  0.00  0.00    +0.000 A 
ATOM     29  C   UNL     1       1.222  12.850  18.792  0.00  0.00    +0.000 A 
ATOM     30  C   UNL     1       2.238  12.333  18.003  0.00  0.00    +0.000 A 
ATOM     31  N   UNL     1       2.547  11.012  17.924  0.00  0.00    +0.000 NA
ATOM     32  C   UNL     1       1.795  10.143  18.672  0.00  0.00    +0.000 A 
BRANCH  29  33
ATOM     33  C   UNL     1       0.959  14.258  18.824  0.00  0.00    +0.000 C 
ATOM     34  N   UNL     1       0.748  15.398  18.859  0.00  0.00    +0.000 NA
ENDBRANCH  29  33
ENDBRANCH   1  32
TORSDOF 4
ENDMDL
MODEL 8
REMARK VINA RESULT:      -7.8      2.187      2.874
REMARK  Name = 
REMARK  6 active torsions:
REMARK  status: ('A' for Active; 'I' for Inactive)
REMARK    1  A    between atoms: C_1  and  C_2
REMARK    2  A    between atoms: C_4  and  C_5
REMARK    3  A    between atoms: C_9  and  C_10
REMARK    4  A    between atoms: C_18  and  C_19
REMARK    5  A    between atoms: C_19  and  C_20
REMARK    6  A    between atoms: C_22  and  C_23
REMARK                            x       y       z     vdW  Elec       q    Type
REMARK                         _______ _______ _______ _____ _____    ______ ____
ROOT
ATOM      1  C   UNL     1       1.637   7.634  20.476  0.00  0.00    +0.000 C 
ATOM      2  O   UNL     1       2.777   7.769  20.051  0.00  0.00    +0.000 OA
ATOM      3  N   UNL     1       0.926   6.450  20.566  0.00  0.00    +0.000 N 
ATOM      4  C   UNL     1       1.359   5.179  20.161  0.00  0.00    +0.000 A 
ATOM      5  C   UNL     1       0.526   4.098  20.424  0.00  0.00    +0.000 A 
ATOM      6  C   UNL     1       0.938   2.817  20.056  0.00  0.00    +0.000 A 
ATOM      7  C   UNL     1       2.177   2.640  19.454  0.00  0.00    +0.000 A 
ATOM      8  F   UNL     1       2.556   1.391  19.154  0.00  0.00    +0.000 F 
ATOM      9  C   UNL     1       2.986   3.746  19.231  0.00  0.00    +0.000 A 
ATOM     10  N   UNL     1       2.553   5.009  19.563  0.00  0.00    +0.000 NA
ATOM     11  H   UNL     1       0.010   6.531  20.999  0.00  0.00    +0.000 HD
ENDROOT
BRANCH   9  12
ATOM     12  C   UNL     1       4.439   3.656  18.728  0.00  0.00    +0.000 C 
ATOM     13  C   UNL     1       5.217   2.387  19.157  0.00  0.00    +0.000 C 
ATOM     14  C   UNL     1       5.171   4.873  19.318  0.00  0.00    +0.000 C 
ATOM     15  C   UNL     1       5.969   5.734  18.355  0.00  0.00    +0.000 C 
ATOM     16  O   UNL     1       5.807   5.449  16.959  0.00  0.00    +0.000 OA
ATOM     17  C   UNL     1       5.110   4.391  16.546  0.00  0.00    +0.000 C 
ATOM     18  N   UNL     1       5.178   4.271  15.203  0.00  0.00    +0.000 N 
ATOM     19  N   UNL     1       4.458   3.579  17.271  0.00  0.00    +0.000 NA
ATOM     20  H   UNL     1       5.340   5.143  14.718  0.00  0.00    +0.000 HD
ATOM     21  H   UNL     1       4.439   3.697  14.820  0.00  0.00    +0.000 HD
BRANCH  15  22
ATOM     22  C   UNL     1       7.460   5.819  18.712  0.00  0.00    +0.000 C 
ATOM     23  F   UNL     1       8.053   6.956  18.282  0.00  0.00    +0.000 F 
ATOM     24  F   UNL     1       7.679   5.747  20.045  0.00  0.00    +0.000 F 
ATOM     25  F   UNL     1       8.140   4.790  18.146  0.00  0.00    +0.000 F 
ENDBRANCH  15  22
ENDBRANCH   9  12
BRANCH   1  32
ATOM     26  C   UNL     1       0.553   9.880  18.678  0.00  0.00    +0.000 C 
ATOM     27  C   UNL     1       0.368   9.857  20.167  0.00  0.00    +0.000 A 
ATOM     28  C   UNL     1      -0.324  10.920  20.776  0.00  0.00    +0.000 A 
ATOM     29  C   UNL     1      -0.511  10.946  22.156  0.00  0.00    +0.000 A 
ATOM     30  C   UNL     1       0.006   9.893  22.894  0.00  0.00    +0.000 A 
ATOM     31  N   UNL     1       0.679   8.841  22.358  0.00  0.00    +0.000 NA
ATOM     32  C   UNL     1       0.858   8.836  20.998  0.00  0.00    +0.000 A 
BRANCH  29  33
ATOM     33  C   UNL     1      -1.213  12.019  22.797  0.00  0.00    +0.000 C 
ATOM     34  N   UNL     1      -1.773  12.892  23.317  0.00  0.00    +0.000 NA
ENDBRANCH  29  33
ENDBRANCH   1  32
TORSDOF 4
ENDMDL
MODEL 9
REMARK VINA RESULT:      -7.7      4.613      9.161
REMARK  Name = 
REMARK  6 active torsions:
REMARK  status: ('A' for Active; 'I' for Inactive)
REMARK    1  A    between atoms: C_1  and  C_2
REMARK    2  A    between atoms: C_4  and  C_5
REMARK    3  A    between atoms: C_9  and  C_10
REMARK    4  A    between atoms: C_18  and  C_19
REMARK    5  A    between atoms: C_19  and  C_20
REMARK    6  A    between atoms: C_22  and  C_23
REMARK                            x       y       z     vdW  Elec       q    Type
REMARK                         _______ _______ _______ _____ _____    ______ ____
ROOT
ATOM      1  C   UNL     1       2.271   8.025  18.409  0.00  0.00    +0.000 C 
ATOM      2  O   UNL     1       1.583   8.668  17.627  0.00  0.00    +0.000 OA
ATOM      3  N   UNL     1       2.182   8.042  19.790  0.00  0.00    +0.000 N 
ATOM      4  C   UNL     1       1.311   8.821  20.565  0.00  0.00    +0.000 A 
ATOM      5  C   UNL     1       1.316   8.622  21.941  0.00  0.00    +0.000 A 
ATOM      6  C   UNL     1       0.443   9.361  22.737  0.00  0.00    +0.000 A 
ATOM      7  C   UNL     1      -0.428  10.267  22.146  0.00  0.00    +0.000 A 
ATOM      8  F   UNL     1      -1.280  10.929  22.939  0.00  0.00    +0.000 F 
ATOM      9  C   UNL     1      -0.414  10.418  20.766  0.00  0.00    +0.000 A 
ATOM     10  N   UNL     1       0.478   9.710  19.992  0.00  0.00    +0.000 NA
ATOM     11  H   UNL     1       2.804   7.395  20.267  0.00  0.00    +0.000 HD
ENDROOT
BRANCH   9  12
ATOM     12  C   UNL     1      -1.440  11.262  19.986  0.00  0.00    +0.000 C 
ATOM     13  C   UNL     1      -2.737  11.614  20.756  0.00  0.00    +0.000 C 
ATOM     14  C   UNL     1      -1.839  10.423  18.760  0.00  0.00    +0.000 C 
ATOM     15  C   UNL     1      -1.774  11.106  17.405  0.00  0.00    +0.000 C 
ATOM     16  O   UNL     1      -1.163  12.403  17.372  0.00  0.00    +0.000 OA
ATOM     17  C   UNL     1      -0.807  13.029  18.493  0.00  0.00    +0.000 C 
ATOM     18  N   UNL     1      -0.347  14.268  18.220  0.00  0.00    +0.000 N 
ATOM     19  N   UNL     1      -0.874  12.570  19.674  0.00  0.00    +0.000 NA
ATOM     20  H   UNL     1       0.048  14.368  17.295  0.00  0.00    +0.000 HD
ATOM     21  H   UNL     1       0.212  14.655  18.969  0.00  0.00    +0.000 HD
BRANCH  15  22
ATOM     22  C   UNL     1      -3.127  11.136  16.678  0.00  0.00    +0.000 C 
ATOM     23  F   UNL     1      -3.028  11.472  15.371  0.00  0.00    +0.000 F 
ATOM     24  F   UNL     1      -3.767   9.946  16.726  0.00  0.00    +0.000 F 
ATOM     25  F   UNL     1      -3.950  12.049  17.252  0.00  0.00    +0.000 F 
ENDBRANCH  15  22
ENDBRANCH   9  12
BRANCH   1  32
ATOM     26  C   UNL     1       1.891   4.981  18.218  0.00  0.00    +0.000 C 
ATOM     27  C   UNL     1       3.156   5.679  17.810  0.00  0.00    +0.000 A 
ATOM     28  C   UNL     1       4.227   4.904  17.329  0.00  0.00    +0.000 A 
ATOM     29  C   UNL     1       5.424   5.508  16.948  0.00  0.00    +0.000 A 
ATOM     30  C   UNL     1       5.512   6.887  17.062  0.00  0.00    +0.000 A 
ATOM     31  N   UNL     1       4.509   7.682  17.518  0.00  0.00    +0.000 NA
ATOM     32  C   UNL     1       3.340   7.069  17.893  0.00  0.00    +0.000 A 
BRANCH  29  33
ATOM     33  C   UNL     1       6.527   4.739  16.455  0.00  0.00    +0.000 C 
ATOM     34  N   UNL     1       7.424   4.124  16.052  0.00  0.00    +0.000 NA
ENDBRANCH  29  33
ENDBRANCH   1  32
TORSDOF 4
ENDMDL
