MODEL 1
REMARK VINA RESULT:      -7.2      0.000      0.000
REMARK  Name = 
REMARK  13 active torsions:
REMARK  status: ('A' for Active; 'I' for Inactive)
REMARK    1  A    between atoms: C_1  and  C_2
REMARK    2  A    between atoms: C_2  and  C_3
REMARK    3  A    between atoms: C_3  and  C_5
REMARK    4  A    between atoms: C_5  and  C_6
REMARK    5  A    between atoms: C_5  and  C_21
REMARK    6  A    between atoms: C_6  and  C_7
REMARK    7  A    between atoms: C_7  and  C_8
REMARK    8  A    between atoms: C_8  and  C_9
REMARK    9  A    between atoms: C_9  and  C_10
REMARK   10  A    between atoms: C_10  and  C_11
REMARK   11  A    between atoms: C_11  and  C_12
REMARK   12  A    between atoms: C_21  and  C_23
REMARK   13  A    between atoms: C_23  and  C_24
REMARK                            x       y       z     vdW  Elec       q    Type
REMARK                         _______ _______ _______ _____ _____    ______ ____
ROOT
ATOM      1  C   UNL     1       4.370   3.465  18.776  0.00  0.00    +0.000 C 
ENDROOT
BRANCH   1   2
ATOM      2  C   UNL     1       4.127   3.293  17.277  0.00  0.00    +0.000 C 
BRANCH   2   3
ATOM      3  C   UNL     1       4.778   4.385  16.424  0.00  0.00    +0.000 C 
BRANCH   3   4
ATOM      4  C   UNL     1       6.288   4.148  16.216  0.00  0.00    +0.000 C 
BRANCH   4   5
ATOM      5  C   UNL     1       7.128   4.805  17.310  0.00  0.00    +0.000 C 
ATOM      6  O   UNL     1       8.183   4.305  17.705  0.00  0.00    +0.000 OA
BRANCH   5   8
ATOM      7  C   UNL     1       7.741   7.218  17.617  0.00  0.00    +0.000 C 
ATOM      8  C   UNL     1       6.669   6.159  17.823  0.00  0.00    +0.000 C 
ENDBRANCH   5   8
ENDBRANCH   4   5
BRANCH   4   9
ATOM      9  C   UNL     1       6.703   4.541  14.803  0.00  0.00    +0.000 C 
ATOM     10  O   UNL     1       7.652   5.296  14.594  0.00  0.00    +0.000 OA
BRANCH   9  11
ATOM     11  C   UNL     1       5.915   3.923  13.658  0.00  0.00    +0.000 C 
ATOM     12  C   UNL     1       6.711   3.878  12.364  0.00  0.00    +0.000 C 
ENDBRANCH   9  11
ENDBRANCH   4   9
ENDBRANCH   3   4
ENDBRANCH   2   3
ENDBRANCH   1   2
BRANCH   1  13
ATOM     13  C   UNL     1       3.091   3.910  19.502  0.00  0.00    +0.000 C 
BRANCH  13  14
ATOM     14  C   UNL     1       3.051   5.399  19.871  0.00  0.00    +0.000 C 
BRANCH  14  15
ATOM     15  C   UNL     1       2.966   6.302  18.638  0.00  0.00    +0.000 C 
BRANCH  15  16
ATOM     16  C   UNL     1       2.240   7.595  18.908  0.00  0.00    +0.000 A 
ATOM     17  C   UNL     1       2.008   8.518  17.861  0.00  0.00    +0.000 A 
ATOM     18  C   UNL     1       1.324   9.714  18.100  0.00  0.00    +0.000 A 
ATOM     19  C   UNL     1       0.889   9.955  19.382  0.00  0.00    +0.000 A 
ATOM     20  C   UNL     1       1.106   9.061  20.404  0.00  0.00    +0.000 A 
ATOM     21  C   UNL     1       1.771   7.872  20.199  0.00  0.00    +0.000 A 
ATOM     22  O   UNL     1       0.594   9.485  21.591  0.00  0.00    +0.000 OA
ATOM     23  C   UNL     1       0.088  10.781  21.213  0.00  0.00    +0.000 C 
ATOM     24  O   UNL     1       0.219  11.062  19.804  0.00  0.00    +0.000 OA
ENDBRANCH  15  16
ENDBRANCH  14  15
ENDBRANCH  13  14
ENDBRANCH   1  13
TORSDOF 11
ENDMDL
MODEL 2
REMARK VINA RESULT:      -7.0      1.071      3.141
REMARK  Name = 
REMARK  13 active torsions:
REMARK  status: ('A' for Active; 'I' for Inactive)
REMARK    1  A    between atoms: C_1  and  C_2
REMARK    2  A    between atoms: C_2  and  C_3
REMARK    3  A    between atoms: C_3  and  C_5
REMARK    4  A    between atoms: C_5  and  C_6
REMARK    5  A    between atoms: C_5  and  C_21
REMARK    6  A    between atoms: C_6  and  C_7
REMARK    7  A    between atoms: C_7  and  C_8
REMARK    8  A    between atoms: C_8  and  C_9
REMARK    9  A    between atoms: C_9  and  C_10
REMARK   10  A    between atoms: C_10  and  C_11
REMARK   11  A    between atoms: C_11  and  C_12
REMARK   12  A    between atoms: C_21  and  C_23
REMARK   13  A    between atoms: C_23  and  C_24
REMARK                            x       y       z     vdW  Elec       q    Type
REMARK                         _______ _______ _______ _____ _____    ______ ____
ROOT
ATOM      1  C   UNL     1       2.867   3.383  17.088  0.00  0.00    +0.000 C 
ENDROOT
BRANCH   1   2
ATOM      2  C   UNL     1       4.254   3.978  17.327  0.00  0.00    +0.000 C 
BRANCH   2   3
ATOM      3  C   UNL     1       5.246   3.686  16.198  0.00  0.00    +0.000 C 
BRANCH   3   4
ATOM      4  C   UNL     1       6.179   4.879  15.909  0.00  0.00    +0.000 C 
BRANCH   4   5
ATOM      5  C   UNL     1       6.742   4.837  14.490  0.00  0.00    +0.000 C 
ATOM      6  O   UNL     1       7.735   5.493  14.166  0.00  0.00    +0.000 OA
BRANCH   5   8
ATOM      7  C   UNL     1       6.876   3.803  12.208  0.00  0.00    +0.000 C 
ATOM      8  C   UNL     1       6.096   3.870  13.512  0.00  0.00    +0.000 C 
ENDBRANCH   5   8
ENDBRANCH   4   5
BRANCH   4   9
ATOM      9  C   UNL     1       7.246   5.001  16.990  0.00  0.00    +0.000 C 
ATOM     10  O   UNL     1       8.155   4.177  17.097  0.00  0.00    +0.000 OA
BRANCH   9  11
ATOM     11  C   UNL     1       7.161   6.210  17.908  0.00  0.00    +0.000 C 
ATOM     12  C   UNL     1       6.325   7.331  17.314  0.00  0.00    +0.000 C 
ENDBRANCH   9  11
ENDBRANCH   4   9
ENDBRANCH   3   4
ENDBRANCH   2   3
ENDBRANCH   1   2
BRANCH   1  13
ATOM     13  C   UNL     1       1.811   4.052  17.980  0.00  0.00    +0.000 C 
BRANCH  13  14
ATOM     14  C   UNL     1       2.228   4.222  19.446  0.00  0.00    +0.000 C 
BRANCH  14  15
ATOM     15  C   UNL     1       3.193   5.393  19.645  0.00  0.00    +0.000 C 
BRANCH  15  16
ATOM     16  C   UNL     1       2.500   6.732  19.632  0.00  0.00    +0.000 A 
ATOM     17  C   UNL     1       1.760   7.166  20.756  0.00  0.00    +0.000 A 
ATOM     18  C   UNL     1       1.125   8.413  20.758  0.00  0.00    +0.000 A 
ATOM     19  C   UNL     1       1.249   9.192  19.632  0.00  0.00    +0.000 A 
ATOM     20  C   UNL     1       1.970   8.780  18.537  0.00  0.00    +0.000 A 
ATOM     21  C   UNL     1       2.612   7.561  18.508  0.00  0.00    +0.000 A 
ATOM     22  O   UNL     1       1.972   9.698  17.533  0.00  0.00    +0.000 OA
ATOM     23  C   UNL     1       1.111  10.708  18.096  0.00  0.00    +0.000 C 
ATOM     24  O   UNL     1       0.696  10.422  19.448  0.00  0.00    +0.000 OA
ENDBRANCH  15  16
ENDBRANCH  14  15
ENDBRANCH  13  14
ENDBRANCH   1  13
TORSDOF 11
ENDMDL
MODEL 3
REMARK VINA RESULT:      -6.8      1.570      2.570
REMARK  Name = 
REMARK  13 active torsions:
REMARK  status: ('A' for Active; 'I' for Inactive)
REMARK    1  A    between atoms: C_1  and  C_2
REMARK    2  A    between atoms: C_2  and  C_3
REMARK    3  A    between atoms: C_3  and  C_5
REMARK    4  A    between atoms: C_5  and  C_6
REMARK    5  A    between atoms: C_5  and  C_21
REMARK    6  A    between atoms: C_6  and  C_7
REMARK    7  A    between atoms: C_7  and  C_8
REMARK    8  A    between atoms: C_8  and  C_9
REMARK    9  A    between atoms: C_9  and  C_10
REMARK   10  A    between atoms: C_10  and  C_11
REMARK   11  A    between atoms: C_11  and  C_12
REMARK   12  A    between atoms: C_21  and  C_23
REMARK   13  A    between atoms: C_23  and  C_24
REMARK                            x       y       z     vdW  Elec       q    Type
REMARK                         _______ _______ _______ _____ _____    ______ ____
ROOT
ATOM      1  C   UNL     1       1.342   3.799  17.771  0.00  0.00    +0.000 C 
ENDROOT
BRANCH   1   2
ATOM      2  C   UNL     1       2.665   3.560  17.044  0.00  0.00    +0.000 C 
BRANCH   2   3
ATOM      3  C   UNL     1       3.627   4.748  17.124  0.00  0.00    +0.000 C 
BRANCH   3   4
ATOM      4  C   UNL     1       5.094   4.335  16.885  0.00  0.00    +0.000 C 
BRANCH   4   5
ATOM      5  C   UNL     1       5.898   4.298  18.183  0.00  0.00    +0.000 C 
ATOM      6  O   UNL     1       7.125   4.420  18.190  0.00  0.00    +0.000 OA
BRANCH   5   8
ATOM      7  C   UNL     1       4.783   2.766  19.828  0.00  0.00    +0.000 C 
ATOM      8  C   UNL     1       5.118   4.209  19.484  0.00  0.00    +0.000 C 
ENDBRANCH   5   8
ENDBRANCH   4   5
BRANCH   4   9
ATOM      9  C   UNL     1       5.724   5.197  15.797  0.00  0.00    +0.000 C 
ATOM     10  O   UNL     1       5.491   6.403  15.712  0.00  0.00    +0.000 OA
BRANCH   9  11
ATOM     11  C   UNL     1       6.687   4.507  14.845  0.00  0.00    +0.000 C 
ATOM     12  C   UNL     1       5.976   3.857  13.669  0.00  0.00    +0.000 C 
ENDBRANCH   9  11
ENDBRANCH   4   9
ENDBRANCH   3   4
ENDBRANCH   2   3
ENDBRANCH   1   2
BRANCH   1  13
ATOM     13  C   UNL     1       1.394   3.275  19.214  0.00  0.00    +0.000 C 
BRANCH  13  14
ATOM     14  C   UNL     1       0.923   4.277  20.276  0.00  0.00    +0.000 C 
BRANCH  14  15
ATOM     15  C   UNL     1       2.041   5.225  20.717  0.00  0.00    +0.000 C 
BRANCH  15  16
ATOM     16  C   UNL     1       1.781   6.659  20.331  0.00  0.00    +0.000 A 
ATOM     17  C   UNL     1       1.057   7.513  21.194  0.00  0.00    +0.000 A 
ATOM     18  C   UNL     1       0.822   8.848  20.849  0.00  0.00    +0.000 A 
ATOM     19  C   UNL     1       1.320   9.292  19.647  0.00  0.00    +0.000 A 
ATOM     20  C   UNL     1       2.030   8.470  18.805  0.00  0.00    +0.000 A 
ATOM     21  C   UNL     1       2.282   7.153  19.119  0.00  0.00    +0.000 A 
ATOM     22  O   UNL     1       2.437   9.103  17.671  0.00  0.00    +0.000 OA
ATOM     23  C   UNL     1       1.844  10.402  17.867  0.00  0.00    +0.000 C 
ATOM     24  O   UNL     1       1.184  10.549  19.141  0.00  0.00    +0.000 OA
ENDBRANCH  15  16
ENDBRANCH  14  15
ENDBRANCH  13  14
ENDBRANCH   1  13
TORSDOF 11
ENDMDL
MODEL 4
REMARK VINA RESULT:      -6.8      1.543      8.424
REMARK  Name = 
REMARK  13 active torsions:
REMARK  status: ('A' for Active; 'I' for Inactive)
REMARK    1  A    between atoms: C_1  and  C_2
REMARK    2  A    between atoms: C_2  and  C_3
REMARK    3  A    between atoms: C_3  and  C_5
REMARK    4  A    between atoms: C_5  and  C_6
REMARK    5  A    between atoms: C_5  and  C_21
REMARK    6  A    between atoms: C_6  and  C_7
REMARK    7  A    between atoms: C_7  and  C_8
REMARK    8  A    between atoms: C_8  and  C_9
REMARK    9  A    between atoms: C_9  and  C_10
REMARK   10  A    between atoms: C_10  and  C_11
REMARK   11  A    between atoms: C_11  and  C_12
REMARK   12  A    between atoms: C_21  and  C_23
REMARK   13  A    between atoms: C_23  and  C_24
REMARK                            x       y       z     vdW  Elec       q    Type
REMARK                         _______ _______ _______ _____ _____    ______ ____
ROOT
ATOM      1  C   UNL     1       2.750   7.874  17.989  0.00  0.00    +0.000 C 
ENDROOT
BRANCH   1   2
ATOM      2  C   UNL     1       1.967   9.184  18.068  0.00  0.00    +0.000 C 
BRANCH   2   3
ATOM      3  C   UNL     1       1.086   9.294  19.315  0.00  0.00    +0.000 C 
BRANCH   3   4
ATOM      4  C   UNL     1       0.789  10.757  19.701  0.00  0.00    +0.000 C 
BRANCH   4   5
ATOM      5  C   UNL     1       0.681  10.941  21.214  0.00  0.00    +0.000 C 
ATOM      6  O   UNL     1       0.460  12.044  21.718  0.00  0.00    +0.000 OA
BRANCH   5   8
ATOM      7  C   UNL     1      -0.516   9.517  22.896  0.00  0.00    +0.000 C 
ATOM      8  C   UNL     1       0.752   9.691  22.075  0.00  0.00    +0.000 C 
ENDBRANCH   5   8
ENDBRANCH   4   5
BRANCH   4   9
ATOM      9  C   UNL     1      -0.416  11.282  18.931  0.00  0.00    +0.000 C 
ATOM     10  O   UNL     1      -0.447  12.427  18.479  0.00  0.00    +0.000 OA
BRANCH   9  11
ATOM     11  C   UNL     1      -1.566  10.311  18.708  0.00  0.00    +0.000 C 
ATOM     12  C   UNL     1      -1.854  10.082  17.234  0.00  0.00    +0.000 C 
ENDBRANCH   9  11
ENDBRANCH   4   9
ENDBRANCH   3   4
ENDBRANCH   2   3
ENDBRANCH   1   2
BRANCH   1  13
ATOM     13  C   UNL     1       2.458   6.975  19.201  0.00  0.00    +0.000 C 
BRANCH  13  14
ATOM     14  C   UNL     1       2.663   5.476  18.948  0.00  0.00    +0.000 C 
BRANCH  14  15
ATOM     15  C   UNL     1       4.071   5.009  19.327  0.00  0.00    +0.000 C 
BRANCH  15  16
ATOM     16  C   UNL     1       5.051   5.115  18.186  0.00  0.00    +0.000 A 
ATOM     17  C   UNL     1       6.293   5.765  18.367  0.00  0.00    +0.000 A 
ATOM     18  C   UNL     1       7.214   5.855  17.318  0.00  0.00    +0.000 A 
ATOM     19  C   UNL     1       6.864   5.291  16.114  0.00  0.00    +0.000 A 
ATOM     20  C   UNL     1       5.660   4.653  15.931  0.00  0.00    +0.000 A 
ATOM     21  C   UNL     1       4.736   4.542  16.947  0.00  0.00    +0.000 A 
ATOM     22  O   UNL     1       5.512   4.162  14.671  0.00  0.00    +0.000 OA
ATOM     23  C   UNL     1       6.734   4.624  14.061  0.00  0.00    +0.000 C 
ATOM     24  O   UNL     1       7.622   5.289  14.983  0.00  0.00    +0.000 OA
ENDBRANCH  15  16
ENDBRANCH  14  15
ENDBRANCH  13  14
ENDBRANCH   1  13
TORSDOF 11
ENDMDL
MODEL 5
REMARK VINA RESULT:      -6.7      1.397      1.750
REMARK  Name = 
REMARK  13 active torsions:
REMARK  status: ('A' for Active; 'I' for Inactive)
REMARK    1  A    between atoms: C_1  and  C_2
REMARK    2  A    between atoms: C_2  and  C_3
REMARK    3  A    between atoms: C_3  and  C_5
REMARK    4  A    between atoms: C_5  and  C_6
REMARK    5  A    between atoms: C_5  and  C_21
REMARK    6  A    between atoms: C_6  and  C_7
REMARK    7  A    between atoms: C_7  and  C_8
REMARK    8  A    between atoms: C_8  and  C_9
REMARK    9  A    between atoms: C_9  and  C_10
REMARK   10  A    between atoms: C_10  and  C_11
REMARK   11  A    between atoms: C_11  and  C_12
REMARK   12  A    between atoms: C_21  and  C_23
REMARK   13  A    between atoms: C_23  and  C_24
REMARK                            x       y       z     vdW  Elec       q    Type
REMARK                         _______ _______ _______ _____ _____    ______ ____
ROOT
ATOM      1  C   UNL     1       1.482   3.521  18.160  0.00  0.00    +0.000 C 
ENDROOT
BRANCH   1   2
ATOM      2  C   UNL     1       2.807   3.250  17.447  0.00  0.00    +0.000 C 
BRANCH   2   3
ATOM      3  C   UNL     1       3.582   4.522  17.098  0.00  0.00    +0.000 C 
BRANCH   3   4
ATOM      4  C   UNL     1       5.042   4.232  16.694  0.00  0.00    +0.000 C 
BRANCH   4   5
ATOM      5  C   UNL     1       6.004   4.390  17.870  0.00  0.00    +0.000 C 
ATOM      6  O   UNL     1       5.705   4.021  19.007  0.00  0.00    +0.000 OA
BRANCH   5   8
ATOM      7  C   UNL     1       7.654   6.228  18.309  0.00  0.00    +0.000 C 
ATOM      8  C   UNL     1       7.393   4.927  17.566  0.00  0.00    +0.000 C 
ENDBRANCH   5   8
ENDBRANCH   4   5
BRANCH   4   9
ATOM      9  C   UNL     1       5.432   5.046  15.467  0.00  0.00    +0.000 C 
ATOM     10  O   UNL     1       5.377   6.276  15.462  0.00  0.00    +0.000 OA
BRANCH   9  11
ATOM     11  C   UNL     1       5.932   4.270  14.258  0.00  0.00    +0.000 C 
ATOM     12  C   UNL     1       7.288   4.760  13.775  0.00  0.00    +0.000 C 
ENDBRANCH   9  11
ENDBRANCH   4   9
ENDBRANCH   3   4
ENDBRANCH   2   3
ENDBRANCH   1   2
BRANCH   1  13
ATOM     13  C   UNL     1       1.641   3.439  19.685  0.00  0.00    +0.000 C 
BRANCH  13  14
ATOM     14  C   UNL     1       2.583   4.491  20.286  0.00  0.00    +0.000 C 
BRANCH  14  15
ATOM     15  C   UNL     1       1.826   5.592  21.032  0.00  0.00    +0.000 C 
BRANCH  15  16
ATOM     16  C   UNL     1       1.774   6.890  20.266  0.00  0.00    +0.000 A 
ATOM     17  C   UNL     1       2.335   6.980  18.970  0.00  0.00    +0.000 A 
ATOM     18  C   UNL     1       2.279   8.176  18.248  0.00  0.00    +0.000 A 
ATOM     19  C   UNL     1       1.662   9.251  18.842  0.00  0.00    +0.000 A 
ATOM     20  C   UNL     1       1.110   9.171  20.098  0.00  0.00    +0.000 A 
ATOM     21  C   UNL     1       1.143   8.005  20.832  0.00  0.00    +0.000 A 
ATOM     22  O   UNL     1       0.545  10.342  20.500  0.00  0.00    +0.000 OA
ATOM     23  C   UNL     1       0.866  11.189  19.378  0.00  0.00    +0.000 C 
ATOM     24  O   UNL     1       1.522  10.492  18.299  0.00  0.00    +0.000 OA
ENDBRANCH  15  16
ENDBRANCH  14  15
ENDBRANCH  13  14
ENDBRANCH   1  13
TORSDOF 11
ENDMDL
MODEL 6
REMARK VINA RESULT:      -6.7      4.979      6.910
REMARK  Name = 
REMARK  13 active torsions:
REMARK  status: ('A' for Active; 'I' for Inactive)
REMARK    1  A    between atoms: C_1  and  C_2
REMARK    2  A    between atoms: C_2  and  C_3
REMARK    3  A    between atoms: C_3  and  C_5
REMARK    4  A    between atoms: C_5  and  C_6
REMARK    5  A    between atoms: C_5  and  C_21
REMARK    6  A    between atoms: C_6  and  C_7
REMARK    7  A    between atoms: C_7  and  C_8
REMARK    8  A    between atoms: C_8  and  C_9
REMARK    9  A    between atoms: C_9  and  C_10
REMARK   10  A    between atoms: C_10  and  C_11
REMARK   11  A    between atoms: C_11  and  C_12
REMARK   12  A    between atoms: C_21  and  C_23
REMARK   13  A    between atoms: C_23  and  C_24
REMARK                            x       y       z     vdW  Elec       q    Type
REMARK                         _______ _______ _______ _____ _____    ______ ____
ROOT
ATOM      1  C   UNL     1       8.758   9.221  18.353  0.00  0.00    +0.000 C 
ENDROOT
BRANCH   1   2
ATOM      2  C   UNL     1       7.701   8.345  17.680  0.00  0.00    +0.000 C 
BRANCH   2   3
ATOM      3  C   UNL     1       7.779   6.873  18.091  0.00  0.00    +0.000 C 
BRANCH   3   4
ATOM      4  C   UNL     1       6.519   6.081  17.687  0.00  0.00    +0.000 C 
BRANCH   4   5
ATOM      5  C   UNL     1       5.830   5.446  18.894  0.00  0.00    +0.000 C 
ATOM      6  O   UNL     1       6.474   4.956  19.825  0.00  0.00    +0.000 OA
BRANCH   5   8
ATOM      7  C   UNL     1       3.671   4.202  18.601  0.00  0.00    +0.000 C 
ATOM      8  C   UNL     1       4.314   5.533  18.958  0.00  0.00    +0.000 C 
ENDBRANCH   5   8
ENDBRANCH   4   5
BRANCH   4   9
ATOM      9  C   UNL     1       6.839   5.093  16.573  0.00  0.00    +0.000 C 
ATOM     10  O   UNL     1       7.914   4.492  16.529  0.00  0.00    +0.000 OA
BRANCH   9  11
ATOM     11  C   UNL     1       5.754   4.849  15.536  0.00  0.00    +0.000 C 
ATOM     12  C   UNL     1       6.286   4.166  14.288  0.00  0.00    +0.000 C 
ENDBRANCH   9  11
ENDBRANCH   4   9
ENDBRANCH   3   4
ENDBRANCH   2   3
ENDBRANCH   1   2
BRANCH   1  13
ATOM     13  C   UNL     1       8.580  10.700  17.976  0.00  0.00    +0.000 C 
BRANCH  13  14
ATOM     14  C   UNL     1       9.869  11.531  18.026  0.00  0.00    +0.000 C 
BRANCH  14  15
ATOM     15  C   UNL     1      10.654  11.309  19.322  0.00  0.00    +0.000 C 
BRANCH  15  16
ATOM     16  C   UNL     1      10.020  11.982  20.513  0.00  0.00    +0.000 A 
ATOM     17  C   UNL     1      10.244  13.357  20.762  0.00  0.00    +0.000 A 
ATOM     18  C   UNL     1       9.650  13.992  21.857  0.00  0.00    +0.000 A 
ATOM     19  C   UNL     1       8.846  13.233  22.675  0.00  0.00    +0.000 A 
ATOM     20  C   UNL     1       8.619  11.898  22.437  0.00  0.00    +0.000 A 
ATOM     21  C   UNL     1       9.185  11.246  21.364  0.00  0.00    +0.000 A 
ATOM     22  O   UNL     1       7.794  11.333  23.359  0.00  0.00    +0.000 OA
ATOM     23  C   UNL     1       7.580  12.452  24.244  0.00  0.00    +0.000 C 
ATOM     24  O   UNL     1       8.196  13.674  23.787  0.00  0.00    +0.000 OA
ENDBRANCH  15  16
ENDBRANCH  14  15
ENDBRANCH  13  14
ENDBRANCH   1  13
TORSDOF 11
ENDMDL
MODEL 7
REMARK VINA RESULT:      -6.7      1.668      3.691
REMARK  Name = 
REMARK  13 active torsions:
REMARK  status: ('A' for Active; 'I' for Inactive)
REMARK    1  A    between atoms: C_1  and  C_2
REMARK    2  A    between atoms: C_2  and  C_3
REMARK    3  A    between atoms: C_3  and  C_5
REMARK    4  A    between atoms: C_5  and  C_6
REMARK    5  A    between atoms: C_5  and  C_21
REMARK    6  A    between atoms: C_6  and  C_7
REMARK    7  A    between atoms: C_7  and  C_8
REMARK    8  A    between atoms: C_8  and  C_9
REMARK    9  A    between atoms: C_9  and  C_10
REMARK   10  A    between atoms: C_10  and  C_11
REMARK   11  A    between atoms: C_11  and  C_12
REMARK   12  A    between atoms: C_21  and  C_23
REMARK   13  A    between atoms: C_23  and  C_24
REMARK                            x       y       z     vdW  Elec       q    Type
REMARK                         _______ _______ _______ _____ _____    ______ ____
ROOT
ATOM      1  C   UNL     1       3.740   6.220  17.430  0.00  0.00    +0.000 C 
ENDROOT
BRANCH   1   2
ATOM      2  C   UNL     1       4.194   4.779  17.656  0.00  0.00    +0.000 C 
BRANCH   2   3
ATOM      3  C   UNL     1       5.001   4.203  16.490  0.00  0.00    +0.000 C 
BRANCH   3   4
ATOM      4  C   UNL     1       6.151   5.133  16.053  0.00  0.00    +0.000 C 
BRANCH   4   5
ATOM      5  C   UNL     1       6.588   4.867  14.613  0.00  0.00    +0.000 C 
ATOM      6  O   UNL     1       7.649   5.309  14.166  0.00  0.00    +0.000 OA
BRANCH   5   8
ATOM      7  C   UNL     1       6.388   3.598  12.459  0.00  0.00    +0.000 C 
ATOM      8  C   UNL     1       5.716   3.945  13.779  0.00  0.00    +0.000 C 
ENDBRANCH   5   8
ENDBRANCH   4   5
BRANCH   4   9
ATOM      9  C   UNL     1       7.293   5.085  17.060  0.00  0.00    +0.000 C 
ATOM     10  O   UNL     1       8.102   4.157  17.078  0.00  0.00    +0.000 OA
BRANCH   9  11
ATOM     11  C   UNL     1       7.413   6.259  18.020  0.00  0.00    +0.000 C 
ATOM     12  C   UNL     1       7.617   5.815  19.458  0.00  0.00    +0.000 C 
ENDBRANCH   9  11
ENDBRANCH   4   9
ENDBRANCH   3   4
ENDBRANCH   2   3
ENDBRANCH   1   2
BRANCH   1  13
ATOM     13  C   UNL     1       2.356   6.474  18.046  0.00  0.00    +0.000 C 
BRANCH  13  14
ATOM     14  C   UNL     1       2.232   7.795  18.816  0.00  0.00    +0.000 C 
BRANCH  14  15
ATOM     15  C   UNL     1       2.346   9.015  17.898  0.00  0.00    +0.000 C 
BRANCH  15  16
ATOM     16  C   UNL     1       1.426  10.140  18.299  0.00  0.00    +0.000 A 
ATOM     17  C   UNL     1       0.097   9.868  18.700  0.00  0.00    +0.000 A 
ATOM     18  C   UNL     1      -0.760  10.904  19.086  0.00  0.00    +0.000 A 
ATOM     19  C   UNL     1      -0.262  12.185  19.062  0.00  0.00    +0.000 A 
ATOM     20  C   UNL     1       1.030  12.457  18.679  0.00  0.00    +0.000 A 
ATOM     21  C   UNL     1       1.899  11.458  18.299  0.00  0.00    +0.000 A 
ATOM     22  O   UNL     1       1.325  13.784  18.729  0.00  0.00    +0.000 OA
ATOM     23  C   UNL     1       0.048  14.324  19.123  0.00  0.00    +0.000 C 
ATOM     24  O   UNL     1      -0.947  13.315  19.392  0.00  0.00    +0.000 OA
ENDBRANCH  15  16
ENDBRANCH  14  15
ENDBRANCH  13  14
ENDBRANCH   1  13
TORSDOF 11
ENDMDL
MODEL 8
REMARK VINA RESULT:      -6.6      4.657      7.675
REMARK  Name = 
REMARK  13 active torsions:
REMARK  status: ('A' for Active; 'I' for Inactive)
REMARK    1  A    between atoms: C_1  and  C_2
REMARK    2  A    between atoms: C_2  and  C_3
REMARK    3  A    between atoms: C_3  and  C_5
REMARK    4  A    between atoms: C_5  and  C_6
REMARK    5  A    between atoms: C_5  and  C_21
REMARK    6  A    between atoms: C_6  and  C_7
REMARK    7  A    between atoms: C_7  and  C_8
REMARK    8  A    between atoms: C_8  and  C_9
REMARK    9  A    between atoms: C_9  and  C_10
REMARK   10  A    between atoms: C_10  and  C_11
REMARK   11  A    between atoms: C_11  and  C_12
REMARK   12  A    between atoms: C_21  and  C_23
REMARK   13  A    between atoms: C_23  and  C_24
REMARK                            x       y       z     vdW  Elec       q    Type
REMARK                         _______ _______ _______ _____ _____    ______ ____
ROOT
ATOM      1  C   UNL     1       7.293   6.450  18.257  0.00  0.00    +0.000 C 
ENDROOT
BRANCH   1   2
ATOM      2  C   UNL     1       5.898   5.903  17.956  0.00  0.00    +0.000 C 
BRANCH   2   3
ATOM      3  C   UNL     1       5.252   5.193  19.148  0.00  0.00    +0.000 C 
BRANCH   3   4
ATOM      4  C   UNL     1       4.056   4.312  18.733  0.00  0.00    +0.000 C 
BRANCH   4   5
ATOM      5  C   UNL     1       2.767   5.120  18.601  0.00  0.00    +0.000 C 
ATOM      6  O   UNL     1       1.836   4.743  17.886  0.00  0.00    +0.000 OA
BRANCH   5   8
ATOM      7  C   UNL     1       1.662   6.119  20.620  0.00  0.00    +0.000 C 
ATOM      8  C   UNL     1       2.628   6.359  19.470  0.00  0.00    +0.000 C 
ENDBRANCH   5   8
ENDBRANCH   4   5
BRANCH   4   9
ATOM      9  C   UNL     1       3.934   3.104  19.654  0.00  0.00    +0.000 C 
ATOM     10  O   UNL     1       4.926   2.534  20.109  0.00  0.00    +0.000 OA
BRANCH   9  11
ATOM     11  C   UNL     1       2.526   2.659  20.020  0.00  0.00    +0.000 C 
ATOM     12  C   UNL     1       2.298   2.638  21.522  0.00  0.00    +0.000 C 
ENDBRANCH   9  11
ENDBRANCH   4   9
ENDBRANCH   3   4
ENDBRANCH   2   3
ENDBRANCH   1   2
BRANCH   1  13
ATOM     13  C   UNL     1       7.714   7.507  17.224  0.00  0.00    +0.000 C 
BRANCH  13  14
ATOM     14  C   UNL     1       7.835   8.931  17.780  0.00  0.00    +0.000 C 
BRANCH  14  15
ATOM     15  C   UNL     1       8.858   9.028  18.915  0.00  0.00    +0.000 C 
BRANCH  15  16
ATOM     16  C   UNL     1       9.350  10.434  19.143  0.00  0.00    +0.000 A 
ATOM     17  C   UNL     1       9.505  10.934  20.457  0.00  0.00    +0.000 A 
ATOM     18  C   UNL     1       9.973  12.234  20.678  0.00  0.00    +0.000 A 
ATOM     19  C   UNL     1      10.274  12.998  19.576  0.00  0.00    +0.000 A 
ATOM     20  C   UNL     1      10.132  12.518  18.295  0.00  0.00    +0.000 A 
ATOM     21  C   UNL     1       9.679  11.241  18.046  0.00  0.00    +0.000 A 
ATOM     22  O   UNL     1      10.487  13.429  17.349  0.00  0.00    +0.000 OA
ATOM     23  C   UNL     1      10.806  14.563  18.181  0.00  0.00    +0.000 C 
ATOM     24  O   UNL     1      10.730  14.281  19.594  0.00  0.00    +0.000 OA
ENDBRANCH  15  16
ENDBRANCH  14  15
ENDBRANCH  13  14
ENDBRANCH   1  13
TORSDOF 11
ENDMDL
MODEL 9
REMARK VINA RESULT:      -6.6      1.350      2.084
REMARK  Name = 
REMARK  13 active torsions:
REMARK  status: ('A' for Active; 'I' for Inactive)
REMARK    1  A    between atoms: C_1  and  C_2
REMARK    2  A    between atoms: C_2  and  C_3
REMARK    3  A    between atoms: C_3  and  C_5
REMARK    4  A    between atoms: C_5  and  C_6
REMARK    5  A    between atoms: C_5  and  C_21
REMARK    6  A    between atoms: C_6  and  C_7
REMARK    7  A    between atoms: C_7  and  C_8
REMARK    8  A    between atoms: C_8  and  C_9
REMARK    9  A    between atoms: C_9  and  C_10
REMARK   10  A    between atoms: C_10  and  C_11
REMARK   11  A    between atoms: C_11  and  C_12
REMARK   12  A    between atoms: C_21  and  C_23
REMARK   13  A    between atoms: C_23  and  C_24
REMARK                            x       y       z     vdW  Elec       q    Type
REMARK                         _______ _______ _______ _____ _____    ______ ____
ROOT
ATOM      1  C   UNL     1       2.828   3.968  17.426  0.00  0.00    +0.000 C 
ENDROOT
BRANCH   1   2
ATOM      2  C   UNL     1       4.086   4.755  17.058  0.00  0.00    +0.000 C 
BRANCH   2   3
ATOM      3  C   UNL     1       5.141   3.914  16.336  0.00  0.00    +0.000 C 
BRANCH   3   4
ATOM      4  C   UNL     1       6.436   4.705  16.057  0.00  0.00    +0.000 C 
BRANCH   4   5
ATOM      5  C   UNL     1       6.400   6.100  16.678  0.00  0.00    +0.000 C 
ATOM      6  O   UNL     1       5.809   7.036  16.135  0.00  0.00    +0.000 OA
BRANCH   5   8
ATOM      7  C   UNL     1       7.841   5.041  18.437  0.00  0.00    +0.000 C 
ATOM      8  C   UNL     1       7.034   6.270  18.048  0.00  0.00    +0.000 C 
ENDBRANCH   5   8
ENDBRANCH   4   5
BRANCH   4   9
ATOM      9  C   UNL     1       6.756   4.703  14.567  0.00  0.00    +0.000 C 
ATOM     10  O   UNL     1       7.723   5.314  14.113  0.00  0.00    +0.000 OA
BRANCH   9  11
ATOM     11  C   UNL     1       5.848   3.875  13.670  0.00  0.00    +0.000 C 
ATOM     12  C   UNL     1       6.494   3.552  12.333  0.00  0.00    +0.000 C 
ENDBRANCH   9  11
ENDBRANCH   4   9
ENDBRANCH   3   4
ENDBRANCH   2   3
ENDBRANCH   1   2
BRANCH   1  13
ATOM     13  C   UNL     1       2.836   3.563  18.908  0.00  0.00    +0.000 C 
BRANCH  13  14
ATOM     14  C   UNL     1       3.293   4.668  19.869  0.00  0.00    +0.000 C 
BRANCH  14  15
ATOM     15  C   UNL     1       2.128   5.267  20.662  0.00  0.00    +0.000 C 
BRANCH  15  16
ATOM     16  C   UNL     1       1.835   6.696  20.282  0.00  0.00    +0.000 A 
ATOM     17  C   UNL     1       1.115   7.538  21.162  0.00  0.00    +0.000 A 
ATOM     18  C   UNL     1       0.850   8.869  20.823  0.00  0.00    +0.000 A 
ATOM     19  C   UNL     1       1.313   9.321  19.610  0.00  0.00    +0.000 A 
ATOM     20  C   UNL     1       2.018   8.511  18.751  0.00  0.00    +0.000 A 
ATOM     21  C   UNL     1       2.300   7.199  19.059  0.00  0.00    +0.000 A 
ATOM     22  O   UNL     1       2.388   9.152  17.609  0.00  0.00    +0.000 OA
ATOM     23  C   UNL     1       1.776  10.441  17.819  0.00  0.00    +0.000 C 
ATOM     24  O   UNL     1       1.144  10.576  19.108  0.00  0.00    +0.000 OA
ENDBRANCH  15  16
ENDBRANCH  14  15
ENDBRANCH  13  14
ENDBRANCH   1  13
TORSDOF 11
ENDMDL
