MODEL 1
REMARK VINA RESULT:      -7.4      0.000      0.000
REMARK  Name = 
REMARK  5 active torsions:
REMARK  status: ('A' for Active; 'I' for Inactive)
REMARK    1  A    between atoms: C_2  and  C_3
REMARK    2  A    between atoms: C_2  and  C_14
REMARK    3  A    between atoms: C_3  and  S_4
REMARK    4  A    between atoms: S_4  and  C_5
REMARK    5  A    between atoms: C_5  and  C_6
REMARK                            x       y       z     vdW  Elec       q    Type
REMARK                         _______ _______ _______ _____ _____    ______ ____
ROOT
ATOM      1  S   UNL     1       4.418   2.885  18.397  0.00  0.00    +0.000 S 
ENDROOT
BRANCH   1   2
ATOM      2  C   UNL     1       2.940   2.128  17.638  0.00  0.00    +0.000 C 
BRANCH   2   4
ATOM      3  O   UNL     1       0.611   2.043  18.350  0.00  0.00    +0.000 OA
ATOM      4  C   UNL     1       1.666   2.675  18.278  0.00  0.00    +0.000 C 
BRANCH   4   5
ATOM      5  C   UNL     1       1.668   4.021  18.924  0.00  0.00    +0.000 A 
ATOM      6  C   UNL     1       1.918   5.106  18.058  0.00  0.00    +0.000 A 
ATOM      7  C   UNL     1       2.019   6.411  18.543  0.00  0.00    +0.000 A 
ATOM      8  C   UNL     1       1.870   6.647  19.905  0.00  0.00    +0.000 A 
ATOM      9 CL   UNL     1       2.015   8.247  20.518  0.00  0.00    +0.000 Cl
ATOM     10  C   UNL     1       1.622   5.591  20.777  0.00  0.00    +0.000 A 
ATOM     11  C   UNL     1       1.527   4.276  20.294  0.00  0.00    +0.000 A 
ATOM     12 CL   UNL     1       1.320   3.055  21.494  0.00  0.00    +0.000 Cl
ENDBRANCH   4   5
ENDBRANCH   2   4
ENDBRANCH   1   2
BRANCH   1  13
ATOM     13  C   UNL     1       5.016   3.888  17.000  0.00  0.00    +0.000 C 
BRANCH  13  14
ATOM     14  C   UNL     1       6.038   4.868  17.526  0.00  0.00    +0.000 A 
ATOM     15  C   UNL     1       6.394   5.976  16.859  0.00  0.00    +0.000 A 
ATOM     16  C   UNL     1       7.342   6.920  17.479  0.00  0.00    +0.000 A 
ATOM     17  O   UNL     1       7.672   7.947  16.898  0.00  0.00    +0.000 OA
ATOM     18  N   UNL     1       7.810   6.578  18.715  0.00  0.00    +0.000 N 
ATOM     19  C   UNL     1       7.468   5.451  19.400  0.00  0.00    +0.000 A 
ATOM     20  O   UNL     1       7.907   5.201  20.518  0.00  0.00    +0.000 OA
ATOM     21  N   UNL     1       6.597   4.615  18.761  0.00  0.00    +0.000 N 
ATOM     22  H   UNL     1       8.439   7.220  19.172  0.00  0.00    +0.000 HD
ATOM     23  H   UNL     1       6.286   3.810  19.298  0.00  0.00    +0.000 HD
ENDBRANCH  13  14
ENDBRANCH   1  13
TORSDOF 5
ENDMDL
MODEL 2
REMARK VINA RESULT:      -7.4      1.833      2.885
REMARK  Name = 
REMARK  5 active torsions:
REMARK  status: ('A' for Active; 'I' for Inactive)
REMARK    1  A    between atoms: C_2  and  C_3
REMARK    2  A    between atoms: C_2  and  C_14
REMARK    3  A    between atoms: C_3  and  S_4
REMARK    4  A    between atoms: S_4  and  C_5
REMARK    5  A    between atoms: C_5  and  C_6
REMARK                            x       y       z     vdW  Elec       q    Type
REMARK                         _______ _______ _______ _____ _____    ______ ____
ROOT
ATOM      1  S   UNL     1       5.004   4.262  15.546  0.00  0.00    +0.000 S 
ENDROOT
BRANCH   1   2
ATOM      2  C   UNL     1       4.536   3.845  17.261  0.00  0.00    +0.000 C 
BRANCH   2   4
ATOM      3  O   UNL     1       2.131   3.574  16.980  0.00  0.00    +0.000 OA
ATOM      4  C   UNL     1       3.066   4.173  17.512  0.00  0.00    +0.000 C 
BRANCH   4   5
ATOM      5  C   UNL     1       2.691   5.229  18.499  0.00  0.00    +0.000 A 
ATOM      6  C   UNL     1       1.941   4.780  19.606  0.00  0.00    +0.000 A 
ATOM      7  C   UNL     1       1.463   5.674  20.566  0.00  0.00    +0.000 A 
ATOM      8  C   UNL     1       1.730   7.031  20.430  0.00  0.00    +0.000 A 
ATOM      9 CL   UNL     1       1.128   8.145  21.592  0.00  0.00    +0.000 Cl
ATOM     10  C   UNL     1       2.470   7.495  19.345  0.00  0.00    +0.000 A 
ATOM     11  C   UNL     1       2.946   6.600  18.374  0.00  0.00    +0.000 A 
ATOM     12 CL   UNL     1       3.757   7.319  17.033  0.00  0.00    +0.000 Cl
ENDBRANCH   4   5
ENDBRANCH   2   4
ENDBRANCH   1   2
BRANCH   1  13
ATOM     13  C   UNL     1       6.819   4.230  15.694  0.00  0.00    +0.000 C 
BRANCH  13  14
ATOM     14  C   UNL     1       7.214   5.115  16.852  0.00  0.00    +0.000 A 
ATOM     15  C   UNL     1       7.546   4.632  18.058  0.00  0.00    +0.000 A 
ATOM     16  C   UNL     1       7.993   5.561  19.112  0.00  0.00    +0.000 A 
ATOM     17  O   UNL     1       8.317   5.143  20.217  0.00  0.00    +0.000 OA
ATOM     18  N   UNL     1       8.026   6.883  18.774  0.00  0.00    +0.000 N 
ATOM     19  C   UNL     1       7.681   7.391  17.558  0.00  0.00    +0.000 A 
ATOM     20  O   UNL     1       7.745   8.590  17.304  0.00  0.00    +0.000 OA
ATOM     21  N   UNL     1       7.262   6.476  16.634  0.00  0.00    +0.000 N 
ATOM     22  H   UNL     1       8.355   7.535  19.468  0.00  0.00    +0.000 HD
ATOM     23  H   UNL     1       7.072   6.844  15.706  0.00  0.00    +0.000 HD
ENDBRANCH  13  14
ENDBRANCH   1  13
TORSDOF 5
ENDMDL
MODEL 3
REMARK VINA RESULT:      -7.2      3.539      5.059
REMARK  Name = 
REMARK  5 active torsions:
REMARK  status: ('A' for Active; 'I' for Inactive)
REMARK    1  A    between atoms: C_2  and  C_3
REMARK    2  A    between atoms: C_2  and  C_14
REMARK    3  A    between atoms: C_3  and  S_4
REMARK    4  A    between atoms: S_4  and  C_5
REMARK    5  A    between atoms: C_5  and  C_6
REMARK                            x       y       z     vdW  Elec       q    Type
REMARK                         _______ _______ _______ _____ _____    ______ ____
ROOT
ATOM      1  S   UNL     1       5.292   5.915  16.406  0.00  0.00    +0.000 S 
ENDROOT
BRANCH   1   2
ATOM      2  C   UNL     1       5.837   6.470  18.058  0.00  0.00    +0.000 C 
BRANCH   2   4
ATOM      3  O   UNL     1       6.403   5.080  19.977  0.00  0.00    +0.000 OA
ATOM      4  C   UNL     1       5.592   5.381  19.099  0.00  0.00    +0.000 C 
BRANCH   4   5
ATOM      5  C   UNL     1       4.287   4.658  19.138  0.00  0.00    +0.000 A 
ATOM      6  C   UNL     1       4.369   3.257  18.998  0.00  0.00    +0.000 A 
ATOM      7  C   UNL     1       3.220   2.466  18.944  0.00  0.00    +0.000 A 
ATOM      8  C   UNL     1       1.971   3.070  19.030  0.00  0.00    +0.000 A 
ATOM      9 CL   UNL     1       0.547   2.110  18.942  0.00  0.00    +0.000 Cl
ATOM     10  C   UNL     1       1.867   4.451  19.170  0.00  0.00    +0.000 A 
ATOM     11  C   UNL     1       3.020   5.250  19.217  0.00  0.00    +0.000 A 
ATOM     12 CL   UNL     1       2.745   6.951  19.289  0.00  0.00    +0.000 Cl
ENDBRANCH   4   5
ENDBRANCH   2   4
ENDBRANCH   1   2
BRANCH   1  13
ATOM     13  C   UNL     1       6.449   4.534  16.135  0.00  0.00    +0.000 C 
BRANCH  13  14
ATOM     14  C   UNL     1       6.746   4.451  14.657  0.00  0.00    +0.000 A 
ATOM     15  C   UNL     1       6.139   3.576  13.841  0.00  0.00    +0.000 A 
ATOM     16  C   UNL     1       6.432   3.612  12.396  0.00  0.00    +0.000 A 
ATOM     17  O   UNL     1       5.879   2.834  11.627  0.00  0.00    +0.000 OA
ATOM     18  N   UNL     1       7.333   4.552  11.988  0.00  0.00    +0.000 N 
ATOM     19  C   UNL     1       7.967   5.438  12.805  0.00  0.00    +0.000 A 
ATOM     20  O   UNL     1       8.758   6.275  12.381  0.00  0.00    +0.000 OA
ATOM     21  N   UNL     1       7.661   5.340  14.133  0.00  0.00    +0.000 N 
ATOM     22  H   UNL     1       7.530   4.615  11.001  0.00  0.00    +0.000 HD
ATOM     23  H   UNL     1       8.078   6.045  14.734  0.00  0.00    +0.000 HD
ENDBRANCH  13  14
ENDBRANCH   1  13
TORSDOF 5
ENDMDL
MODEL 4
REMARK VINA RESULT:      -7.2      3.604      6.557
REMARK  Name = 
REMARK  5 active torsions:
REMARK  status: ('A' for Active; 'I' for Inactive)
REMARK    1  A    between atoms: C_2  and  C_3
REMARK    2  A    between atoms: C_2  and  C_14
REMARK    3  A    between atoms: C_3  and  S_4
REMARK    4  A    between atoms: S_4  and  C_5
REMARK    5  A    between atoms: C_5  and  C_6
REMARK                            x       y       z     vdW  Elec       q    Type
REMARK                         _______ _______ _______ _____ _____    ______ ____
ROOT
ATOM      1  S   UNL     1       3.385   6.691  18.310  0.00  0.00    +0.000 S 
ENDROOT
BRANCH   1   2
ATOM      2  C   UNL     1       4.895   6.071  19.128  0.00  0.00    +0.000 C 
BRANCH   2   4
ATOM      3  O   UNL     1       5.372   3.683  19.072  0.00  0.00    +0.000 OA
ATOM      4  C   UNL     1       5.358   4.766  18.486  0.00  0.00    +0.000 C 
BRANCH   4   5
ATOM      5  C   UNL     1       5.765   4.738  17.049  0.00  0.00    +0.000 A 
ATOM      6  C   UNL     1       5.164   3.726  16.272  0.00  0.00    +0.000 A 
ATOM      7  C   UNL     1       5.509   3.542  14.932  0.00  0.00    +0.000 A 
ATOM      8  C   UNL     1       6.462   4.371  14.352  0.00  0.00    +0.000 A 
ATOM      9 CL   UNL     1       6.914   4.140  12.709  0.00  0.00    +0.000 Cl
ATOM     10  C   UNL     1       7.067   5.376  15.101  0.00  0.00    +0.000 A 
ATOM     11  C   UNL     1       6.727   5.560  16.451  0.00  0.00    +0.000 A 
ATOM     12 CL   UNL     1       7.624   6.773  17.286  0.00  0.00    +0.000 Cl
ENDBRANCH   4   5
ENDBRANCH   2   4
ENDBRANCH   1   2
BRANCH   1  13
ATOM     13  C   UNL     1       2.166   6.410  19.633  0.00  0.00    +0.000 C 
BRANCH  13  14
ATOM     14  C   UNL     1       2.028   4.920  19.838  0.00  0.00    +0.000 A 
ATOM     15  C   UNL     1       1.853   4.364  21.047  0.00  0.00    +0.000 A 
ATOM     16  C   UNL     1       1.650   2.908  21.151  0.00  0.00    +0.000 A 
ATOM     17  O   UNL     1       1.473   2.377  22.241  0.00  0.00    +0.000 OA
ATOM     18  N   UNL     1       1.668   2.213  19.976  0.00  0.00    +0.000 N 
ATOM     19  C   UNL     1       1.856   2.759  18.743  0.00  0.00    +0.000 A 
ATOM     20  O   UNL     1       1.846   2.087  17.716  0.00  0.00    +0.000 OA
ATOM     21  N   UNL     1       2.053   4.111  18.721  0.00  0.00    +0.000 N 
ATOM     22  H   UNL     1       1.504   1.219  20.018  0.00  0.00    +0.000 HD
ATOM     23  H   UNL     1       2.123   4.531  17.798  0.00  0.00    +0.000 HD
ENDBRANCH  13  14
ENDBRANCH   1  13
TORSDOF 5
ENDMDL
MODEL 5
REMARK VINA RESULT:      -7.1      3.715      5.119
REMARK  Name = 
REMARK  5 active torsions:
REMARK  status: ('A' for Active; 'I' for Inactive)
REMARK    1  A    between atoms: C_2  and  C_3
REMARK    2  A    between atoms: C_2  and  C_14
REMARK    3  A    between atoms: C_3  and  S_4
REMARK    4  A    between atoms: S_4  and  C_5
REMARK    5  A    between atoms: C_5  and  C_6
REMARK                            x       y       z     vdW  Elec       q    Type
REMARK                         _______ _______ _______ _____ _____    ______ ____
ROOT
ATOM      1  S   UNL     1       7.369   4.786  16.910  0.00  0.00    +0.000 S 
ENDROOT
BRANCH   1   2
ATOM      2  C   UNL     1       6.293   5.926  17.847  0.00  0.00    +0.000 C 
BRANCH   2   4
ATOM      3  O   UNL     1       6.339   5.202  20.173  0.00  0.00    +0.000 OA
ATOM      4  C   UNL     1       5.743   5.242  19.095  0.00  0.00    +0.000 C 
BRANCH   4   5
ATOM      5  C   UNL     1       4.381   4.629  19.078  0.00  0.00    +0.000 A 
ATOM      6  C   UNL     1       4.343   3.239  19.318  0.00  0.00    +0.000 A 
ATOM      7  C   UNL     1       3.142   2.528  19.259  0.00  0.00    +0.000 A 
ATOM      8  C   UNL     1       1.964   3.201  18.959  0.00  0.00    +0.000 A 
ATOM      9 CL   UNL     1       0.483   2.333  18.860  0.00  0.00    +0.000 Cl
ATOM     10  C   UNL     1       1.980   4.572  18.719  0.00  0.00    +0.000 A 
ATOM     11  C   UNL     1       3.186   5.289  18.771  0.00  0.00    +0.000 A 
ATOM     12 CL   UNL     1       3.077   6.959  18.354  0.00  0.00    +0.000 Cl
ENDBRANCH   4   5
ENDBRANCH   2   4
ENDBRANCH   1   2
BRANCH   1  13
ATOM     13  C   UNL     1       6.122   3.936  15.891  0.00  0.00    +0.000 C 
BRANCH  13  14
ATOM     14  C   UNL     1       6.491   4.125  14.439  0.00  0.00    +0.000 A 
ATOM     15  C   UNL     1       7.262   5.135  14.009  0.00  0.00    +0.000 A 
ATOM     16  C   UNL     1       7.637   5.203  12.585  0.00  0.00    +0.000 A 
ATOM     17  O   UNL     1       8.353   6.107  12.170  0.00  0.00    +0.000 OA
ATOM     18  N   UNL     1       7.147   4.211  11.786  0.00  0.00    +0.000 N 
ATOM     19  C   UNL     1       6.353   3.187  12.203  0.00  0.00    +0.000 A 
ATOM     20  O   UNL     1       5.954   2.311  11.442  0.00  0.00    +0.000 OA
ATOM     21  N   UNL     1       6.033   3.193  13.531  0.00  0.00    +0.000 N 
ATOM     22  H   UNL     1       7.412   4.220  10.813  0.00  0.00    +0.000 HD
ATOM     23  H   UNL     1       5.500   2.392  13.859  0.00  0.00    +0.000 HD
ENDBRANCH  13  14
ENDBRANCH   1  13
TORSDOF 5
ENDMDL
MODEL 6
REMARK VINA RESULT:      -7.1      1.725      1.867
REMARK  Name = 
REMARK  5 active torsions:
REMARK  status: ('A' for Active; 'I' for Inactive)
REMARK    1  A    between atoms: C_2  and  C_3
REMARK    2  A    between atoms: C_2  and  C_14
REMARK    3  A    between atoms: C_3  and  S_4
REMARK    4  A    between atoms: S_4  and  C_5
REMARK    5  A    between atoms: C_5  and  C_6
REMARK                            x       y       z     vdW  Elec       q    Type
REMARK                         _______ _______ _______ _____ _____    ______ ____
ROOT
ATOM      1  S   UNL     1       5.641   4.074  16.205  0.00  0.00    +0.000 S 
ENDROOT
BRANCH   1   2
ATOM      2  C   UNL     1       3.945   3.865  16.847  0.00  0.00    +0.000 C 
BRANCH   2   4
ATOM      3  O   UNL     1       4.553   3.361  19.152  0.00  0.00    +0.000 OA
ATOM      4  C   UNL     1       3.915   4.058  18.361  0.00  0.00    +0.000 C 
BRANCH   4   5
ATOM      5  C   UNL     1       3.135   5.181  18.961  0.00  0.00    +0.000 A 
ATOM      6  C   UNL     1       3.254   6.420  18.296  0.00  0.00    +0.000 A 
ATOM      7  C   UNL     1       2.635   7.569  18.793  0.00  0.00    +0.000 A 
ATOM      8  C   UNL     1       1.889   7.492  19.962  0.00  0.00    +0.000 A 
ATOM      9 CL   UNL     1       1.141   8.905  20.597  0.00  0.00    +0.000 Cl
ATOM     10  C   UNL     1       1.759   6.279  20.633  0.00  0.00    +0.000 A 
ATOM     11  C   UNL     1       2.385   5.123  20.142  0.00  0.00    +0.000 A 
ATOM     12 CL   UNL     1       2.226   3.715  21.124  0.00  0.00    +0.000 Cl
ENDBRANCH   4   5
ENDBRANCH   2   4
ENDBRANCH   1   2
BRANCH   1  13
ATOM     13  C   UNL     1       5.703   5.888  16.051  0.00  0.00    +0.000 C 
BRANCH  13  14
ATOM     14  C   UNL     1       6.696   6.413  17.061  0.00  0.00    +0.000 A 
ATOM     15  C   UNL     1       7.141   7.679  17.053  0.00  0.00    +0.000 A 
ATOM     16  C   UNL     1       8.052   8.132  18.121  0.00  0.00    +0.000 A 
ATOM     17  O   UNL     1       8.460   9.286  18.146  0.00  0.00    +0.000 OA
ATOM     18  N   UNL     1       8.392   7.198  19.056  0.00  0.00    +0.000 N 
ATOM     19  C   UNL     1       7.960   5.907  19.072  0.00  0.00    +0.000 A 
ATOM     20  O   UNL     1       8.286   5.113  19.949  0.00  0.00    +0.000 OA
ATOM     21  N   UNL     1       7.131   5.551  18.045  0.00  0.00    +0.000 N 
ATOM     22  H   UNL     1       8.992   7.490  19.812  0.00  0.00    +0.000 HD
ATOM     23  H   UNL     1       6.750   4.610  18.093  0.00  0.00    +0.000 HD
ENDBRANCH  13  14
ENDBRANCH   1  13
TORSDOF 5
ENDMDL
MODEL 7
REMARK VINA RESULT:      -7.1      2.313      3.355
REMARK  Name = 
REMARK  5 active torsions:
REMARK  status: ('A' for Active; 'I' for Inactive)
REMARK    1  A    between atoms: C_2  and  C_3
REMARK    2  A    between atoms: C_2  and  C_14
REMARK    3  A    between atoms: C_3  and  S_4
REMARK    4  A    between atoms: S_4  and  C_5
REMARK    5  A    between atoms: C_5  and  C_6
REMARK                            x       y       z     vdW  Elec       q    Type
REMARK                         _______ _______ _______ _____ _____    ______ ____
ROOT
ATOM      1  S   UNL     1       5.324   4.875  15.089  0.00  0.00    +0.000 S 
ENDROOT
BRANCH   1   2
ATOM      2  C   UNL     1       4.446   3.888  16.350  0.00  0.00    +0.000 C 
BRANCH   2   4
ATOM      3  O   UNL     1       3.794   6.028  17.315  0.00  0.00    +0.000 OA
ATOM      4  C   UNL     1       3.797   4.798  17.390  0.00  0.00    +0.000 C 
BRANCH   4   5
ATOM      5  C   UNL     1       3.056   4.211  18.545  0.00  0.00    +0.000 A 
ATOM      6  C   UNL     1       3.044   4.997  19.717  0.00  0.00    +0.000 A 
ATOM      7  C   UNL     1       2.449   4.534  20.892  0.00  0.00    +0.000 A 
ATOM      8  C   UNL     1       1.858   3.277  20.909  0.00  0.00    +0.000 A 
ATOM      9 CL   UNL     1       1.142   2.686  22.357  0.00  0.00    +0.000 Cl
ATOM     10  C   UNL     1       1.858   2.485  19.764  0.00  0.00    +0.000 A 
ATOM     11  C   UNL     1       2.461   2.944  18.583  0.00  0.00    +0.000 A 
ATOM     12 CL   UNL     1       2.480   1.823  17.272  0.00  0.00    +0.000 Cl
ENDBRANCH   4   5
ENDBRANCH   2   4
ENDBRANCH   1   2
BRANCH   1  13
ATOM     13  C   UNL     1       7.049   4.559  15.579  0.00  0.00    +0.000 C 
BRANCH  13  14
ATOM     14  C   UNL     1       7.350   5.387  16.806  0.00  0.00    +0.000 A 
ATOM     15  C   UNL     1       7.532   4.848  18.021  0.00  0.00    +0.000 A 
ATOM     16  C   UNL     1       7.899   5.720  19.151  0.00  0.00    +0.000 A 
ATOM     17  O   UNL     1       8.086   5.252  20.268  0.00  0.00    +0.000 OA
ATOM     18  N   UNL     1       8.018   7.051  18.870  0.00  0.00    +0.000 N 
ATOM     19  C   UNL     1       7.825   7.615  17.645  0.00  0.00    +0.000 A 
ATOM     20  O   UNL     1       7.961   8.818  17.446  0.00  0.00    +0.000 OA
ATOM     21  N   UNL     1       7.473   6.751  16.647  0.00  0.00    +0.000 N 
ATOM     22  H   UNL     1       8.294   7.665  19.620  0.00  0.00    +0.000 HD
ATOM     23  H   UNL     1       7.397   7.158  15.719  0.00  0.00    +0.000 HD
ENDBRANCH  13  14
ENDBRANCH   1  13
TORSDOF 5
ENDMDL
MODEL 8
REMARK VINA RESULT:      -7.1      1.925      3.356
REMARK  Name = 
REMARK  5 active torsions:
REMARK  status: ('A' for Active; 'I' for Inactive)
REMARK    1  A    between atoms: C_2  and  C_3
REMARK    2  A    between atoms: C_2  and  C_14
REMARK    3  A    between atoms: C_3  and  S_4
REMARK    4  A    between atoms: S_4  and  C_5
REMARK    5  A    between atoms: C_5  and  C_6
REMARK                            x       y       z     vdW  Elec       q    Type
REMARK                         _______ _______ _______ _____ _____    ______ ____
ROOT
ATOM      1  S   UNL     1       5.353   4.525  15.197  0.00  0.00    +0.000 S 
ENDROOT
BRANCH   1   2
ATOM      2  C   UNL     1       4.785   3.761  16.755  0.00  0.00    +0.000 C 
BRANCH   2   4
ATOM      3  O   UNL     1       3.793   5.931  17.249  0.00  0.00    +0.000 OA
ATOM      4  C   UNL     1       3.966   4.756  17.574  0.00  0.00    +0.000 C 
BRANCH   4   5
ATOM      5  C   UNL     1       3.261   4.309  18.813  0.00  0.00    +0.000 A 
ATOM      6  C   UNL     1       3.157   2.912  18.977  0.00  0.00    +0.000 A 
ATOM      7  C   UNL     1       2.460   2.361  20.054  0.00  0.00    +0.000 A 
ATOM      8  C   UNL     1       1.858   3.203  20.981  0.00  0.00    +0.000 A 
ATOM      9 CL   UNL     1       0.977   2.536  22.299  0.00  0.00    +0.000 Cl
ATOM     10  C   UNL     1       1.950   4.584  20.838  0.00  0.00    +0.000 A 
ATOM     11  C   UNL     1       2.644   5.143  19.753  0.00  0.00    +0.000 A 
ATOM     12 CL   UNL     1       2.593   6.863  19.642  0.00  0.00    +0.000 Cl
ENDBRANCH   4   5
ENDBRANCH   2   4
ENDBRANCH   1   2
BRANCH   1  13
ATOM     13  C   UNL     1       7.147   4.579  15.504  0.00  0.00    +0.000 C 
BRANCH  13  14
ATOM     14  C   UNL     1       7.389   5.404  16.745  0.00  0.00    +0.000 A 
ATOM     15  C   UNL     1       7.609   4.858  17.951  0.00  0.00    +0.000 A 
ATOM     16  C   UNL     1       7.913   5.734  19.097  0.00  0.00    +0.000 A 
ATOM     17  O   UNL     1       8.132   5.260  20.205  0.00  0.00    +0.000 OA
ATOM     18  N   UNL     1       7.936   7.074  18.840  0.00  0.00    +0.000 N 
ATOM     19  C   UNL     1       7.704   7.645  17.626  0.00  0.00    +0.000 A 
ATOM     20  O   UNL     1       7.755   8.858  17.448  0.00  0.00    +0.000 OA
ATOM     21  N   UNL     1       7.414   6.776  16.612  0.00  0.00    +0.000 N 
ATOM     22  H   UNL     1       8.169   7.693  19.602  0.00  0.00    +0.000 HD
ATOM     23  H   UNL     1       7.311   7.193  15.691  0.00  0.00    +0.000 HD
ENDBRANCH  13  14
ENDBRANCH   1  13
TORSDOF 5
ENDMDL
MODEL 9
REMARK VINA RESULT:      -7.0      3.371      4.845
REMARK  Name = 
REMARK  5 active torsions:
REMARK  status: ('A' for Active; 'I' for Inactive)
REMARK    1  A    between atoms: C_2  and  C_3
REMARK    2  A    between atoms: C_2  and  C_14
REMARK    3  A    between atoms: C_3  and  S_4
REMARK    4  A    between atoms: S_4  and  C_5
REMARK    5  A    between atoms: C_5  and  C_6
REMARK                            x       y       z     vdW  Elec       q    Type
REMARK                         _______ _______ _______ _____ _____    ______ ____
ROOT
ATOM      1  S   UNL     1       7.381   6.064  17.244  0.00  0.00    +0.000 S 
ENDROOT
BRANCH   1   2
ATOM      2  C   UNL     1       5.877   6.631  18.111  0.00  0.00    +0.000 C 
BRANCH   2   4
ATOM      3  O   UNL     1       4.434   6.833  16.159  0.00  0.00    +0.000 OA
ATOM      4  C   UNL     1       4.634   6.346  17.273  0.00  0.00    +0.000 C 
BRANCH   4   5
ATOM      5  C   UNL     1       3.605   5.380  17.760  0.00  0.00    +0.000 A 
ATOM      6  C   UNL     1       3.572   4.143  17.084  0.00  0.00    +0.000 A 
ATOM      7  C   UNL     1       2.612   3.176  17.390  0.00  0.00    +0.000 A 
ATOM      8  C   UNL     1       1.671   3.438  18.380  0.00  0.00    +0.000 A 
ATOM      9 CL   UNL     1       0.469   2.266  18.751  0.00  0.00    +0.000 Cl
ATOM     10  C   UNL     1       1.687   4.652  19.059  0.00  0.00    +0.000 A 
ATOM     11  C   UNL     1       2.646   5.629  18.749  0.00  0.00    +0.000 A 
ATOM     12 CL   UNL     1       2.487   7.124  19.595  0.00  0.00    +0.000 Cl
ENDBRANCH   4   5
ENDBRANCH   2   4
ENDBRANCH   1   2
BRANCH   1  13
ATOM     13  C   UNL     1       6.824   4.426  16.676  0.00  0.00    +0.000 C 
BRANCH  13  14
ATOM     14  C   UNL     1       6.891   4.402  15.167  0.00  0.00    +0.000 A 
ATOM     15  C   UNL     1       6.100   3.622  14.416  0.00  0.00    +0.000 A 
ATOM     16  C   UNL     1       6.177   3.715  12.946  0.00  0.00    +0.000 A 
ATOM     17  O   UNL     1       5.455   3.025  12.237  0.00  0.00    +0.000 OA
ATOM     18  N   UNL     1       7.083   4.606  12.447  0.00  0.00    +0.000 N 
ATOM     19  C   UNL     1       7.902   5.396  13.196  0.00  0.00    +0.000 A 
ATOM     20  O   UNL     1       8.687   6.194  12.693  0.00  0.00    +0.000 OA
ATOM     21  N   UNL     1       7.788   5.248  14.549  0.00  0.00    +0.000 N 
ATOM     22  H   UNL     1       7.136   4.708  11.446  0.00  0.00    +0.000 HD
ATOM     23  H   UNL     1       8.346   5.886  15.110  0.00  0.00    +0.000 HD
ENDBRANCH  13  14
ENDBRANCH   1  13
TORSDOF 5
ENDMDL
