MODEL 1
REMARK VINA RESULT:      -8.3      0.000      0.000
REMARK  Name = 
REMARK  7 active torsions:
REMARK  status: ('A' for Active; 'I' for Inactive)
REMARK    1  A    between atoms: C_1  and  O_2
REMARK    2  A    between atoms: O_2  and  C_3
REMARK    3  A    between atoms: C_8  and  O_9
REMARK    4  A    between atoms: O_9  and  C_10
REMARK    5  A    between atoms: C_14  and  C_15
REMARK    6  A    between atoms: N_18  and  C_19
REMARK    7  A    between atoms: C_19  and  C_20
REMARK                            x       y       z     vdW  Elec       q    Type
REMARK                         _______ _______ _______ _____ _____    ______ ____
ROOT
ATOM      1  C   UNL     1       2.965   3.872  20.560  0.00  0.00    +0.000 A 
ATOM      2  C   UNL     1       2.399   5.139  20.718  0.00  0.00    +0.000 A 
ATOM      3  C   UNL     1       2.624   6.085  19.743  0.00  0.00    +0.000 A 
ATOM      4  C   UNL     1       3.456   5.813  18.661  0.00  0.00    +0.000 A 
ATOM      5  C   UNL     1       4.106   4.596  18.521  0.00  0.00    +0.000 A 
ATOM      6  C   UNL     1       3.858   3.612  19.488  0.00  0.00    +0.000 A 
ATOM      7  C   UNL     1       3.428   6.973  17.753  0.00  0.00    +0.000 C 
ATOM      8  O   UNL     1       4.013   7.092  16.701  0.00  0.00    +0.000 OA
ATOM      9  C   UNL     1       2.487   7.975  18.356  0.00  0.00    +0.000 C 
ATOM     10  C   UNL     1       2.129   9.122  17.754  0.00  0.00    +0.000 C 
ATOM     11  C   UNL     1       1.999   7.432  19.670  0.00  0.00    +0.000 C 
ENDROOT
BRANCH  10  12
ATOM     12  C   UNL     1       1.166  10.018  18.390  0.00  0.00    +0.000 A 
ATOM     13  C   UNL     1      -0.200   9.811  18.225  0.00  0.00    +0.000 A 
ATOM     14  C   UNL     1      -1.096  10.780  18.662  0.00  0.00    +0.000 A 
ATOM     15  N   UNL     1      -0.656  11.920  19.246  0.00  0.00    +0.000 N 
ATOM     16  C   UNL     1       0.664  12.101  19.488  0.00  0.00    +0.000 A 
ATOM     17  C   UNL     1       1.599  11.163  19.056  0.00  0.00    +0.000 A 
BRANCH  15  18
ATOM     18  C   UNL     1      -1.621  13.013  19.542  0.00  0.00    +0.000 C 
BRANCH  18  19
ATOM     19  C   UNL     1      -2.252  12.831  20.897  0.00  0.00    +0.000 A 
ATOM     20  C   UNL     1      -1.528  12.240  21.947  0.00  0.00    +0.000 A 
ATOM     21  C   UNL     1      -2.147  11.980  23.171  0.00  0.00    +0.000 A 
ATOM     22  C   UNL     1      -3.482  12.321  23.354  0.00  0.00    +0.000 A 
ATOM     23  F   UNL     1      -4.084  12.032  24.512  0.00  0.00    +0.000 F 
ATOM     24  C   UNL     1      -4.200  12.952  22.347  0.00  0.00    +0.000 A 
ATOM     25  C   UNL     1      -3.587  13.213  21.121  0.00  0.00    +0.000 A 
ENDBRANCH  18  19
ENDBRANCH  15  18
ENDBRANCH  10  12
BRANCH   1  27
ATOM     26  C   UNL     1       1.273   2.620  21.624  0.00  0.00    +0.000 C 
ATOM     27  O   UNL     1       2.668   2.849  21.427  0.00  0.00    +0.000 OA
ENDBRANCH   1  27
BRANCH   6  28
ATOM     28  O   UNL     1       4.353   2.334  19.396  0.00  0.00    +0.000 OA
ATOM     29  C   UNL     1       3.683   1.461  18.490  0.00  0.00    +0.000 C 
ENDBRANCH   6  28
TORSDOF 5
ENDMDL
MODEL 2
REMARK VINA RESULT:      -8.1      0.684      1.137
REMARK  Name = 
REMARK  7 active torsions:
REMARK  status: ('A' for Active; 'I' for Inactive)
REMARK    1  A    between atoms: C_1  and  O_2
REMARK    2  A    between atoms: O_2  and  C_3
REMARK    3  A    between atoms: C_8  and  O_9
REMARK    4  A    between atoms: O_9  and  C_10
REMARK    5  A    between atoms: C_14  and  C_15
REMARK    6  A    between atoms: N_18  and  C_19
REMARK    7  A    between atoms: C_19  and  C_20
REMARK                            x       y       z     vdW  Elec       q    Type
REMARK                         _______ _______ _______ _____ _____    ______ ____
ROOT
ATOM      1  C   UNL     1       2.790   4.324  20.588  0.00  0.00    +0.000 A 
ATOM      2  C   UNL     1       2.217   5.575  20.823  0.00  0.00    +0.000 A 
ATOM      3  C   UNL     1       2.348   6.549  19.859  0.00  0.00    +0.000 A 
ATOM      4  C   UNL     1       3.097   6.320  18.709  0.00  0.00    +0.000 A 
ATOM      5  C   UNL     1       3.755   5.120  18.486  0.00  0.00    +0.000 A 
ATOM      6  C   UNL     1       3.600   4.107  19.443  0.00  0.00    +0.000 A 
ATOM      7  C   UNL     1       2.978   7.502  17.837  0.00  0.00    +0.000 C 
ATOM      8  O   UNL     1       3.476   7.659  16.746  0.00  0.00    +0.000 OA
ATOM      9  C   UNL     1       2.071   8.471  18.538  0.00  0.00    +0.000 C 
ATOM     10  C   UNL     1       1.647   9.626  17.997  0.00  0.00    +0.000 C 
ATOM     11  C   UNL     1       1.697   7.886  19.872  0.00  0.00    +0.000 C 
ENDROOT
BRANCH  10  12
ATOM     12  C   UNL     1       0.723  10.487  18.731  0.00  0.00    +0.000 A 
ATOM     13  C   UNL     1      -0.651  10.332  18.578  0.00  0.00    +0.000 A 
ATOM     14  C   UNL     1      -1.511  11.282  19.118  0.00  0.00    +0.000 A 
ATOM     15  N   UNL     1      -1.028  12.353  19.790  0.00  0.00    +0.000 N 
ATOM     16  C   UNL     1       0.301  12.478  20.018  0.00  0.00    +0.000 A 
ATOM     17  C   UNL     1       1.201  11.557  19.485  0.00  0.00    +0.000 A 
BRANCH  15  18
ATOM     18  C   UNL     1      -1.956  13.442  20.202  0.00  0.00    +0.000 C 
BRANCH  18  19
ATOM     19  C   UNL     1      -2.765  13.040  21.407  0.00  0.00    +0.000 A 
ATOM     20  C   UNL     1      -4.146  13.298  21.456  0.00  0.00    +0.000 A 
ATOM     21  C   UNL     1      -4.875  13.018  22.614  0.00  0.00    +0.000 A 
ATOM     22  C   UNL     1      -4.231  12.469  23.716  0.00  0.00    +0.000 A 
ATOM     23  F   UNL     1      -4.922  12.241  24.838  0.00  0.00    +0.000 F 
ATOM     24  C   UNL     1      -2.878  12.159  23.670  0.00  0.00    +0.000 A 
ATOM     25  C   UNL     1      -2.145  12.438  22.516  0.00  0.00    +0.000 A 
ENDBRANCH  18  19
ENDBRANCH  15  18
ENDBRANCH  10  12
BRANCH   1  27
ATOM     26  C   UNL     1       1.271   2.708  21.390  0.00  0.00    +0.000 C 
ATOM     27  O   UNL     1       2.580   3.274  21.448  0.00  0.00    +0.000 OA
ENDBRANCH   1  27
BRANCH   6  28
ATOM     28  O   UNL     1       4.108   2.842  19.278  0.00  0.00    +0.000 OA
ATOM     29  C   UNL     1       3.547   2.069  18.219  0.00  0.00    +0.000 C 
ENDBRANCH   6  28
TORSDOF 5
ENDMDL
MODEL 3
REMARK VINA RESULT:      -7.9      1.092      1.348
REMARK  Name = 
REMARK  7 active torsions:
REMARK  status: ('A' for Active; 'I' for Inactive)
REMARK    1  A    between atoms: C_1  and  O_2
REMARK    2  A    between atoms: O_2  and  C_3
REMARK    3  A    between atoms: C_8  and  O_9
REMARK    4  A    between atoms: O_9  and  C_10
REMARK    5  A    between atoms: C_14  and  C_15
REMARK    6  A    between atoms: N_18  and  C_19
REMARK    7  A    between atoms: C_19  and  C_20
REMARK                            x       y       z     vdW  Elec       q    Type
REMARK                         _______ _______ _______ _____ _____    ______ ____
ROOT
ATOM      1  C   UNL     1       2.911   3.701  20.464  0.00  0.00    +0.000 A 
ATOM      2  C   UNL     1       2.333   4.963  20.614  0.00  0.00    +0.000 A 
ATOM      3  C   UNL     1       2.611   5.929  19.673  0.00  0.00    +0.000 A 
ATOM      4  C   UNL     1       3.508   5.681  18.638  0.00  0.00    +0.000 A 
ATOM      5  C   UNL     1       4.169   4.469  18.512  0.00  0.00    +0.000 A 
ATOM      6  C   UNL     1       3.868   3.464  19.442  0.00  0.00    +0.000 A 
ATOM      7  C   UNL     1       3.529   6.859  17.753  0.00  0.00    +0.000 C 
ATOM      8  O   UNL     1       4.175   7.002  16.740  0.00  0.00    +0.000 OA
ATOM      9  C   UNL     1       2.550   7.846  18.320  0.00  0.00    +0.000 C 
ATOM     10  C   UNL     1       2.224   9.005  17.721  0.00  0.00    +0.000 C 
ATOM     11  C   UNL     1       1.987   7.275  19.591  0.00  0.00    +0.000 C 
ENDROOT
BRANCH  10  12
ATOM     12  C   UNL     1       1.223   9.885  18.317  0.00  0.00    +0.000 A 
ATOM     13  C   UNL     1      -0.133   9.632  18.132  0.00  0.00    +0.000 A 
ATOM     14  C   UNL     1      -1.067  10.582  18.528  0.00  0.00    +0.000 A 
ATOM     15  N   UNL     1      -0.674  11.749  19.092  0.00  0.00    +0.000 N 
ATOM     16  C   UNL     1       0.635  11.978  19.353  0.00  0.00    +0.000 A 
ATOM     17  C   UNL     1       1.607  11.060  18.961  0.00  0.00    +0.000 A 
BRANCH  15  18
ATOM     18  C   UNL     1      -1.678  12.818  19.342  0.00  0.00    +0.000 C 
BRANCH  18  19
ATOM     19  C   UNL     1      -1.628  13.288  20.773  0.00  0.00    +0.000 A 
ATOM     20  C   UNL     1      -1.357  14.634  21.072  0.00  0.00    +0.000 A 
ATOM     21  C   UNL     1      -1.210  15.045  22.399  0.00  0.00    +0.000 A 
ATOM     22  C   UNL     1      -1.349  14.119  23.425  0.00  0.00    +0.000 A 
ATOM     23  F   UNL     1      -1.167  14.507  24.692  0.00  0.00    +0.000 F 
ATOM     24  C   UNL     1      -1.668  12.796  23.153  0.00  0.00    +0.000 A 
ATOM     25  C   UNL     1      -1.814  12.379  21.829  0.00  0.00    +0.000 A 
ENDBRANCH  18  19
ENDBRANCH  15  18
ENDBRANCH  10  12
BRANCH   1  27
ATOM     26  C   UNL     1       1.228   2.704  21.781  0.00  0.00    +0.000 C 
ATOM     27  O   UNL     1       2.567   2.659  21.290  0.00  0.00    +0.000 OA
ENDBRANCH   1  27
BRANCH   6  28
ATOM     28  O   UNL     1       4.372   2.190  19.354  0.00  0.00    +0.000 OA
ATOM     29  C   UNL     1       3.731   1.321  18.423  0.00  0.00    +0.000 C 
ENDBRANCH   6  28
TORSDOF 5
ENDMDL
MODEL 4
REMARK VINA RESULT:      -7.7      5.006      9.939
REMARK  Name = 
REMARK  7 active torsions:
REMARK  status: ('A' for Active; 'I' for Inactive)
REMARK    1  A    between atoms: C_1  and  O_2
REMARK    2  A    between atoms: O_2  and  C_3
REMARK    3  A    between atoms: C_8  and  O_9
REMARK    4  A    between atoms: O_9  and  C_10
REMARK    5  A    between atoms: C_14  and  C_15
REMARK    6  A    between atoms: N_18  and  C_19
REMARK    7  A    between atoms: C_19  and  C_20
REMARK                            x       y       z     vdW  Elec       q    Type
REMARK                         _______ _______ _______ _____ _____    ______ ____
ROOT
ATOM      1  C   UNL     1       3.058  16.140  18.625  0.00  0.00    +0.000 A 
ATOM      2  C   UNL     1       3.114  14.768  18.881  0.00  0.00    +0.000 A 
ATOM      3  C   UNL     1       1.945  14.110  19.192  0.00  0.00    +0.000 A 
ATOM      4  C   UNL     1       0.747  14.805  19.323  0.00  0.00    +0.000 A 
ATOM      5  C   UNL     1       0.673  16.181  19.165  0.00  0.00    +0.000 A 
ATOM      6  C   UNL     1       1.849  16.858  18.813  0.00  0.00    +0.000 A 
ATOM      7  C   UNL     1      -0.330  13.829  19.568  0.00  0.00    +0.000 C 
ATOM      8  O   UNL     1      -1.508  14.060  19.714  0.00  0.00    +0.000 OA
ATOM      9  C   UNL     1       0.306  12.469  19.552  0.00  0.00    +0.000 C 
ATOM     10  C   UNL     1      -0.386  11.319  19.641  0.00  0.00    +0.000 C 
ATOM     11  C   UNL     1       1.786  12.642  19.360  0.00  0.00    +0.000 C 
ENDROOT
BRANCH  10  12
ATOM     12  C   UNL     1       0.308  10.036  19.566  0.00  0.00    +0.000 A 
ATOM     13  C   UNL     1       0.504   9.276  20.715  0.00  0.00    +0.000 A 
ATOM     14  C   UNL     1       1.337   8.164  20.667  0.00  0.00    +0.000 A 
ATOM     15  N   UNL     1       1.959   7.812  19.517  0.00  0.00    +0.000 N 
ATOM     16  C   UNL     1       1.717   8.492  18.370  0.00  0.00    +0.000 A 
ATOM     17  C   UNL     1       0.900   9.620  18.374  0.00  0.00    +0.000 A 
BRANCH  15  18
ATOM     18  C   UNL     1       2.979   6.729  19.535  0.00  0.00    +0.000 C 
BRANCH  18  19
ATOM     19  C   UNL     1       2.341   5.377  19.350  0.00  0.00    +0.000 A 
ATOM     20  C   UNL     1       1.914   4.632  20.463  0.00  0.00    +0.000 A 
ATOM     21  C   UNL     1       1.417   3.337  20.296  0.00  0.00    +0.000 A 
ATOM     22  C   UNL     1       1.333   2.792  19.020  0.00  0.00    +0.000 A 
ATOM     23  F   UNL     1       0.897   1.537  18.867  0.00  0.00    +0.000 F 
ATOM     24  C   UNL     1       1.702   3.530  17.904  0.00  0.00    +0.000 A 
ATOM     25  C   UNL     1       2.201   4.824  18.065  0.00  0.00    +0.000 A 
ENDBRANCH  18  19
ENDBRANCH  15  18
ENDBRANCH  10  12
BRANCH   1  27
ATOM     26  C   UNL     1       5.410  16.188  18.456  0.00  0.00    +0.000 C 
ATOM     27  O   UNL     1       4.162  16.824  18.180  0.00  0.00    +0.000 OA
ENDBRANCH   1  27
BRANCH   6  28
ATOM     28  O   UNL     1       1.878  18.200  18.520  0.00  0.00    +0.000 OA
ATOM     29  C   UNL     1       1.037  18.630  17.452  0.00  0.00    +0.000 C 
ENDBRANCH   6  28
TORSDOF 5
ENDMDL
MODEL 5
REMARK VINA RESULT:      -7.7      4.731      9.699
REMARK  Name = 
REMARK  7 active torsions:
REMARK  status: ('A' for Active; 'I' for Inactive)
REMARK    1  A    between atoms: C_1  and  O_2
REMARK    2  A    between atoms: O_2  and  C_3
REMARK    3  A    between atoms: C_8  and  O_9
REMARK    4  A    between atoms: O_9  and  C_10
REMARK    5  A    between atoms: C_14  and  C_15
REMARK    6  A    between atoms: N_18  and  C_19
REMARK    7  A    between atoms: C_19  and  C_20
REMARK                            x       y       z     vdW  Elec       q    Type
REMARK                         _______ _______ _______ _____ _____    ______ ____
ROOT
ATOM      1  C   UNL     1      -4.979  11.829  18.580  0.00  0.00    +0.000 A 
ATOM      2  C   UNL     1      -3.867  11.062  18.229  0.00  0.00    +0.000 A 
ATOM      3  C   UNL     1      -2.676  11.297  18.878  0.00  0.00    +0.000 A 
ATOM      4  C   UNL     1      -2.560  12.326  19.808  0.00  0.00    +0.000 A 
ATOM      5  C   UNL     1      -3.620  13.165  20.113  0.00  0.00    +0.000 A 
ATOM      6  C   UNL     1      -4.849  12.913  19.487  0.00  0.00    +0.000 A 
ATOM      7  C   UNL     1      -1.207  12.272  20.391  0.00  0.00    +0.000 C 
ATOM      8  O   UNL     1      -0.750  12.995  21.246  0.00  0.00    +0.000 OA
ATOM      9  C   UNL     1      -0.506  11.106  19.756  0.00  0.00    +0.000 C 
ATOM     10  C   UNL     1       0.718  10.683  20.115  0.00  0.00    +0.000 C 
ATOM     11  C   UNL     1      -1.430  10.498  18.737  0.00  0.00    +0.000 C 
ENDROOT
BRANCH  10  12
ATOM     12  C   UNL     1       1.306   9.507  19.479  0.00  0.00    +0.000 A 
ATOM     13  C   UNL     1       1.474   8.329  20.200  0.00  0.00    +0.000 A 
ATOM     14  C   UNL     1       2.215   7.289  19.650  0.00  0.00    +0.000 A 
ATOM     15  N   UNL     1       2.774   7.408  18.423  0.00  0.00    +0.000 N 
ATOM     16  C   UNL     1       2.553   8.515  17.674  0.00  0.00    +0.000 A 
ATOM     17  C   UNL     1       1.828   9.587  18.189  0.00  0.00    +0.000 A 
BRANCH  15  18
ATOM     18  C   UNL     1       3.705   6.355  17.934  0.00  0.00    +0.000 C 
BRANCH  18  19
ATOM     19  C   UNL     1       3.198   4.979  18.275  0.00  0.00    +0.000 A 
ATOM     20  C   UNL     1       1.989   4.510  17.732  0.00  0.00    +0.000 A 
ATOM     21  C   UNL     1       1.471   3.275  18.129  0.00  0.00    +0.000 A 
ATOM     22  C   UNL     1       2.163   2.504  19.054  0.00  0.00    +0.000 A 
ATOM     23  F   UNL     1       1.643   1.341  19.464  0.00  0.00    +0.000 F 
ATOM     24  C   UNL     1       3.384   2.926  19.563  0.00  0.00    +0.000 A 
ATOM     25  C   UNL     1       3.906   4.159  19.172  0.00  0.00    +0.000 A 
ENDBRANCH  18  19
ENDBRANCH  15  18
ENDBRANCH  10  12
BRANCH   1  27
ATOM     26  C   UNL     1      -6.901  10.467  18.699  0.00  0.00    +0.000 C 
ATOM     27  O   UNL     1      -6.223  11.552  18.067  0.00  0.00    +0.000 OA
ENDBRANCH   1  27
BRANCH   6  28
ATOM     28  O   UNL     1      -5.997  13.602  19.791  0.00  0.00    +0.000 OA
ATOM     29  C   UNL     1      -6.053  14.194  21.087  0.00  0.00    +0.000 C 
ENDBRANCH   6  28
TORSDOF 5
ENDMDL
MODEL 6
REMARK VINA RESULT:      -7.6      4.668      9.542
REMARK  Name = 
REMARK  7 active torsions:
REMARK  status: ('A' for Active; 'I' for Inactive)
REMARK    1  A    between atoms: C_1  and  O_2
REMARK    2  A    between atoms: O_2  and  C_3
REMARK    3  A    between atoms: C_8  and  O_9
REMARK    4  A    between atoms: O_9  and  C_10
REMARK    5  A    between atoms: C_14  and  C_15
REMARK    6  A    between atoms: N_18  and  C_19
REMARK    7  A    between atoms: C_19  and  C_20
REMARK                            x       y       z     vdW  Elec       q    Type
REMARK                         _______ _______ _______ _____ _____    ______ ____
ROOT
ATOM      1  C   UNL     1      -3.830  10.765  15.849  0.00  0.00    +0.000 A 
ATOM      2  C   UNL     1      -2.557  10.210  15.992  0.00  0.00    +0.000 A 
ATOM      3  C   UNL     1      -1.891  10.391  17.183  0.00  0.00    +0.000 A 
ATOM      4  C   UNL     1      -2.438  11.173  18.196  0.00  0.00    +0.000 A 
ATOM      5  C   UNL     1      -3.659  11.813  18.053  0.00  0.00    +0.000 A 
ATOM      6  C   UNL     1      -4.365  11.608  16.858  0.00  0.00    +0.000 A 
ATOM      7  C   UNL     1      -1.545  11.106  19.366  0.00  0.00    +0.000 C 
ATOM      8  O   UNL     1      -1.703  11.641  20.439  0.00  0.00    +0.000 OA
ATOM      9  C   UNL     1      -0.410  10.195  18.995  0.00  0.00    +0.000 C 
ATOM     10  C   UNL     1       0.553   9.812  19.851  0.00  0.00    +0.000 C 
ATOM     11  C   UNL     1      -0.597   9.767  17.566  0.00  0.00    +0.000 C 
ENDROOT
BRANCH  10  12
ATOM     12  C   UNL     1       1.593   8.881  19.420  0.00  0.00    +0.000 A 
ATOM     13  C   UNL     1       2.224   9.054  18.192  0.00  0.00    +0.000 A 
ATOM     14  C   UNL     1       3.060   8.055  17.706  0.00  0.00    +0.000 A 
ATOM     15  N   UNL     1       3.267   6.918  18.412  0.00  0.00    +0.000 N 
ATOM     16  C   UNL     1       2.725   6.768  19.644  0.00  0.00    +0.000 A 
ATOM     17  C   UNL     1       1.871   7.737  20.166  0.00  0.00    +0.000 A 
BRANCH  15  18
ATOM     18  C   UNL     1       4.021   5.795  17.791  0.00  0.00    +0.000 C 
BRANCH  18  19
ATOM     19  C   UNL     1       3.400   4.467  18.135  0.00  0.00    +0.000 A 
ATOM     20  C   UNL     1       2.069   4.189  17.779  0.00  0.00    +0.000 A 
ATOM     21  C   UNL     1       1.464   2.999  18.188  0.00  0.00    +0.000 A 
ATOM     22  C   UNL     1       2.189   2.080  18.937  0.00  0.00    +0.000 A 
ATOM     23  F   UNL     1       1.594   0.960  19.362  0.00  0.00    +0.000 F 
ATOM     24  C   UNL     1       3.520   2.313  19.254  0.00  0.00    +0.000 A 
ATOM     25  C   UNL     1       4.130   3.502  18.850  0.00  0.00    +0.000 A 
ENDBRANCH  18  19
ENDBRANCH  15  18
ENDBRANCH  10  12
BRANCH   1  27
ATOM     26  C   UNL     1      -3.890   9.916  13.649  0.00  0.00    +0.000 C 
ATOM     27  O   UNL     1      -4.597  10.507  14.740  0.00  0.00    +0.000 OA
ENDBRANCH   1  27
BRANCH   6  28
ATOM     28  O   UNL     1      -5.631  12.096  16.646  0.00  0.00    +0.000 OA
ATOM     29  C   UNL     1      -6.165  12.933  17.669  0.00  0.00    +0.000 C 
ENDBRANCH   6  28
TORSDOF 5
ENDMDL
MODEL 7
REMARK VINA RESULT:      -7.6      4.796      9.819
REMARK  Name = 
REMARK  7 active torsions:
REMARK  status: ('A' for Active; 'I' for Inactive)
REMARK    1  A    between atoms: C_1  and  O_2
REMARK    2  A    between atoms: O_2  and  C_3
REMARK    3  A    between atoms: C_8  and  O_9
REMARK    4  A    between atoms: O_9  and  C_10
REMARK    5  A    between atoms: C_14  and  C_15
REMARK    6  A    between atoms: N_18  and  C_19
REMARK    7  A    between atoms: C_19  and  C_20
REMARK                            x       y       z     vdW  Elec       q    Type
REMARK                         _______ _______ _______ _____ _____    ______ ____
ROOT
ATOM      1  C   UNL     1      -4.750  11.957  18.529  0.00  0.00    +0.000 A 
ATOM      2  C   UNL     1      -3.626  11.217  18.155  0.00  0.00    +0.000 A 
ATOM      3  C   UNL     1      -2.510  11.266  18.960  0.00  0.00    +0.000 A 
ATOM      4  C   UNL     1      -2.472  12.092  20.080  0.00  0.00    +0.000 A 
ATOM      5  C   UNL     1      -3.537  12.908  20.429  0.00  0.00    +0.000 A 
ATOM      6  C   UNL     1      -4.694  12.841  19.638  0.00  0.00    +0.000 A 
ATOM      7  C   UNL     1      -1.196  11.862  20.780  0.00  0.00    +0.000 C 
ATOM      8  O   UNL     1      -0.819  12.386  21.803  0.00  0.00    +0.000 OA
ATOM      9  C   UNL     1      -0.460  10.806  20.008  0.00  0.00    +0.000 C 
ATOM     10  C   UNL     1       0.704  10.263  20.405  0.00  0.00    +0.000 C 
ATOM     11  C   UNL     1      -1.279  10.449  18.799  0.00  0.00    +0.000 C 
ENDROOT
BRANCH  10  12
ATOM     12  C   UNL     1       1.327   9.202  19.618  0.00  0.00    +0.000 A 
ATOM     13  C   UNL     1       1.677   7.997  20.218  0.00  0.00    +0.000 A 
ATOM     14  C   UNL     1       2.449   7.080  19.513  0.00  0.00    +0.000 A 
ATOM     15  N   UNL     1       2.863   7.346  18.251  0.00  0.00    +0.000 N 
ATOM     16  C   UNL     1       2.464   8.478  17.623  0.00  0.00    +0.000 A 
ATOM     17  C   UNL     1       1.702   9.431  18.295  0.00  0.00    +0.000 A 
BRANCH  15  18
ATOM     18  C   UNL     1       3.831   6.431  17.587  0.00  0.00    +0.000 C 
BRANCH  18  19
ATOM     19  C   UNL     1       3.583   4.998  17.979  0.00  0.00    +0.000 A 
ATOM     20  C   UNL     1       4.440   4.348  18.884  0.00  0.00    +0.000 A 
ATOM     21  C   UNL     1       4.268   2.991  19.166  0.00  0.00    +0.000 A 
ATOM     22  C   UNL     1       3.235   2.288  18.559  0.00  0.00    +0.000 A 
ATOM     23  F   UNL     1       3.098   0.979  18.799  0.00  0.00    +0.000 F 
ATOM     24  C   UNL     1       2.347   2.923  17.702  0.00  0.00    +0.000 A 
ATOM     25  C   UNL     1       2.515   4.279  17.415  0.00  0.00    +0.000 A 
ENDBRANCH  18  19
ENDBRANCH  15  18
ENDBRANCH  10  12
BRANCH   1  27
ATOM     26  C   UNL     1      -6.813  10.830  18.332  0.00  0.00    +0.000 C 
ATOM     27  O   UNL     1      -5.935  11.843  17.844  0.00  0.00    +0.000 OA
ENDBRANCH   1  27
BRANCH   6  28
ATOM     28  O   UNL     1      -5.849  13.514  19.948  0.00  0.00    +0.000 OA
ATOM     29  C   UNL     1      -6.324  13.370  21.285  0.00  0.00    +0.000 C 
ENDBRANCH   6  28
TORSDOF 5
ENDMDL
MODEL 8
REMARK VINA RESULT:      -7.6      5.047      9.971
REMARK  Name = 
REMARK  7 active torsions:
REMARK  status: ('A' for Active; 'I' for Inactive)
REMARK    1  A    between atoms: C_1  and  O_2
REMARK    2  A    between atoms: O_2  and  C_3
REMARK    3  A    between atoms: C_8  and  O_9
REMARK    4  A    between atoms: O_9  and  C_10
REMARK    5  A    between atoms: C_14  and  C_15
REMARK    6  A    between atoms: N_18  and  C_19
REMARK    7  A    between atoms: C_19  and  C_20
REMARK                            x       y       z     vdW  Elec       q    Type
REMARK                         _______ _______ _______ _____ _____    ______ ____
ROOT
ATOM      1  C   UNL     1      -3.399  10.587  16.259  0.00  0.00    +0.000 A 
ATOM      2  C   UNL     1      -2.224   9.843  16.379  0.00  0.00    +0.000 A 
ATOM      3  C   UNL     1      -1.468   9.988  17.520  0.00  0.00    +0.000 A 
ATOM      4  C   UNL     1      -1.823  10.910  18.500  0.00  0.00    +0.000 A 
ATOM      5  C   UNL     1      -2.933  11.730  18.370  0.00  0.00    +0.000 A 
ATOM      6  C   UNL     1      -3.732  11.567  17.230  0.00  0.00    +0.000 A 
ATOM      7  C   UNL     1      -0.884  10.772  19.627  0.00  0.00    +0.000 C 
ATOM      8  O   UNL     1      -0.890  11.393  20.665  0.00  0.00    +0.000 OA
ATOM      9  C   UNL     1       0.068   9.668  19.267  0.00  0.00    +0.000 C 
ATOM     10  C   UNL     1       1.007   9.188  20.101  0.00  0.00    +0.000 C 
ATOM     11  C   UNL     1      -0.270   9.187  17.883  0.00  0.00    +0.000 C 
ENDROOT
BRANCH  10  12
ATOM     12  C   UNL     1       1.859   8.076  19.687  0.00  0.00    +0.000 A 
ATOM     13  C   UNL     1       2.408   8.050  18.409  0.00  0.00    +0.000 A 
ATOM     14  C   UNL     1       3.044   6.898  17.961  0.00  0.00    +0.000 A 
ATOM     15  N   UNL     1       3.135   5.803  18.752  0.00  0.00    +0.000 N 
ATOM     16  C   UNL     1       2.678   5.837  20.027  0.00  0.00    +0.000 A 
ATOM     17  C   UNL     1       2.022   6.966  20.514  0.00  0.00    +0.000 A 
BRANCH  15  18
ATOM     18  C   UNL     1       3.661   4.530  18.187  0.00  0.00    +0.000 C 
BRANCH  18  19
ATOM     19  C   UNL     1       4.759   4.790  17.189  0.00  0.00    +0.000 A 
ATOM     20  C   UNL     1       4.584   4.455  15.835  0.00  0.00    +0.000 A 
ATOM     21  C   UNL     1       5.639   4.602  14.931  0.00  0.00    +0.000 A 
ATOM     22  C   UNL     1       6.860   5.094  15.374  0.00  0.00    +0.000 A 
ATOM     23  F   UNL     1       7.881   5.194  14.515  0.00  0.00    +0.000 F 
ATOM     24  C   UNL     1       7.037   5.479  16.696  0.00  0.00    +0.000 A 
ATOM     25  C   UNL     1       5.987   5.333  17.604  0.00  0.00    +0.000 A 
ENDBRANCH  18  19
ENDBRANCH  15  18
ENDBRANCH  10  12
BRANCH   1  27
ATOM     26  C   UNL     1      -3.635  10.007  13.984  0.00  0.00    +0.000 C 
ATOM     27  O   UNL     1      -4.262  10.387  15.209  0.00  0.00    +0.000 OA
ENDBRANCH   1  27
BRANCH   6  28
ATOM     28  O   UNL     1      -4.915  12.240  17.045  0.00  0.00    +0.000 OA
ATOM     29  C   UNL     1      -5.997  11.860  17.893  0.00  0.00    +0.000 C 
ENDBRANCH   6  28
TORSDOF 5
ENDMDL
MODEL 9
REMARK VINA RESULT:      -7.5      4.933     10.041
REMARK  Name = 
REMARK  7 active torsions:
REMARK  status: ('A' for Active; 'I' for Inactive)
REMARK    1  A    between atoms: C_1  and  O_2
REMARK    2  A    between atoms: O_2  and  C_3
REMARK    3  A    between atoms: C_8  and  O_9
REMARK    4  A    between atoms: O_9  and  C_10
REMARK    5  A    between atoms: C_14  and  C_15
REMARK    6  A    between atoms: N_18  and  C_19
REMARK    7  A    between atoms: C_19  and  C_20
REMARK                            x       y       z     vdW  Elec       q    Type
REMARK                         _______ _______ _______ _____ _____    ______ ____
ROOT
ATOM      1  C   UNL     1      -2.291  11.572  18.590  0.00  0.00    +0.000 A 
ATOM      2  C   UNL     1      -1.404  10.541  18.274  0.00  0.00    +0.000 A 
ATOM      3  C   UNL     1      -0.526  10.109  19.242  0.00  0.00    +0.000 A 
ATOM      4  C   UNL     1      -0.469  10.733  20.485  0.00  0.00    +0.000 A 
ATOM      5  C   UNL     1      -1.271  11.818  20.800  0.00  0.00    +0.000 A 
ATOM      6  C   UNL     1      -2.195  12.246  19.836  0.00  0.00    +0.000 A 
ATOM      7  C   UNL     1       0.491   9.999  21.328  0.00  0.00    +0.000 C 
ATOM      8  O   UNL     1       0.789  10.236  22.475  0.00  0.00    +0.000 OA
ATOM      9  C   UNL     1       1.004   8.852  20.504  0.00  0.00    +0.000 C 
ATOM     10  C   UNL     1       1.826   7.899  20.978  0.00  0.00    +0.000 C 
ATOM     11  C   UNL     1       0.390   8.943  19.135  0.00  0.00    +0.000 C 
ENDROOT
BRANCH  10  12
ATOM     12  C   UNL     1       2.236   6.789  20.122  0.00  0.00    +0.000 A 
ATOM     13  C   UNL     1       2.031   5.475  20.530  0.00  0.00    +0.000 A 
ATOM     14  C   UNL     1       2.605   4.436  19.807  0.00  0.00    +0.000 A 
ATOM     15  N   UNL     1       3.360   4.688  18.711  0.00  0.00    +0.000 N 
ATOM     16  C   UNL     1       3.503   5.954  18.252  0.00  0.00    +0.000 A 
ATOM     17  C   UNL     1       2.956   7.027  18.952  0.00  0.00    +0.000 A 
BRANCH  15  18
ATOM     18  C   UNL     1       4.105   3.575  18.061  0.00  0.00    +0.000 C 
BRANCH  18  19
ATOM     19  C   UNL     1       5.059   4.095  17.018  0.00  0.00    +0.000 A 
ATOM     20  C   UNL     1       4.680   4.140  15.665  0.00  0.00    +0.000 A 
ATOM     21  C   UNL     1       5.600   4.526  14.688  0.00  0.00    +0.000 A 
ATOM     22  C   UNL     1       6.891   4.879  15.060  0.00  0.00    +0.000 A 
ATOM     23  F   UNL     1       7.783   5.207  14.118  0.00  0.00    +0.000 F 
ATOM     24  C   UNL     1       7.270   4.891  16.396  0.00  0.00    +0.000 A 
ATOM     25  C   UNL     1       6.355   4.504  17.376  0.00  0.00    +0.000 A 
ENDBRANCH  18  19
ENDBRANCH  15  18
ENDBRANCH  10  12
BRANCH   1  27
ATOM     26  C   UNL     1      -3.636  10.964  16.751  0.00  0.00    +0.000 C 
ATOM     27  O   UNL     1      -3.277  11.954  17.715  0.00  0.00    +0.000 OA
ENDBRANCH   1  27
BRANCH   6  28
ATOM     28  O   UNL     1      -3.119  13.234  20.074  0.00  0.00    +0.000 OA
ATOM     29  C   UNL     1      -3.810  13.166  21.319  0.00  0.00    +0.000 C 
ENDBRANCH   6  28
TORSDOF 5
ENDMDL
