MODEL 1
REMARK VINA RESULT:      -6.6      0.000      0.000
REMARK  Name = 
REMARK  7 active torsions:
REMARK  status: ('A' for Active; 'I' for Inactive)
REMARK    1  A    between atoms: C_1  and  C_2
REMARK    2  A    between atoms: C_2  and  C_3
REMARK    3  A    between atoms: C_2  and  C_4
REMARK    4  A    between atoms: C_4  and  C_5
REMARK    5  A    between atoms: C_5  and  O_7
REMARK    6  A    between atoms: O_7  and  C_8
REMARK    7  A    between atoms: C_11  and  N_12
REMARK                            x       y       z     vdW  Elec       q    Type
REMARK                         _______ _______ _______ _____ _____    ______ ____
ROOT
ATOM      1  C   UNL     1       5.056   4.192  18.344  0.00  0.00    +0.000 A 
ATOM      2  C   UNL     1       4.346   3.892  17.178  0.00  0.00    +0.000 A 
ATOM      3  C   UNL     1       4.967   4.062  15.934  0.00  0.00    +0.000 A 
ATOM      4  C   UNL     1       6.286   4.546  15.872  0.00  0.00    +0.000 A 
ATOM      5  C   UNL     1       6.981   4.867  17.043  0.00  0.00    +0.000 A 
ATOM      6  C   UNL     1       6.357   4.709  18.272  0.00  0.00    +0.000 A 
ENDROOT
BRANCH   4   7
ATOM      7  N   UNL     1       6.952   4.737  14.582  0.00  0.00    +0.000 N 
ATOM      8  O   UNL     1       7.927   5.506  14.544  0.00  0.00    +0.000 OA
ATOM      9  O   UNL     1       6.514   4.120  13.604  0.00  0.00    +0.000 OA
ENDBRANCH   4   7
BRANCH   1  10
ATOM     10  O   UNL     1       4.401   4.083  19.582  0.00  0.00    +0.000 OA
BRANCH  10  11
ATOM     11  C   UNL     1       4.172   2.784  20.037  0.00  0.00    +0.000 C 
ATOM     12  O   UNL     1       5.001   1.880  20.083  0.00  0.00    +0.000 OA
BRANCH  11  13
ATOM     13  C   UNL     1       2.748   2.657  20.523  0.00  0.00    +0.000 C 
BRANCH  13  15
ATOM     14  C   UNL     1       0.877   2.442  18.806  0.00  0.00    +0.000 C 
ATOM     15  C   UNL     1       1.762   3.406  19.605  0.00  0.00    +0.000 C 
ATOM     16  C   UNL     1       0.869   4.350  20.413  0.00  0.00    +0.000 C 
ENDBRANCH  13  15
ENDBRANCH  11  13
ENDBRANCH  10  11
ENDBRANCH   1  10
TORSDOF 5
ENDMDL
MODEL 2
REMARK VINA RESULT:      -6.4      1.229      2.118
REMARK  Name = 
REMARK  7 active torsions:
REMARK  status: ('A' for Active; 'I' for Inactive)
REMARK    1  A    between atoms: C_1  and  C_2
REMARK    2  A    between atoms: C_2  and  C_3
REMARK    3  A    between atoms: C_2  and  C_4
REMARK    4  A    between atoms: C_4  and  C_5
REMARK    5  A    between atoms: C_5  and  O_7
REMARK    6  A    between atoms: O_7  and  C_8
REMARK    7  A    between atoms: C_11  and  N_12
REMARK                            x       y       z     vdW  Elec       q    Type
REMARK                         _______ _______ _______ _____ _____    ______ ____
ROOT
ATOM      1  C   UNL     1       4.653   4.699  18.709  0.00  0.00    +0.000 A 
ATOM      2  C   UNL     1       4.044   4.149  17.577  0.00  0.00    +0.000 A 
ATOM      3  C   UNL     1       4.749   4.114  16.367  0.00  0.00    +0.000 A 
ATOM      4  C   UNL     1       6.050   4.646  16.302  0.00  0.00    +0.000 A 
ATOM      5  C   UNL     1       6.642   5.217  17.434  0.00  0.00    +0.000 A 
ATOM      6  C   UNL     1       5.934   5.260  18.625  0.00  0.00    +0.000 A 
ENDROOT
BRANCH   4   7
ATOM      7  N   UNL     1       6.802   4.626  15.046  0.00  0.00    +0.000 N 
ATOM      8  O   UNL     1       6.482   3.779  14.195  0.00  0.00    +0.000 OA
ATOM      9  O   UNL     1       7.710   5.452  14.898  0.00  0.00    +0.000 OA
ENDBRANCH   4   7
BRANCH   1  10
ATOM     10  O   UNL     1       3.911   4.790  19.898  0.00  0.00    +0.000 OA
BRANCH  10  11
ATOM     11  C   UNL     1       2.779   5.604  19.850  0.00  0.00    +0.000 C 
ATOM     12  O   UNL     1       2.716   6.722  19.348  0.00  0.00    +0.000 OA
BRANCH  11  13
ATOM     13  C   UNL     1       1.605   4.883  20.469  0.00  0.00    +0.000 C 
BRANCH  13  15
ATOM     14  C   UNL     1       1.478   2.640  21.673  0.00  0.00    +0.000 C 
ATOM     15  C   UNL     1       1.743   3.353  20.342  0.00  0.00    +0.000 C 
ATOM     16  C   UNL     1       0.788   2.802  19.281  0.00  0.00    +0.000 C 
ENDBRANCH  13  15
ENDBRANCH  11  13
ENDBRANCH  10  11
ENDBRANCH   1  10
TORSDOF 5
ENDMDL
MODEL 3
REMARK VINA RESULT:      -6.4      1.331      2.350
REMARK  Name = 
REMARK  7 active torsions:
REMARK  status: ('A' for Active; 'I' for Inactive)
REMARK    1  A    between atoms: C_1  and  C_2
REMARK    2  A    between atoms: C_2  and  C_3
REMARK    3  A    between atoms: C_2  and  C_4
REMARK    4  A    between atoms: C_4  and  C_5
REMARK    5  A    between atoms: C_5  and  O_7
REMARK    6  A    between atoms: O_7  and  C_8
REMARK    7  A    between atoms: C_11  and  N_12
REMARK                            x       y       z     vdW  Elec       q    Type
REMARK                         _______ _______ _______ _____ _____    ______ ____
ROOT
ATOM      1  C   UNL     1       4.685   5.065  18.444  0.00  0.00    +0.000 A 
ATOM      2  C   UNL     1       5.829   5.839  18.233  0.00  0.00    +0.000 A 
ATOM      3  C   UNL     1       6.522   5.722  17.021  0.00  0.00    +0.000 A 
ATOM      4  C   UNL     1       6.071   4.819  16.042  0.00  0.00    +0.000 A 
ATOM      5  C   UNL     1       4.937   4.031  16.271  0.00  0.00    +0.000 A 
ATOM      6  C   UNL     1       4.262   4.141  17.478  0.00  0.00    +0.000 A 
ENDROOT
BRANCH   4   7
ATOM      7  N   UNL     1       6.784   4.676  14.771  0.00  0.00    +0.000 N 
ATOM      8  O   UNL     1       7.738   5.442  14.557  0.00  0.00    +0.000 OA
ATOM      9  O   UNL     1       6.404   3.801  13.986  0.00  0.00    +0.000 OA
ENDBRANCH   4   7
BRANCH   1  10
ATOM     10  O   UNL     1       4.037   5.141  19.688  0.00  0.00    +0.000 OA
BRANCH  10  11
ATOM     11  C   UNL     1       2.811   5.808  19.697  0.00  0.00    +0.000 C 
ATOM     12  O   UNL     1       2.541   6.827  19.069  0.00  0.00    +0.000 OA
BRANCH  11  13
ATOM     13  C   UNL     1       1.828   5.057  20.563  0.00  0.00    +0.000 C 
BRANCH  13  15
ATOM     14  C   UNL     1       1.574   2.749  21.615  0.00  0.00    +0.000 C 
ATOM     15  C   UNL     1       1.920   3.534  20.344  0.00  0.00    +0.000 C 
ATOM     16  C   UNL     1       0.993   3.085  19.213  0.00  0.00    +0.000 C 
ENDBRANCH  13  15
ENDBRANCH  11  13
ENDBRANCH  10  11
ENDBRANCH   1  10
TORSDOF 5
ENDMDL
MODEL 4
REMARK VINA RESULT:      -6.4      1.539      2.076
REMARK  Name = 
REMARK  7 active torsions:
REMARK  status: ('A' for Active; 'I' for Inactive)
REMARK    1  A    between atoms: C_1  and  C_2
REMARK    2  A    between atoms: C_2  and  C_3
REMARK    3  A    between atoms: C_2  and  C_4
REMARK    4  A    between atoms: C_4  and  C_5
REMARK    5  A    between atoms: C_5  and  O_7
REMARK    6  A    between atoms: O_7  and  C_8
REMARK    7  A    between atoms: C_11  and  N_12
REMARK                            x       y       z     vdW  Elec       q    Type
REMARK                         _______ _______ _______ _____ _____    ______ ____
ROOT
ATOM      1  C   UNL     1       5.414   5.382  18.151  0.00  0.00    +0.000 A 
ATOM      2  C   UNL     1       4.769   5.991  17.071  0.00  0.00    +0.000 A 
ATOM      3  C   UNL     1       5.292   5.831  15.781  0.00  0.00    +0.000 A 
ATOM      4  C   UNL     1       6.464   5.076  15.591  0.00  0.00    +0.000 A 
ATOM      5  C   UNL     1       7.116   4.490  16.682  0.00  0.00    +0.000 A 
ATOM      6  C   UNL     1       6.601   4.662  17.958  0.00  0.00    +0.000 A 
ENDROOT
BRANCH   4   7
ATOM      7  N   UNL     1       7.030   4.901  14.253  0.00  0.00    +0.000 N 
ATOM      8  O   UNL     1       6.500   4.060  13.508  0.00  0.00    +0.000 OA
ATOM      9  O   UNL     1       7.999   5.601  13.934  0.00  0.00    +0.000 OA
ENDBRANCH   4   7
BRANCH   1  10
ATOM     10  O   UNL     1       4.920   5.605  19.447  0.00  0.00    +0.000 OA
BRANCH  10  11
ATOM     11  C   UNL     1       3.542   5.456  19.608  0.00  0.00    +0.000 C 
ATOM     12  O   UNL     1       2.726   6.366  19.718  0.00  0.00    +0.000 OA
BRANCH  11  13
ATOM     13  C   UNL     1       3.181   3.990  19.577  0.00  0.00    +0.000 C 
BRANCH  13  15
ATOM     14  C   UNL     1       2.519   3.046  17.303  0.00  0.00    +0.000 C 
ATOM     15  C   UNL     1       2.025   3.706  18.596  0.00  0.00    +0.000 C 
ATOM     16  C   UNL     1       0.965   2.812  19.240  0.00  0.00    +0.000 C 
ENDBRANCH  13  15
ENDBRANCH  11  13
ENDBRANCH  10  11
ENDBRANCH   1  10
TORSDOF 5
ENDMDL
MODEL 5
REMARK VINA RESULT:      -6.4      1.523      2.149
REMARK  Name = 
REMARK  7 active torsions:
REMARK  status: ('A' for Active; 'I' for Inactive)
REMARK    1  A    between atoms: C_1  and  C_2
REMARK    2  A    between atoms: C_2  and  C_3
REMARK    3  A    between atoms: C_2  and  C_4
REMARK    4  A    between atoms: C_4  and  C_5
REMARK    5  A    between atoms: C_5  and  O_7
REMARK    6  A    between atoms: O_7  and  C_8
REMARK    7  A    between atoms: C_11  and  N_12
REMARK                            x       y       z     vdW  Elec       q    Type
REMARK                         _______ _______ _______ _____ _____    ______ ____
ROOT
ATOM      1  C   UNL     1       5.358   5.467  18.307  0.00  0.00    +0.000 A 
ATOM      2  C   UNL     1       6.541   4.733  18.182  0.00  0.00    +0.000 A 
ATOM      3  C   UNL     1       7.082   4.516  16.907  0.00  0.00    +0.000 A 
ATOM      4  C   UNL     1       6.422   5.022  15.773  0.00  0.00    +0.000 A 
ATOM      5  C   UNL     1       5.226   5.736  15.906  0.00  0.00    +0.000 A 
ATOM      6  C   UNL     1       4.689   5.937  17.169  0.00  0.00    +0.000 A 
ENDROOT
BRANCH   4   7
ATOM      7  N   UNL     1       6.967   4.801  14.432  0.00  0.00    +0.000 N 
ATOM      8  O   UNL     1       7.915   5.517  14.070  0.00  0.00    +0.000 OA
ATOM      9  O   UNL     1       6.459   3.914  13.737  0.00  0.00    +0.000 OA
ENDBRANCH   4   7
BRANCH   1  10
ATOM     10  O   UNL     1       4.790   5.621  19.582  0.00  0.00    +0.000 OA
BRANCH  10  11
ATOM     11  C   UNL     1       3.409   5.436  19.660  0.00  0.00    +0.000 C 
ATOM     12  O   UNL     1       2.565   6.325  19.718  0.00  0.00    +0.000 OA
BRANCH  11  13
ATOM     13  C   UNL     1       3.088   3.961  19.609  0.00  0.00    +0.000 C 
BRANCH  13  15
ATOM     14  C   UNL     1       2.539   2.901  17.357  0.00  0.00    +0.000 C 
ATOM     15  C   UNL     1       1.987   3.651  18.575  0.00  0.00    +0.000 C 
ATOM     16  C   UNL     1       0.862   2.825  19.202  0.00  0.00    +0.000 C 
ENDBRANCH  13  15
ENDBRANCH  11  13
ENDBRANCH  10  11
ENDBRANCH   1  10
TORSDOF 5
ENDMDL
MODEL 6
REMARK VINA RESULT:      -6.4      1.994      2.592
REMARK  Name = 
REMARK  7 active torsions:
REMARK  status: ('A' for Active; 'I' for Inactive)
REMARK    1  A    between atoms: C_1  and  C_2
REMARK    2  A    between atoms: C_2  and  C_3
REMARK    3  A    between atoms: C_2  and  C_4
REMARK    4  A    between atoms: C_4  and  C_5
REMARK    5  A    between atoms: C_5  and  O_7
REMARK    6  A    between atoms: O_7  and  C_8
REMARK    7  A    between atoms: C_11  and  N_12
REMARK                            x       y       z     vdW  Elec       q    Type
REMARK                         _______ _______ _______ _____ _____    ______ ____
ROOT
ATOM      1  C   UNL     1       4.017   3.934  17.430  0.00  0.00    +0.000 A 
ATOM      2  C   UNL     1       4.944   3.885  16.386  0.00  0.00    +0.000 A 
ATOM      3  C   UNL     1       6.072   4.715  16.432  0.00  0.00    +0.000 A 
ATOM      4  C   UNL     1       6.248   5.595  17.514  0.00  0.00    +0.000 A 
ATOM      5  C   UNL     1       5.302   5.654  18.543  0.00  0.00    +0.000 A 
ATOM      6  C   UNL     1       4.181   4.840  18.487  0.00  0.00    +0.000 A 
ENDROOT
BRANCH   4   7
ATOM      7  N   UNL     1       7.416   6.476  17.579  0.00  0.00    +0.000 N 
ATOM      8  O   UNL     1       7.748   7.072  16.540  0.00  0.00    +0.000 OA
ATOM      9  O   UNL     1       8.004   6.584  18.661  0.00  0.00    +0.000 OA
ENDBRANCH   4   7
BRANCH   1  10
ATOM     10  O   UNL     1       2.856   3.147  17.340  0.00  0.00    +0.000 OA
BRANCH  10  11
ATOM     11  C   UNL     1       2.720   2.150  18.307  0.00  0.00    +0.000 C 
ATOM     12  O   UNL     1       3.498   1.220  18.498  0.00  0.00    +0.000 OA
BRANCH  11  13
ATOM     13  C   UNL     1       1.484   2.409  19.136  0.00  0.00    +0.000 C 
BRANCH  13  15
ATOM     14  C   UNL     1       0.990   4.561  20.409  0.00  0.00    +0.000 C 
ATOM     15  C   UNL     1       1.800   3.260  20.382  0.00  0.00    +0.000 C 
ATOM     16  C   UNL     1       1.527   2.475  21.666  0.00  0.00    +0.000 C 
ENDBRANCH  13  15
ENDBRANCH  11  13
ENDBRANCH  10  11
ENDBRANCH   1  10
TORSDOF 5
ENDMDL
MODEL 7
REMARK VINA RESULT:      -6.4      1.670      2.471
REMARK  Name = 
REMARK  7 active torsions:
REMARK  status: ('A' for Active; 'I' for Inactive)
REMARK    1  A    between atoms: C_1  and  C_2
REMARK    2  A    between atoms: C_2  and  C_3
REMARK    3  A    between atoms: C_2  and  C_4
REMARK    4  A    between atoms: C_4  and  C_5
REMARK    5  A    between atoms: C_5  and  O_7
REMARK    6  A    between atoms: O_7  and  C_8
REMARK    7  A    between atoms: C_11  and  N_12
REMARK                            x       y       z     vdW  Elec       q    Type
REMARK                         _______ _______ _______ _____ _____    ______ ____
ROOT
ATOM      1  C   UNL     1       3.875   5.237  17.642  0.00  0.00    +0.000 A 
ATOM      2  C   UNL     1       4.285   3.947  17.293  0.00  0.00    +0.000 A 
ATOM      3  C   UNL     1       5.222   3.781  16.264  0.00  0.00    +0.000 A 
ATOM      4  C   UNL     1       5.724   4.907  15.587  0.00  0.00    +0.000 A 
ATOM      5  C   UNL     1       5.289   6.193  15.928  0.00  0.00    +0.000 A 
ATOM      6  C   UNL     1       4.353   6.351  16.938  0.00  0.00    +0.000 A 
ENDROOT
BRANCH   4   7
ATOM      7  N   UNL     1       6.698   4.755  14.505  0.00  0.00    +0.000 N 
ATOM      8  O   UNL     1       6.447   3.926  13.614  0.00  0.00    +0.000 OA
ATOM      9  O   UNL     1       7.713   5.461  14.532  0.00  0.00    +0.000 OA
ENDBRANCH   4   7
BRANCH   1  10
ATOM     10  O   UNL     1       2.886   5.388  18.628  0.00  0.00    +0.000 OA
BRANCH  10  11
ATOM     11  C   UNL     1       1.703   4.679  18.417  0.00  0.00    +0.000 C 
ATOM     12  O   UNL     1       1.176   4.464  17.330  0.00  0.00    +0.000 OA
BRANCH  11  13
ATOM     13  C   UNL     1       1.177   4.161  19.735  0.00  0.00    +0.000 C 
BRANCH  13  15
ATOM     14  C   UNL     1       1.584   2.555  21.672  0.00  0.00    +0.000 C 
ATOM     15  C   UNL     1       2.040   3.005  20.279  0.00  0.00    +0.000 C 
ATOM     16  C   UNL     1       2.009   1.804  19.332  0.00  0.00    +0.000 C 
ENDBRANCH  13  15
ENDBRANCH  11  13
ENDBRANCH  10  11
ENDBRANCH   1  10
TORSDOF 5
ENDMDL
MODEL 8
REMARK VINA RESULT:      -6.4      0.671      1.247
REMARK  Name = 
REMARK  7 active torsions:
REMARK  status: ('A' for Active; 'I' for Inactive)
REMARK    1  A    between atoms: C_1  and  C_2
REMARK    2  A    between atoms: C_2  and  C_3
REMARK    3  A    between atoms: C_2  and  C_4
REMARK    4  A    between atoms: C_4  and  C_5
REMARK    5  A    between atoms: C_5  and  O_7
REMARK    6  A    between atoms: O_7  and  C_8
REMARK    7  A    between atoms: C_11  and  N_12
REMARK                            x       y       z     vdW  Elec       q    Type
REMARK                         _______ _______ _______ _____ _____    ______ ____
ROOT
ATOM      1  C   UNL     1       4.975   4.154  18.057  0.00  0.00    +0.000 A 
ATOM      2  C   UNL     1       4.264   4.139  16.854  0.00  0.00    +0.000 A 
ATOM      3  C   UNL     1       4.952   4.326  15.648  0.00  0.00    +0.000 A 
ATOM      4  C   UNL     1       6.341   4.544  15.663  0.00  0.00    +0.000 A 
ATOM      5  C   UNL     1       7.042   4.581  16.874  0.00  0.00    +0.000 A 
ATOM      6  C   UNL     1       6.353   4.408  18.065  0.00  0.00    +0.000 A 
ENDROOT
BRANCH   4   7
ATOM      7  N   UNL     1       7.079   4.748  14.415  0.00  0.00    +0.000 N 
ATOM      8  O   UNL     1       6.780   4.032  13.444  0.00  0.00    +0.000 OA
ATOM      9  O   UNL     1       7.953   5.622  14.391  0.00  0.00    +0.000 OA
ENDBRANCH   4   7
BRANCH   1  10
ATOM     10  O   UNL     1       4.266   4.033  19.263  0.00  0.00    +0.000 OA
BRANCH  10  11
ATOM     11  C   UNL     1       4.077   2.732  19.731  0.00  0.00    +0.000 C 
ATOM     12  O   UNL     1       4.892   2.068  20.363  0.00  0.00    +0.000 OA
BRANCH  11  13
ATOM     13  C   UNL     1       2.682   2.264  19.388  0.00  0.00    +0.000 C 
BRANCH  13  15
ATOM     14  C   UNL     1       2.259   2.753  21.854  0.00  0.00    +0.000 C 
ATOM     15  C   UNL     1       1.653   2.711  20.446  0.00  0.00    +0.000 C 
ATOM     16  C   UNL     1       1.081   4.089  20.107  0.00  0.00    +0.000 C 
ENDBRANCH  13  15
ENDBRANCH  11  13
ENDBRANCH  10  11
ENDBRANCH   1  10
TORSDOF 5
ENDMDL
MODEL 9
REMARK VINA RESULT:      -6.3      1.163      1.772
REMARK  Name = 
REMARK  7 active torsions:
REMARK  status: ('A' for Active; 'I' for Inactive)
REMARK    1  A    between atoms: C_1  and  C_2
REMARK    2  A    between atoms: C_2  and  C_3
REMARK    3  A    between atoms: C_2  and  C_4
REMARK    4  A    between atoms: C_4  and  C_5
REMARK    5  A    between atoms: C_5  and  O_7
REMARK    6  A    between atoms: O_7  and  C_8
REMARK    7  A    between atoms: C_11  and  N_12
REMARK                            x       y       z     vdW  Elec       q    Type
REMARK                         _______ _______ _______ _____ _____    ______ ____
ROOT
ATOM      1  C   UNL     1       5.537   4.911  17.900  0.00  0.00    +0.000 A 
ATOM      2  C   UNL     1       6.892   4.620  17.725  0.00  0.00    +0.000 A 
ATOM      3  C   UNL     1       7.433   4.624  16.432  0.00  0.00    +0.000 A 
ATOM      4  C   UNL     1       6.606   4.904  15.330  0.00  0.00    +0.000 A 
ATOM      5  C   UNL     1       5.245   5.172  15.512  0.00  0.00    +0.000 A 
ATOM      6  C   UNL     1       4.712   5.154  16.793  0.00  0.00    +0.000 A 
ENDROOT
BRANCH   4   7
ATOM      7  N   UNL     1       7.150   4.908  13.970  0.00  0.00    +0.000 N 
ATOM      8  O   UNL     1       8.091   5.682  13.728  0.00  0.00    +0.000 OA
ATOM      9  O   UNL     1       6.649   4.140  13.141  0.00  0.00    +0.000 OA
ENDBRANCH   4   7
BRANCH   1  10
ATOM     10  O   UNL     1       4.990   4.838  19.192  0.00  0.00    +0.000 OA
BRANCH  10  11
ATOM     11  C   UNL     1       4.420   3.613  19.544  0.00  0.00    +0.000 C 
ATOM     12  O   UNL     1       5.029   2.616  19.917  0.00  0.00    +0.000 OA
BRANCH  11  13
ATOM     13  C   UNL     1       2.916   3.705  19.447  0.00  0.00    +0.000 C 
BRANCH  13  15
ATOM     14  C   UNL     1       1.546   5.444  20.710  0.00  0.00    +0.000 C 
ATOM     15  C   UNL     1       2.280   4.101  20.795  0.00  0.00    +0.000 C 
ATOM     16  C   UNL     1       1.303   3.028  21.277  0.00  0.00    +0.000 C 
ENDBRANCH  13  15
ENDBRANCH  11  13
ENDBRANCH  10  11
ENDBRANCH   1  10
TORSDOF 5
ENDMDL
