MODEL 1
REMARK VINA RESULT:      -8.3      0.000      0.000
REMARK  Name = 
REMARK  5 active torsions:
REMARK  status: ('A' for Active; 'I' for Inactive)
REMARK    1  A    between atoms: C_2  and  C_3
REMARK    2  A    between atoms: C_7  and  N_8
REMARK    3  A    between atoms: N_11  and  C_12
REMARK    4  A    between atoms: C_15  and  C_16
REMARK    5  A    between atoms: C_19  and  C_20
REMARK                            x       y       z     vdW  Elec       q    Type
REMARK                         _______ _______ _______ _____ _____    ______ ____
ROOT
ATOM      1  C   UNL     1       0.534   9.124  20.413  0.00  0.00    +0.000 A 
ATOM      2  C   UNL     1       0.922   8.016  21.162  0.00  0.00    +0.000 A 
ATOM      3  C   UNL     1       1.847   7.100  20.643  0.00  0.00    +0.000 A 
ATOM      4  C   UNL     1       2.422   7.280  19.374  0.00  0.00    +0.000 A 
ATOM      5  C   UNL     1       2.041   8.409  18.638  0.00  0.00    +0.000 A 
ATOM      6  C   UNL     1       1.079   9.306  19.141  0.00  0.00    +0.000 A 
ENDROOT
BRANCH   1  10
ATOM      7  N   UNL     1      -1.060  12.066  21.841  0.00  0.00    +0.000 N 
ATOM      8  C   UNL     1       0.002  11.314  21.367  0.00  0.00    +0.000 C 
ATOM      9  O   UNL     1       1.164  11.703  21.329  0.00  0.00    +0.000 OA
ATOM     10  N   UNL     1      -0.398  10.065  20.910  0.00  0.00    +0.000 N 
ATOM     11  H   UNL     1      -1.832  11.537  22.225  0.00  0.00    +0.000 HD
ATOM     12  H   UNL     1      -1.323  10.052  20.496  0.00  0.00    +0.000 HD
BRANCH   7  17
ATOM     13  C   UNL     1      -1.052  15.181  23.881  0.00  0.00    +0.000 A 
ATOM     14  C   UNL     1      -0.777  16.153  22.913  0.00  0.00    +0.000 A 
ATOM     15  C   UNL     1      -0.630  15.779  21.583  0.00  0.00    +0.000 A 
ATOM     16  C   UNL     1      -0.736  14.434  21.221  0.00  0.00    +0.000 A 
ATOM     17  C   UNL     1      -0.980  13.441  22.181  0.00  0.00    +0.000 A 
ATOM     18  C   UNL     1      -1.166  13.830  23.513  0.00  0.00    +0.000 A 
BRANCH  13  20
ATOM     19  N   UNL     1      -1.315  15.890  26.363  0.00  0.00    +0.000 NA
ATOM     20  C   UNL     1      -1.203  15.574  25.255  0.00  0.00    +0.000 C 
ENDBRANCH  13  20
ENDBRANCH   7  17
ENDBRANCH   1  10
BRANCH   4  21
ATOM     21  C   UNL     1       3.386   6.289  18.874  0.00  0.00    +0.000 A 
ATOM     22  C   UNL     1       4.082   5.391  19.665  0.00  0.00    +0.000 A 
ATOM     23  S   UNL     1       5.222   4.452  18.768  0.00  0.00    +0.000 S 
ATOM     24  C   UNL     1       4.816   5.231  17.311  0.00  0.00    +0.000 A 
ATOM     25  C   UNL     1       3.797   6.143  17.516  0.00  0.00    +0.000 A 
BRANCH  24  26
ATOM     26  C   UNL     1       5.413   5.023  16.024  0.00  0.00    +0.000 A 
ATOM     27  N   UNL     1       4.909   4.129  15.199  0.00  0.00    +0.000 NA
ATOM     28  C   UNL     1       5.707   4.141  14.098  0.00  0.00    +0.000 A 
ATOM     29  C   UNL     1       5.606   3.360  12.946  0.00  0.00    +0.000 A 
ATOM     30  C   UNL     1       6.563   3.517  11.944  0.00  0.00    +0.000 A 
ATOM     31  C   UNL     1       7.599   4.443  12.099  0.00  0.00    +0.000 A 
ATOM     32  C   UNL     1       7.703   5.251  13.245  0.00  0.00    +0.000 A 
ATOM     33  C   UNL     1       6.731   5.070  14.234  0.00  0.00    +0.000 A 
ATOM     34  N   UNL     1       6.495   5.655  15.463  0.00  0.00    +0.000 N 
ATOM     35  H   UNL     1       7.028   6.401  15.881  0.00  0.00    +0.000 HD
ENDBRANCH  24  26
ENDBRANCH   4  21
TORSDOF 5
ENDMDL
MODEL 2
REMARK VINA RESULT:      -8.3      0.355      1.369
REMARK  Name = 
REMARK  5 active torsions:
REMARK  status: ('A' for Active; 'I' for Inactive)
REMARK    1  A    between atoms: C_2  and  C_3
REMARK    2  A    between atoms: C_7  and  N_8
REMARK    3  A    between atoms: N_11  and  C_12
REMARK    4  A    between atoms: C_15  and  C_16
REMARK    5  A    between atoms: C_19  and  C_20
REMARK                            x       y       z     vdW  Elec       q    Type
REMARK                         _______ _______ _______ _____ _____    ______ ____
ROOT
ATOM      1  C   UNL     1       0.699   9.331  20.073  0.00  0.00    +0.000 A 
ATOM      2  C   UNL     1       1.269   9.364  18.803  0.00  0.00    +0.000 A 
ATOM      3  C   UNL     1       2.168   8.364  18.406  0.00  0.00    +0.000 A 
ATOM      4  C   UNL     1       2.499   7.298  19.258  0.00  0.00    +0.000 A 
ATOM      5  C   UNL     1       1.903   7.263  20.525  0.00  0.00    +0.000 A 
ATOM      6  C   UNL     1       1.034   8.291  20.940  0.00  0.00    +0.000 A 
ENDROOT
BRANCH   1  10
ATOM      7  N   UNL     1      -0.829  12.304  21.512  0.00  0.00    +0.000 N 
ATOM      8  C   UNL     1       0.221  11.478  21.148  0.00  0.00    +0.000 C 
ATOM      9  O   UNL     1       1.404  11.734  21.347  0.00  0.00    +0.000 OA
ATOM     10  N   UNL     1      -0.211  10.328  20.502  0.00  0.00    +0.000 N 
ATOM     11  H   UNL     1      -1.706  11.836  21.701  0.00  0.00    +0.000 HD
ATOM     12  H   UNL     1      -1.043  10.456  19.938  0.00  0.00    +0.000 HD
BRANCH   7  17
ATOM     13  C   UNL     1      -0.867  15.208  23.841  0.00  0.00    +0.000 A 
ATOM     14  C   UNL     1      -0.342  16.225  23.036  0.00  0.00    +0.000 A 
ATOM     15  C   UNL     1      -0.010  15.954  21.714  0.00  0.00    +0.000 A 
ATOM     16  C   UNL     1      -0.182  14.667  21.202  0.00  0.00    +0.000 A 
ATOM     17  C   UNL     1      -0.677  13.627  22.002  0.00  0.00    +0.000 A 
ATOM     18  C   UNL     1      -1.046  13.915  23.321  0.00  0.00    +0.000 A 
BRANCH  13  20
ATOM     19  N   UNL     1      -1.474  15.725  26.311  0.00  0.00    +0.000 NA
ATOM     20  C   UNL     1      -1.208  15.493  25.208  0.00  0.00    +0.000 C 
ENDBRANCH  13  20
ENDBRANCH   7  17
ENDBRANCH   1  10
BRANCH   4  21
ATOM     21  C   UNL     1       3.448   6.274  18.795  0.00  0.00    +0.000 A 
ATOM     22  C   UNL     1       4.131   5.396  19.619  0.00  0.00    +0.000 A 
ATOM     23  S   UNL     1       5.255   4.407  18.757  0.00  0.00    +0.000 S 
ATOM     24  C   UNL     1       4.859   5.135  17.272  0.00  0.00    +0.000 A 
ATOM     25  C   UNL     1       3.854   6.070  17.444  0.00  0.00    +0.000 A 
BRANCH  24  26
ATOM     26  C   UNL     1       5.450   4.870  15.994  0.00  0.00    +0.000 A 
ATOM     27  N   UNL     1       6.460   5.600  15.568  0.00  0.00    +0.000 NA
ATOM     28  C   UNL     1       6.765   5.135  14.327  0.00  0.00    +0.000 A 
ATOM     29  C   UNL     1       7.750   5.590  13.450  0.00  0.00    +0.000 A 
ATOM     30  C   UNL     1       7.868   4.981  12.201  0.00  0.00    +0.000 A 
ATOM     31  C   UNL     1       7.011   3.935  11.845  0.00  0.00    +0.000 A 
ATOM     32  C   UNL     1       6.027   3.452  12.726  0.00  0.00    +0.000 A 
ATOM     33  C   UNL     1       5.932   4.083  13.970  0.00  0.00    +0.000 A 
ATOM     34  N   UNL     1       5.122   3.904  15.076  0.00  0.00    +0.000 N 
ATOM     35  H   UNL     1       4.410   3.199  15.185  0.00  0.00    +0.000 HD
ENDBRANCH  24  26
ENDBRANCH   4  21
TORSDOF 5
ENDMDL
MODEL 3
REMARK VINA RESULT:      -8.2      1.189      1.859
REMARK  Name = 
REMARK  5 active torsions:
REMARK  status: ('A' for Active; 'I' for Inactive)
REMARK    1  A    between atoms: C_2  and  C_3
REMARK    2  A    between atoms: C_7  and  N_8
REMARK    3  A    between atoms: N_11  and  C_12
REMARK    4  A    between atoms: C_15  and  C_16
REMARK    5  A    between atoms: C_19  and  C_20
REMARK                            x       y       z     vdW  Elec       q    Type
REMARK                         _______ _______ _______ _____ _____    ______ ____
ROOT
ATOM      1  C   UNL     1       0.546   9.504  19.957  0.00  0.00    +0.000 A 
ATOM      2  C   UNL     1       1.083   9.505  18.672  0.00  0.00    +0.000 A 
ATOM      3  C   UNL     1       2.000   8.518  18.288  0.00  0.00    +0.000 A 
ATOM      4  C   UNL     1       2.385   7.494  19.169  0.00  0.00    +0.000 A 
ATOM      5  C   UNL     1       1.823   7.489  20.451  0.00  0.00    +0.000 A 
ATOM      6  C   UNL     1       0.935   8.506  20.852  0.00  0.00    +0.000 A 
ENDROOT
BRANCH   1  10
ATOM      7  N   UNL     1      -1.064  12.383  21.492  0.00  0.00    +0.000 N 
ATOM      8  C   UNL     1       0.001  11.557  21.173  0.00  0.00    +0.000 C 
ATOM      9  O   UNL     1       1.158  11.748  21.532  0.00  0.00    +0.000 OA
ATOM     10  N   UNL     1      -0.381  10.488  20.373  0.00  0.00    +0.000 N 
ATOM     11  H   UNL     1      -1.968  11.932  21.534  0.00  0.00    +0.000 HD
ATOM     12  H   UNL     1      -1.137  10.700  19.732  0.00  0.00    +0.000 HD
BRANCH   7  17
ATOM     13  C   UNL     1      -0.423  16.021  21.962  0.00  0.00    +0.000 A 
ATOM     14  C   UNL     1      -0.719  16.188  23.319  0.00  0.00    +0.000 A 
ATOM     15  C   UNL     1      -1.096  15.090  24.083  0.00  0.00    +0.000 A 
ATOM     16  C   UNL     1      -1.198  13.830  23.489  0.00  0.00    +0.000 A 
ATOM     17  C   UNL     1      -0.936  13.647  22.123  0.00  0.00    +0.000 A 
ATOM     18  C   UNL     1      -0.519  14.750  21.369  0.00  0.00    +0.000 A 
BRANCH  13  20
ATOM     19  N   UNL     1       0.273  18.083  20.550  0.00  0.00    +0.000 NA
ATOM     20  C   UNL     1      -0.035  17.160  21.177  0.00  0.00    +0.000 C 
ENDBRANCH  13  20
ENDBRANCH   7  17
ENDBRANCH   1  10
BRANCH   4  21
ATOM     21  C   UNL     1       3.352   6.482  18.719  0.00  0.00    +0.000 A 
ATOM     22  C   UNL     1       4.036   5.613  19.552  0.00  0.00    +0.000 A 
ATOM     23  S   UNL     1       5.182   4.637  18.704  0.00  0.00    +0.000 S 
ATOM     24  C   UNL     1       4.795   5.359  17.213  0.00  0.00    +0.000 A 
ATOM     25  C   UNL     1       3.777   6.281  17.372  0.00  0.00    +0.000 A 
BRANCH  24  26
ATOM     26  C   UNL     1       5.405   5.100  15.943  0.00  0.00    +0.000 A 
ATOM     27  N   UNL     1       4.885   4.203  15.131  0.00  0.00    +0.000 NA
ATOM     28  C   UNL     1       5.700   4.161  14.044  0.00  0.00    +0.000 A 
ATOM     29  C   UNL     1       5.591   3.356  12.909  0.00  0.00    +0.000 A 
ATOM     30  C   UNL     1       6.569   3.456  11.920  0.00  0.00    +0.000 A 
ATOM     31  C   UNL     1       7.634   4.349  12.070  0.00  0.00    +0.000 A 
ATOM     32  C   UNL     1       7.746   5.182  13.199  0.00  0.00    +0.000 A 
ATOM     33  C   UNL     1       6.753   5.058  14.174  0.00  0.00    +0.000 A 
ATOM     34  N   UNL     1       6.517   5.681  15.385  0.00  0.00    +0.000 N 
ATOM     35  H   UNL     1       7.068   6.419  15.794  0.00  0.00    +0.000 HD
ENDBRANCH  24  26
ENDBRANCH   4  21
TORSDOF 5
ENDMDL
MODEL 4
REMARK VINA RESULT:      -8.2      1.177      2.146
REMARK  Name = 
REMARK  5 active torsions:
REMARK  status: ('A' for Active; 'I' for Inactive)
REMARK    1  A    between atoms: C_2  and  C_3
REMARK    2  A    between atoms: C_7  and  N_8
REMARK    3  A    between atoms: N_11  and  C_12
REMARK    4  A    between atoms: C_15  and  C_16
REMARK    5  A    between atoms: C_19  and  C_20
REMARK                            x       y       z     vdW  Elec       q    Type
REMARK                         _______ _______ _______ _____ _____    ______ ____
ROOT
ATOM      1  C   UNL     1       0.626   9.348  19.978  0.00  0.00    +0.000 A 
ATOM      2  C   UNL     1       1.220   9.379  18.719  0.00  0.00    +0.000 A 
ATOM      3  C   UNL     1       2.130   8.382  18.342  0.00  0.00    +0.000 A 
ATOM      4  C   UNL     1       2.452   7.321  19.205  0.00  0.00    +0.000 A 
ATOM      5  C   UNL     1       1.833   7.288  20.460  0.00  0.00    +0.000 A 
ATOM      6  C   UNL     1       0.951   8.313  20.856  0.00  0.00    +0.000 A 
ENDROOT
BRANCH   1  10
ATOM      7  N   UNL     1      -0.963  12.264  21.466  0.00  0.00    +0.000 N 
ATOM      8  C   UNL     1       0.098  11.433  21.147  0.00  0.00    +0.000 C 
ATOM      9  O   UNL     1       1.262  11.638  21.475  0.00  0.00    +0.000 OA
ATOM     10  N   UNL     1      -0.297  10.341  20.386  0.00  0.00    +0.000 N 
ATOM     11  H   UNL     1      -1.864  11.812  21.539  0.00  0.00    +0.000 HD
ATOM     12  H   UNL     1      -1.067  10.531  19.756  0.00  0.00    +0.000 HD
BRANCH   7  17
ATOM     13  C   UNL     1      -0.213  15.892  21.844  0.00  0.00    +0.000 A 
ATOM     14  C   UNL     1      -0.589  16.122  23.172  0.00  0.00    +0.000 A 
ATOM     15  C   UNL     1      -1.056  15.068  23.948  0.00  0.00    +0.000 A 
ATOM     16  C   UNL     1      -1.168  13.791  23.396  0.00  0.00    +0.000 A 
ATOM     17  C   UNL     1      -0.827  13.546  22.057  0.00  0.00    +0.000 A 
ATOM     18  C   UNL     1      -0.320  14.603  21.292  0.00  0.00    +0.000 A 
BRANCH  13  20
ATOM     19  N   UNL     1       0.655  17.860  20.394  0.00  0.00    +0.000 NA
ATOM     20  C   UNL     1       0.269  16.985  21.045  0.00  0.00    +0.000 C 
ENDBRANCH  13  20
ENDBRANCH   7  17
ENDBRANCH   1  10
BRANCH   4  21
ATOM     21  C   UNL     1       3.414   6.301  18.763  0.00  0.00    +0.000 A 
ATOM     22  C   UNL     1       4.120   5.459  19.606  0.00  0.00    +0.000 A 
ATOM     23  S   UNL     1       5.253   4.464  18.764  0.00  0.00    +0.000 S 
ATOM     24  C   UNL     1       4.834   5.143  17.261  0.00  0.00    +0.000 A 
ATOM     25  C   UNL     1       3.814   6.065  17.415  0.00  0.00    +0.000 A 
BRANCH  24  26
ATOM     26  C   UNL     1       5.419   4.851  15.987  0.00  0.00    +0.000 A 
ATOM     27  N   UNL     1       6.463   5.536  15.567  0.00  0.00    +0.000 NA
ATOM     28  C   UNL     1       6.754   5.057  14.328  0.00  0.00    +0.000 A 
ATOM     29  C   UNL     1       7.763   5.467  13.456  0.00  0.00    +0.000 A 
ATOM     30  C   UNL     1       7.860   4.853  12.207  0.00  0.00    +0.000 A 
ATOM     31  C   UNL     1       6.960   3.846  11.846  0.00  0.00    +0.000 A 
ATOM     32  C   UNL     1       5.950   3.408  12.723  0.00  0.00    +0.000 A 
ATOM     33  C   UNL     1       5.877   4.043  13.966  0.00  0.00    +0.000 A 
ATOM     34  N   UNL     1       5.054   3.900  15.067  0.00  0.00    +0.000 N 
ATOM     35  H   UNL     1       4.310   3.228  15.173  0.00  0.00    +0.000 HD
ENDBRANCH  24  26
ENDBRANCH   4  21
TORSDOF 5
ENDMDL
MODEL 5
REMARK VINA RESULT:      -8.2      2.956      3.612
REMARK  Name = 
REMARK  5 active torsions:
REMARK  status: ('A' for Active; 'I' for Inactive)
REMARK    1  A    between atoms: C_2  and  C_3
REMARK    2  A    between atoms: C_7  and  N_8
REMARK    3  A    between atoms: N_11  and  C_12
REMARK    4  A    between atoms: C_15  and  C_16
REMARK    5  A    between atoms: C_19  and  C_20
REMARK                            x       y       z     vdW  Elec       q    Type
REMARK                         _______ _______ _______ _____ _____    ______ ____
ROOT
ATOM      1  C   UNL     1       0.644   9.772  19.480  0.00  0.00    +0.000 A 
ATOM      2  C   UNL     1       1.212   9.679  18.211  0.00  0.00    +0.000 A 
ATOM      3  C   UNL     1       2.104   8.640  17.911  0.00  0.00    +0.000 A 
ATOM      4  C   UNL     1       2.432   7.660  18.862  0.00  0.00    +0.000 A 
ATOM      5  C   UNL     1       1.838   7.751  20.127  0.00  0.00    +0.000 A 
ATOM      6  C   UNL     1       0.976   8.819  20.443  0.00  0.00    +0.000 A 
ENDROOT
BRANCH   1  10
ATOM      7  N   UNL     1      -2.243  11.977  19.698  0.00  0.00    +0.000 N 
ATOM      8  C   UNL     1      -1.536  10.866  19.268  0.00  0.00    +0.000 C 
ATOM      9  O   UNL     1      -1.982  10.011  18.511  0.00  0.00    +0.000 OA
ATOM     10  N   UNL     1      -0.260  10.810  19.812  0.00  0.00    +0.000 N 
ATOM     11  H   UNL     1      -1.684  12.787  19.929  0.00  0.00    +0.000 HD
ATOM     12  H   UNL     1      -0.191  11.189  20.749  0.00  0.00    +0.000 HD
BRANCH   7  17
ATOM     13  C   UNL     1      -5.787  12.964  20.271  0.00  0.00    +0.000 A 
ATOM     14  C   UNL     1      -6.369  12.665  19.034  0.00  0.00    +0.000 A 
ATOM     15  C   UNL     1      -5.593  12.106  18.026  0.00  0.00    +0.000 A 
ATOM     16  C   UNL     1      -4.235  11.864  18.243  0.00  0.00    +0.000 A 
ATOM     17  C   UNL     1      -3.627  12.185  19.465  0.00  0.00    +0.000 A 
ATOM     18  C   UNL     1      -4.422  12.711  20.490  0.00  0.00    +0.000 A 
BRANCH  13  20
ATOM     19  N   UNL     1      -7.235  14.014  22.152  0.00  0.00    +0.000 NA
ATOM     20  C   UNL     1      -6.593  13.543  21.311  0.00  0.00    +0.000 C 
ENDBRANCH  13  20
ENDBRANCH   7  17
ENDBRANCH   1  10
BRANCH   4  21
ATOM     21  C   UNL     1       3.374   6.591  18.498  0.00  0.00    +0.000 A 
ATOM     22  C   UNL     1       4.034   5.776  19.401  0.00  0.00    +0.000 A 
ATOM     23  S   UNL     1       5.158   4.707  18.640  0.00  0.00    +0.000 S 
ATOM     24  C   UNL     1       4.793   5.317  17.094  0.00  0.00    +0.000 A 
ATOM     25  C   UNL     1       3.798   6.273  17.174  0.00  0.00    +0.000 A 
BRANCH  24  26
ATOM     26  C   UNL     1       5.400   4.942  15.851  0.00  0.00    +0.000 A 
ATOM     27  N   UNL     1       6.448   5.601  15.402  0.00  0.00    +0.000 NA
ATOM     28  C   UNL     1       6.760   5.040  14.203  0.00  0.00    +0.000 A 
ATOM     29  C   UNL     1       7.782   5.395  13.321  0.00  0.00    +0.000 A 
ATOM     30  C   UNL     1       7.900   4.698  12.119  0.00  0.00    +0.000 A 
ATOM     31  C   UNL     1       7.008   3.666  11.812  0.00  0.00    +0.000 A 
ATOM     32  C   UNL     1       5.986   3.284  12.701  0.00  0.00    +0.000 A 
ATOM     33  C   UNL     1       5.891   4.001  13.897  0.00  0.00    +0.000 A 
ATOM     34  N   UNL     1       5.052   3.930  14.992  0.00  0.00    +0.000 N 
ATOM     35  H   UNL     1       4.308   3.263  15.132  0.00  0.00    +0.000 HD
ENDBRANCH  24  26
ENDBRANCH   4  21
TORSDOF 5
ENDMDL
MODEL 6
REMARK VINA RESULT:      -8.1      1.483      2.567
REMARK  Name = 
REMARK  5 active torsions:
REMARK  status: ('A' for Active; 'I' for Inactive)
REMARK    1  A    between atoms: C_2  and  C_3
REMARK    2  A    between atoms: C_7  and  N_8
REMARK    3  A    between atoms: N_11  and  C_12
REMARK    4  A    between atoms: C_15  and  C_16
REMARK    5  A    between atoms: C_19  and  C_20
REMARK                            x       y       z     vdW  Elec       q    Type
REMARK                         _______ _______ _______ _____ _____    ______ ____
ROOT
ATOM      1  C   UNL     1       0.626   9.531  19.860  0.00  0.00    +0.000 A 
ATOM      2  C   UNL     1       1.139   9.461  18.567  0.00  0.00    +0.000 A 
ATOM      3  C   UNL     1       2.025   8.434  18.213  0.00  0.00    +0.000 A 
ATOM      4  C   UNL     1       2.401   7.442  19.134  0.00  0.00    +0.000 A 
ATOM      5  C   UNL     1       1.862   7.510  20.424  0.00  0.00    +0.000 A 
ATOM      6  C   UNL     1       1.007   8.566  20.793  0.00  0.00    +0.000 A 
ENDROOT
BRANCH   1  10
ATOM      7  N   UNL     1      -0.855  12.676  20.936  0.00  0.00    +0.000 N 
ATOM      8  C   UNL     1       0.177  11.836  20.550  0.00  0.00    +0.000 C 
ATOM      9  O   UNL     1       1.351  12.178  20.460  0.00  0.00    +0.000 OA
ATOM     10  N   UNL     1      -0.269  10.557  20.247  0.00  0.00    +0.000 N 
ATOM     11  H   UNL     1      -1.641  12.223  21.384  0.00  0.00    +0.000 HD
ATOM     12  H   UNL     1      -1.197  10.527  19.841  0.00  0.00    +0.000 HD
BRANCH   7  17
ATOM     13  C   UNL     1      -0.830  16.319  20.166  0.00  0.00    +0.000 A 
ATOM     14  C   UNL     1      -0.530  16.871  21.416  0.00  0.00    +0.000 A 
ATOM     15  C   UNL     1      -0.303  16.035  22.502  0.00  0.00    +0.000 A 
ATOM     16  C   UNL     1      -0.395  14.650  22.347  0.00  0.00    +0.000 A 
ATOM     17  C   UNL     1      -0.725  14.078  21.110  0.00  0.00    +0.000 A 
ATOM     18  C   UNL     1      -0.914  14.924  20.011  0.00  0.00    +0.000 A 
BRANCH  13  20
ATOM     19  N   UNL     1      -1.259  17.894  18.149  0.00  0.00    +0.000 NA
ATOM     20  C   UNL     1      -1.065  17.188  19.046  0.00  0.00    +0.000 C 
ENDBRANCH  13  20
ENDBRANCH   7  17
ENDBRANCH   1  10
BRANCH   4  21
ATOM     21  C   UNL     1       3.334   6.387  18.713  0.00  0.00    +0.000 A 
ATOM     22  C   UNL     1       3.977   5.509  19.570  0.00  0.00    +0.000 A 
ATOM     23  S   UNL     1       5.094   4.475  18.754  0.00  0.00    +0.000 S 
ATOM     24  C   UNL     1       4.751   5.182  17.246  0.00  0.00    +0.000 A 
ATOM     25  C   UNL     1       3.765   6.145  17.376  0.00  0.00    +0.000 A 
BRANCH  24  26
ATOM     26  C   UNL     1       5.364   4.877  15.987  0.00  0.00    +0.000 A 
ATOM     27  N   UNL     1       6.402   5.572  15.572  0.00  0.00    +0.000 NA
ATOM     28  C   UNL     1       6.724   5.074  14.348  0.00  0.00    +0.000 A 
ATOM     29  C   UNL     1       7.740   5.486  13.485  0.00  0.00    +0.000 A 
ATOM     30  C   UNL     1       7.870   4.849  12.251  0.00  0.00    +0.000 A 
ATOM     31  C   UNL     1       6.995   3.819  11.895  0.00  0.00    +0.000 A 
ATOM     32  C   UNL     1       5.978   3.380  12.762  0.00  0.00    +0.000 A 
ATOM     33  C   UNL     1       5.871   4.037  13.991  0.00  0.00    +0.000 A 
ATOM     34  N   UNL     1       5.032   3.901  15.080  0.00  0.00    +0.000 N 
ATOM     35  H   UNL     1       4.298   3.218  15.187  0.00  0.00    +0.000 HD
ENDBRANCH  24  26
ENDBRANCH   4  21
TORSDOF 5
ENDMDL
MODEL 7
REMARK VINA RESULT:      -8.0      3.623     12.891
REMARK  Name = 
REMARK  5 active torsions:
REMARK  status: ('A' for Active; 'I' for Inactive)
REMARK    1  A    between atoms: C_2  and  C_3
REMARK    2  A    between atoms: C_7  and  N_8
REMARK    3  A    between atoms: N_11  and  C_12
REMARK    4  A    between atoms: C_15  and  C_16
REMARK    5  A    between atoms: C_19  and  C_20
REMARK                            x       y       z     vdW  Elec       q    Type
REMARK                         _______ _______ _______ _____ _____    ______ ____
ROOT
ATOM      1  C   UNL     1       1.675   7.909  19.907  0.00  0.00    +0.000 A 
ATOM      2  C   UNL     1       1.424   8.192  21.248  0.00  0.00    +0.000 A 
ATOM      3  C   UNL     1       0.841   9.412  21.615  0.00  0.00    +0.000 A 
ATOM      4  C   UNL     1       0.474  10.367  20.653  0.00  0.00    +0.000 A 
ATOM      5  C   UNL     1       0.711  10.063  19.307  0.00  0.00    +0.000 A 
ATOM      6  C   UNL     1       1.337   8.856  18.940  0.00  0.00    +0.000 A 
ENDROOT
BRANCH   1  10
ATOM      7  N   UNL     1       3.743   5.354  18.346  0.00  0.00    +0.000 N 
ATOM      8  C   UNL     1       3.343   6.648  18.634  0.00  0.00    +0.000 C 
ATOM      9  O   UNL     1       3.886   7.656  18.193  0.00  0.00    +0.000 OA
ATOM     10  N   UNL     1       2.263   6.686  19.506  0.00  0.00    +0.000 N 
ATOM     11  H   UNL     1       3.014   4.654  18.385  0.00  0.00    +0.000 HD
ATOM     12  H   UNL     1       2.251   5.932  20.184  0.00  0.00    +0.000 HD
BRANCH   7  17
ATOM     13  C   UNL     1       6.023   4.335  15.585  0.00  0.00    +0.000 A 
ATOM     14  C   UNL     1       7.273   4.397  16.211  0.00  0.00    +0.000 A 
ATOM     15  C   UNL     1       7.353   4.741  17.555  0.00  0.00    +0.000 A 
ATOM     16  C   UNL     1       6.192   5.044  18.268  0.00  0.00    +0.000 A 
ATOM     17  C   UNL     1       4.933   5.019  17.650  0.00  0.00    +0.000 A 
ATOM     18  C   UNL     1       4.855   4.633  16.307  0.00  0.00    +0.000 A 
BRANCH  13  20
ATOM     19  N   UNL     1       5.873   3.694  13.075  0.00  0.00    +0.000 NA
ATOM     20  C   UNL     1       5.945   3.979  14.195  0.00  0.00    +0.000 C 
ENDBRANCH  13  20
ENDBRANCH   7  17
ENDBRANCH   1  10
BRANCH   4  21
ATOM     21  C   UNL     1      -0.133  11.633  21.090  0.00  0.00    +0.000 A 
ATOM     22  C   UNL     1       0.549  12.827  21.246  0.00  0.00    +0.000 A 
ATOM     23  S   UNL     1      -0.444  14.087  21.887  0.00  0.00    +0.000 S 
ATOM     24  C   UNL     1      -1.800  13.062  21.979  0.00  0.00    +0.000 A 
ATOM     25  C   UNL     1      -1.494  11.810  21.477  0.00  0.00    +0.000 A 
BRANCH  24  26
ATOM     26  C   UNL     1      -3.095  13.386  22.499  0.00  0.00    +0.000 A 
ATOM     27  N   UNL     1      -3.860  12.441  23.004  0.00  0.00    +0.000 NA
ATOM     28  C   UNL     1      -5.020  13.049  23.369  0.00  0.00    +0.000 A 
ATOM     29  C   UNL     1      -6.157  12.475  23.937  0.00  0.00    +0.000 A 
ATOM     30  C   UNL     1      -7.257  13.290  24.204  0.00  0.00    +0.000 A 
ATOM     31  C   UNL     1      -7.211  14.655  23.905  0.00  0.00    +0.000 A 
ATOM     32  C   UNL     1      -6.064  15.251  23.351  0.00  0.00    +0.000 A 
ATOM     33  C   UNL     1      -4.978  14.410  23.093  0.00  0.00    +0.000 A 
ATOM     34  N   UNL     1      -3.713  14.609  22.573  0.00  0.00    +0.000 N 
ATOM     35  H   UNL     1      -3.319  15.492  22.286  0.00  0.00    +0.000 HD
ENDBRANCH  24  26
ENDBRANCH   4  21
TORSDOF 5
ENDMDL
MODEL 8
REMARK VINA RESULT:      -8.0      3.641     12.971
REMARK  Name = 
REMARK  5 active torsions:
REMARK  status: ('A' for Active; 'I' for Inactive)
REMARK    1  A    between atoms: C_2  and  C_3
REMARK    2  A    between atoms: C_7  and  N_8
REMARK    3  A    between atoms: N_11  and  C_12
REMARK    4  A    between atoms: C_15  and  C_16
REMARK    5  A    between atoms: C_19  and  C_20
REMARK                            x       y       z     vdW  Elec       q    Type
REMARK                         _______ _______ _______ _____ _____    ______ ____
ROOT
ATOM      1  C   UNL     1       1.731   7.851  19.876  0.00  0.00    +0.000 A 
ATOM      2  C   UNL     1       1.496   8.818  18.901  0.00  0.00    +0.000 A 
ATOM      3  C   UNL     1       0.842  10.012  19.234  0.00  0.00    +0.000 A 
ATOM      4  C   UNL     1       0.429  10.278  20.550  0.00  0.00    +0.000 A 
ATOM      5  C   UNL     1       0.690   9.308  21.526  0.00  0.00    +0.000 A 
ATOM      6  C   UNL     1       1.307   8.090  21.184  0.00  0.00    +0.000 A 
ENDROOT
BRANCH   1  10
ATOM      7  N   UNL     1       3.884   5.287  18.450  0.00  0.00    +0.000 N 
ATOM      8  C   UNL     1       3.400   6.574  18.620  0.00  0.00    +0.000 C 
ATOM      9  O   UNL     1       3.822   7.558  18.023  0.00  0.00    +0.000 OA
ATOM     10  N   UNL     1       2.388   6.635  19.569  0.00  0.00    +0.000 N 
ATOM     11  H   UNL     1       3.221   4.545  18.628  0.00  0.00    +0.000 HD
ATOM     12  H   UNL     1       2.490   5.970  20.327  0.00  0.00    +0.000 HD
BRANCH   7  17
ATOM     13  C   UNL     1       6.045   4.317  15.577  0.00  0.00    +0.000 A 
ATOM     14  C   UNL     1       7.319   4.355  16.155  0.00  0.00    +0.000 A 
ATOM     15  C   UNL     1       7.455   4.667  17.502  0.00  0.00    +0.000 A 
ATOM     16  C   UNL     1       6.325   4.962  18.268  0.00  0.00    +0.000 A 
ATOM     17  C   UNL     1       5.043   4.960  17.699  0.00  0.00    +0.000 A 
ATOM     18  C   UNL     1       4.909   4.607  16.352  0.00  0.00    +0.000 A 
BRANCH  13  20
ATOM     19  N   UNL     1       5.798   3.725  13.063  0.00  0.00    +0.000 NA
ATOM     20  C   UNL     1       5.910   3.995  14.183  0.00  0.00    +0.000 C 
ENDBRANCH  13  20
ENDBRANCH   7  17
ENDBRANCH   1  10
BRANCH   4  21
ATOM     21  C   UNL     1      -0.254  11.545  20.847  0.00  0.00    +0.000 A 
ATOM     22  C   UNL     1       0.339  12.795  20.802  0.00  0.00    +0.000 A 
ATOM     23  S   UNL     1      -0.717  14.058  21.325  0.00  0.00    +0.000 S 
ATOM     24  C   UNL     1      -1.983  12.963  21.630  0.00  0.00    +0.000 A 
ATOM     25  C   UNL     1      -1.605  11.678  21.284  0.00  0.00    +0.000 A 
BRANCH  24  26
ATOM     26  C   UNL     1      -3.274  13.263  22.175  0.00  0.00    +0.000 A 
ATOM     27  N   UNL     1      -3.698  14.509  22.221  0.00  0.00    +0.000 NA
ATOM     28  C   UNL     1      -4.920  14.469  22.818  0.00  0.00    +0.000 A 
ATOM     29  C   UNL     1      -5.773  15.532  23.116  0.00  0.00    +0.000 A 
ATOM     30  C   UNL     1      -6.977  15.262  23.766  0.00  0.00    +0.000 A 
ATOM     31  C   UNL     1      -7.314  13.949  24.108  0.00  0.00    +0.000 A 
ATOM     32  C   UNL     1      -6.473  12.865  23.796  0.00  0.00    +0.000 A 
ATOM     33  C   UNL     1      -5.273  13.166  23.146  0.00  0.00    +0.000 A 
ATOM     34  N   UNL     1      -4.217  12.404  22.683  0.00  0.00    +0.000 N 
ATOM     35  H   UNL     1      -4.143  11.400  22.724  0.00  0.00    +0.000 HD
ENDBRANCH  24  26
ENDBRANCH   4  21
TORSDOF 5
ENDMDL
MODEL 9
REMARK VINA RESULT:      -7.9      1.133      2.009
REMARK  Name = 
REMARK  5 active torsions:
REMARK  status: ('A' for Active; 'I' for Inactive)
REMARK    1  A    between atoms: C_2  and  C_3
REMARK    2  A    between atoms: C_7  and  N_8
REMARK    3  A    between atoms: N_11  and  C_12
REMARK    4  A    between atoms: C_15  and  C_16
REMARK    5  A    between atoms: C_19  and  C_20
REMARK                            x       y       z     vdW  Elec       q    Type
REMARK                         _______ _______ _______ _____ _____    ______ ____
ROOT
ATOM      1  C   UNL     1       0.611  10.086  19.554  0.00  0.00    +0.000 A 
ATOM      2  C   UNL     1       1.094   9.892  18.262  0.00  0.00    +0.000 A 
ATOM      3  C   UNL     1       1.921   8.797  17.974  0.00  0.00    +0.000 A 
ATOM      4  C   UNL     1       2.266   7.861  18.963  0.00  0.00    +0.000 A 
ATOM      5  C   UNL     1       1.757   8.054  20.253  0.00  0.00    +0.000 A 
ATOM      6  C   UNL     1       0.962   9.178  20.553  0.00  0.00    +0.000 A 
ENDROOT
BRANCH   1  10
ATOM      7  N   UNL     1      -1.593  12.447  21.230  0.00  0.00    +0.000 N 
ATOM      8  C   UNL     1      -0.783  11.328  21.137  0.00  0.00    +0.000 C 
ATOM      9  O   UNL     1      -0.558  10.557  22.064  0.00  0.00    +0.000 OA
ATOM     10  N   UNL     1      -0.225  11.182  19.874  0.00  0.00    +0.000 N 
ATOM     11  H   UNL     1      -2.043  12.732  20.369  0.00  0.00    +0.000 HD
ATOM     12  H   UNL     1      -0.025  12.059  19.406  0.00  0.00    +0.000 HD
BRANCH   7  17
ATOM     13  C   UNL     1      -1.890  14.382  24.397  0.00  0.00    +0.000 A 
ATOM     14  C   UNL     1      -3.170  14.020  24.831  0.00  0.00    +0.000 A 
ATOM     15  C   UNL     1      -3.917  13.111  24.092  0.00  0.00    +0.000 A 
ATOM     16  C   UNL     1      -3.397  12.578  22.911  0.00  0.00    +0.000 A 
ATOM     17  C   UNL     1      -2.129  12.951  22.443  0.00  0.00    +0.000 A 
ATOM     18  C   UNL     1      -1.366  13.838  23.212  0.00  0.00    +0.000 A 
BRANCH  13  20
ATOM     19  N   UNL     1      -0.496  16.083  25.775  0.00  0.00    +0.000 NA
ATOM     20  C   UNL     1      -1.122  15.323  25.165  0.00  0.00    +0.000 C 
ENDBRANCH  13  20
ENDBRANCH   7  17
ENDBRANCH   1  10
BRANCH   4  21
ATOM     21  C   UNL     1       3.138   6.731  18.611  0.00  0.00    +0.000 A 
ATOM     22  C   UNL     1       3.655   5.817  19.513  0.00  0.00    +0.000 A 
ATOM     23  S   UNL     1       4.737   4.689  18.778  0.00  0.00    +0.000 S 
ATOM     24  C   UNL     1       4.544   5.401  17.245  0.00  0.00    +0.000 A 
ATOM     25  C   UNL     1       3.631   6.438  17.305  0.00  0.00    +0.000 A 
BRANCH  24  26
ATOM     26  C   UNL     1       5.209   5.032  16.031  0.00  0.00    +0.000 A 
ATOM     27  N   UNL     1       6.263   5.706  15.623  0.00  0.00    +0.000 NA
ATOM     28  C   UNL     1       6.635   5.147  14.440  0.00  0.00    +0.000 A 
ATOM     29  C   UNL     1       7.686   5.516  13.600  0.00  0.00    +0.000 A 
ATOM     30  C   UNL     1       7.867   4.817  12.407  0.00  0.00    +0.000 A 
ATOM     31  C   UNL     1       7.006   3.768  12.068  0.00  0.00    +0.000 A 
ATOM     32  C   UNL     1       5.954   3.372  12.915  0.00  0.00    +0.000 A 
ATOM     33  C   UNL     1       5.797   4.092  14.102  0.00  0.00    +0.000 A 
ATOM     34  N   UNL     1       4.914   4.010  15.162  0.00  0.00    +0.000 N 
ATOM     35  H   UNL     1       4.176   3.332  15.273  0.00  0.00    +0.000 HD
ENDBRANCH  24  26
ENDBRANCH   4  21
TORSDOF 5
ENDMDL
