MODEL 1
REMARK VINA RESULT:      -7.6      0.000      0.000
REMARK  Name = 
REMARK  9 active torsions:
REMARK  status: ('A' for Active; 'I' for Inactive)
REMARK    1  A    between atoms: C_1  and  C_2
REMARK    2  A    between atoms: C_2  and  C_3
REMARK    3  A    between atoms: C_3  and  C_5
REMARK    4  A    between atoms: C_5  and  C_6
REMARK    5  A    between atoms: C_5  and  C_13
REMARK    6  A    between atoms: C_10  and  O_11
REMARK    7  A    between atoms: N_16  and  C_17
REMARK    8  A    between atoms: C_17  and  C_18
REMARK    9  A    between atoms: C_18  and  C_19
REMARK                            x       y       z     vdW  Elec       q    Type
REMARK                         _______ _______ _______ _____ _____    ______ ____
ROOT
ATOM      1  C   UNL     1       3.844   4.457  19.240  0.00  0.00    +0.000 C 
ATOM      2  C   UNL     1       5.081   5.272  19.634  0.00  0.00    +0.000 C 
ATOM      3  C   UNL     1       5.928   5.647  18.420  0.00  0.00    +0.000 C 
ATOM      4  N   UNL     1       6.406   4.484  17.665  0.00  0.00    +0.000 NA
ATOM      5  C   UNL     1       5.376   3.462  17.408  0.00  0.00    +0.000 C 
ATOM      6  C   UNL     1       4.385   3.185  18.553  0.00  0.00    +0.000 C 
ENDROOT
BRANCH   1   7
ATOM      7  C   UNL     1       2.824   5.229  18.351  0.00  0.00    +0.000 C 
BRANCH   7   8
ATOM      8  C   UNL     1       2.422   6.618  18.847  0.00  0.00    +0.000 A 
ATOM      9  C   UNL     1       1.985   6.847  20.162  0.00  0.00    +0.000 A 
ATOM     10  C   UNL     1       1.495   8.101  20.545  0.00  0.00    +0.000 A 
ATOM     11  C   UNL     1       1.418   9.142  19.619  0.00  0.00    +0.000 A 
ATOM     12  C   UNL     1       1.858   8.920  18.321  0.00  0.00    +0.000 A 
ATOM     13  C   UNL     1       2.383   7.689  17.941  0.00  0.00    +0.000 A 
BRANCH  12  14
ATOM     14  O   UNL     1       1.752   9.881  17.359  0.00  0.00    +0.000 OA
ATOM     15  H   UNL     1       1.252   9.504  16.616  0.00  0.00    +0.000 HD
ENDBRANCH  12  14
ENDBRANCH   7   8
BRANCH   7  16
ATOM     16  C   UNL     1       1.541   4.402  18.130  0.00  0.00    +0.000 C 
ATOM     17  O   UNL     1       0.954   4.384  17.047  0.00  0.00    +0.000 OA
BRANCH  16  19
ATOM     18  C   UNL     1       0.816   2.149  19.024  0.00  0.00    +0.000 C 
ATOM     19  C   UNL     1       1.031   3.620  19.331  0.00  0.00    +0.000 C 
ENDBRANCH  16  19
ENDBRANCH   7  16
ENDBRANCH   1   7
BRANCH   4  20
ATOM     20  C   UNL     1       7.028   4.902  16.379  0.00  0.00    +0.000 C 
BRANCH  20  21
ATOM     21  C   UNL     1       6.035   5.406  15.312  0.00  0.00    +0.000 C 
BRANCH  21  22
ATOM     22  C   UNL     1       6.244   4.731  13.972  0.00  0.00    +0.000 A 
ATOM     23  C   UNL     1       5.330   3.769  13.510  0.00  0.00    +0.000 A 
ATOM     24  C   UNL     1       5.541   3.121  12.292  0.00  0.00    +0.000 A 
ATOM     25  C   UNL     1       6.662   3.426  11.522  0.00  0.00    +0.000 A 
ATOM     26  C   UNL     1       7.570   4.389  11.967  0.00  0.00    +0.000 A 
ATOM     27  C   UNL     1       7.356   5.037  13.187  0.00  0.00    +0.000 A 
ENDBRANCH  21  22
ENDBRANCH  20  21
ENDBRANCH   4  20
TORSDOF 8
ENDMDL
MODEL 2
REMARK VINA RESULT:      -7.5      2.658      7.490
REMARK  Name = 
REMARK  9 active torsions:
REMARK  status: ('A' for Active; 'I' for Inactive)
REMARK    1  A    between atoms: C_1  and  C_2
REMARK    2  A    between atoms: C_2  and  C_3
REMARK    3  A    between atoms: C_3  and  C_5
REMARK    4  A    between atoms: C_5  and  C_6
REMARK    5  A    between atoms: C_5  and  C_13
REMARK    6  A    between atoms: C_10  and  O_11
REMARK    7  A    between atoms: N_16  and  C_17
REMARK    8  A    between atoms: C_17  and  C_18
REMARK    9  A    between atoms: C_18  and  C_19
REMARK                            x       y       z     vdW  Elec       q    Type
REMARK                         _______ _______ _______ _____ _____    ______ ____
ROOT
ATOM      1  C   UNL     1       5.060   3.699  17.552  0.00  0.00    +0.000 C 
ATOM      2  C   UNL     1       3.583   3.719  17.143  0.00  0.00    +0.000 C 
ATOM      3  C   UNL     1       2.866   4.967  17.651  0.00  0.00    +0.000 C 
ATOM      4  N   UNL     1       2.908   5.107  19.111  0.00  0.00    +0.000 NA
ATOM      5  C   UNL     1       4.235   4.870  19.706  0.00  0.00    +0.000 C 
ATOM      6  C   UNL     1       5.066   3.727  19.095  0.00  0.00    +0.000 C 
ENDROOT
BRANCH   1   7
ATOM      7  C   UNL     1       5.913   4.845  16.929  0.00  0.00    +0.000 C 
BRANCH   7   8
ATOM      8  C   UNL     1       6.187   4.735  15.430  0.00  0.00    +0.000 A 
ATOM      9  C   UNL     1       5.475   3.853  14.599  0.00  0.00    +0.000 A 
ATOM     10  C   UNL     1       5.843   3.678  13.260  0.00  0.00    +0.000 A 
ATOM     11  C   UNL     1       6.935   4.367  12.731  0.00  0.00    +0.000 A 
ATOM     12  C   UNL     1       7.634   5.246  13.547  0.00  0.00    +0.000 A 
ATOM     13  C   UNL     1       7.252   5.457  14.869  0.00  0.00    +0.000 A 
BRANCH  12  14
ATOM     14  O   UNL     1       8.744   5.902  13.102  0.00  0.00    +0.000 OA
ATOM     15  H   UNL     1       9.389   5.919  13.828  0.00  0.00    +0.000 HD
ENDBRANCH  12  14
ENDBRANCH   7   8
BRANCH   7  16
ATOM     16  C   UNL     1       7.262   4.994  17.660  0.00  0.00    +0.000 C 
ATOM     17  O   UNL     1       8.140   4.132  17.593  0.00  0.00    +0.000 OA
BRANCH  16  19
ATOM     18  C   UNL     1       7.643   7.494  17.621  0.00  0.00    +0.000 C 
ATOM     19  C   UNL     1       7.445   6.261  18.482  0.00  0.00    +0.000 C 
ENDBRANCH  16  19
ENDBRANCH   7  16
ENDBRANCH   1   7
BRANCH   4  20
ATOM     20  C   UNL     1       2.399   6.440  19.534  0.00  0.00    +0.000 C 
BRANCH  20  21
ATOM     21  C   UNL     1       2.515   7.547  18.465  0.00  0.00    +0.000 C 
BRANCH  21  22
ATOM     22  C   UNL     1       1.818   8.824  18.888  0.00  0.00    +0.000 A 
ATOM     23  C   UNL     1       1.149   8.894  20.121  0.00  0.00    +0.000 A 
ATOM     24  C   UNL     1       0.477  10.059  20.495  0.00  0.00    +0.000 A 
ATOM     25  C   UNL     1       0.467  11.164  19.647  0.00  0.00    +0.000 A 
ATOM     26  C   UNL     1       1.139  11.109  18.424  0.00  0.00    +0.000 A 
ATOM     27  C   UNL     1       1.812   9.941  18.052  0.00  0.00    +0.000 A 
ENDBRANCH  21  22
ENDBRANCH  20  21
ENDBRANCH   4  20
TORSDOF 8
ENDMDL
MODEL 3
REMARK VINA RESULT:      -7.4      0.354      1.010
REMARK  Name = 
REMARK  9 active torsions:
REMARK  status: ('A' for Active; 'I' for Inactive)
REMARK    1  A    between atoms: C_1  and  C_2
REMARK    2  A    between atoms: C_2  and  C_3
REMARK    3  A    between atoms: C_3  and  C_5
REMARK    4  A    between atoms: C_5  and  C_6
REMARK    5  A    between atoms: C_5  and  C_13
REMARK    6  A    between atoms: C_10  and  O_11
REMARK    7  A    between atoms: N_16  and  C_17
REMARK    8  A    between atoms: C_17  and  C_18
REMARK    9  A    between atoms: C_18  and  C_19
REMARK                            x       y       z     vdW  Elec       q    Type
REMARK                         _______ _______ _______ _____ _____    ______ ____
ROOT
ATOM      1  C   UNL     1       3.963   4.654  19.300  0.00  0.00    +0.000 C 
ATOM      2  C   UNL     1       5.159   5.567  19.591  0.00  0.00    +0.000 C 
ATOM      3  C   UNL     1       5.879   5.990  18.312  0.00  0.00    +0.000 C 
ATOM      4  N   UNL     1       6.386   4.857  17.530  0.00  0.00    +0.000 NA
ATOM      5  C   UNL     1       5.421   3.755  17.362  0.00  0.00    +0.000 C 
ATOM      6  C   UNL     1       4.546   3.419  18.583  0.00  0.00    +0.000 C 
ENDROOT
BRANCH   1   7
ATOM      7  C   UNL     1       2.820   5.334  18.487  0.00  0.00    +0.000 C 
BRANCH   7   8
ATOM      8  C   UNL     1       2.380   6.714  18.978  0.00  0.00    +0.000 A 
ATOM      9  C   UNL     1       1.918   6.932  20.286  0.00  0.00    +0.000 A 
ATOM     10  C   UNL     1       1.395   8.175  20.662  0.00  0.00    +0.000 A 
ATOM     11  C   UNL     1       1.311   9.215  19.735  0.00  0.00    +0.000 A 
ATOM     12  C   UNL     1       1.775   9.004  18.444  0.00  0.00    +0.000 A 
ATOM     13  C   UNL     1       2.333   7.784  18.072  0.00  0.00    +0.000 A 
BRANCH  12  14
ATOM     14  O   UNL     1       1.664   9.963  17.481  0.00  0.00    +0.000 OA
ATOM     15  H   UNL     1       0.722  10.052  17.258  0.00  0.00    +0.000 HD
ENDBRANCH  12  14
ENDBRANCH   7   8
BRANCH   7  16
ATOM     16  C   UNL     1       1.576   4.427  18.411  0.00  0.00    +0.000 C 
ATOM     17  O   UNL     1       1.074   4.096  17.336  0.00  0.00    +0.000 OA
BRANCH  16  19
ATOM     18  C   UNL     1       1.292   2.518  20.046  0.00  0.00    +0.000 C 
ATOM     19  C   UNL     1       0.992   3.974  19.741  0.00  0.00    +0.000 C 
ENDBRANCH  16  19
ENDBRANCH   7  16
ENDBRANCH   1   7
BRANCH   4  20
ATOM     20  C   UNL     1       6.873   5.304  16.197  0.00  0.00    +0.000 C 
BRANCH  20  21
ATOM     21  C   UNL     1       5.780   5.429  15.116  0.00  0.00    +0.000 C 
BRANCH  21  22
ATOM     22  C   UNL     1       6.145   4.688  13.846  0.00  0.00    +0.000 A 
ATOM     23  C   UNL     1       7.314   5.021  13.139  0.00  0.00    +0.000 A 
ATOM     24  C   UNL     1       7.632   4.363  11.951  0.00  0.00    +0.000 A 
ATOM     25  C   UNL     1       6.793   3.367  11.456  0.00  0.00    +0.000 A 
ATOM     26  C   UNL     1       5.636   3.020  12.156  0.00  0.00    +0.000 A 
ATOM     27  C   UNL     1       5.319   3.681  13.347  0.00  0.00    +0.000 A 
ENDBRANCH  21  22
ENDBRANCH  20  21
ENDBRANCH   4  20
TORSDOF 8
ENDMDL
MODEL 4
REMARK VINA RESULT:      -7.3      2.613      7.621
REMARK  Name = 
REMARK  9 active torsions:
REMARK  status: ('A' for Active; 'I' for Inactive)
REMARK    1  A    between atoms: C_1  and  C_2
REMARK    2  A    between atoms: C_2  and  C_3
REMARK    3  A    between atoms: C_3  and  C_5
REMARK    4  A    between atoms: C_5  and  C_6
REMARK    5  A    between atoms: C_5  and  C_13
REMARK    6  A    between atoms: C_10  and  O_11
REMARK    7  A    between atoms: N_16  and  C_17
REMARK    8  A    between atoms: C_17  and  C_18
REMARK    9  A    between atoms: C_18  and  C_19
REMARK                            x       y       z     vdW  Elec       q    Type
REMARK                         _______ _______ _______ _____ _____    ______ ____
ROOT
ATOM      1  C   UNL     1       5.153   3.694  16.975  0.00  0.00    +0.000 C 
ATOM      2  C   UNL     1       3.650   3.881  16.745  0.00  0.00    +0.000 C 
ATOM      3  C   UNL     1       3.122   5.148  17.415  0.00  0.00    +0.000 C 
ATOM      4  N   UNL     1       3.339   5.170  18.866  0.00  0.00    +0.000 NA
ATOM      5  C   UNL     1       4.694   4.768  19.284  0.00  0.00    +0.000 C 
ATOM      6  C   UNL     1       5.333   3.604  18.506  0.00  0.00    +0.000 C 
ENDROOT
BRANCH   1   7
ATOM      7  C   UNL     1       6.043   4.802  16.334  0.00  0.00    +0.000 C 
BRANCH   7   8
ATOM      8  C   UNL     1       6.467   4.563  14.885  0.00  0.00    +0.000 A 
ATOM      9  C   UNL     1       7.510   5.284  14.279  0.00  0.00    +0.000 A 
ATOM     10  C   UNL     1       7.783   5.137  12.914  0.00  0.00    +0.000 A 
ATOM     11  C   UNL     1       7.010   4.282  12.128  0.00  0.00    +0.000 A 
ATOM     12  C   UNL     1       5.985   3.562  12.726  0.00  0.00    +0.000 A 
ATOM     13  C   UNL     1       5.731   3.670  14.090  0.00  0.00    +0.000 A 
BRANCH  12  14
ATOM     14  O   UNL     1       5.161   2.756  11.996  0.00  0.00    +0.000 OA
ATOM     15  H   UNL     1       5.718   2.155  11.475  0.00  0.00    +0.000 HD
ENDBRANCH  12  14
ENDBRANCH   7   8
BRANCH   7  16
ATOM     16  C   UNL     1       7.310   5.055  17.175  0.00  0.00    +0.000 C 
ATOM     17  O   UNL     1       8.165   4.184  17.345  0.00  0.00    +0.000 OA
BRANCH  16  19
ATOM     18  C   UNL     1       6.384   7.406  17.294  0.00  0.00    +0.000 C 
ATOM     19  C   UNL     1       7.439   6.438  17.796  0.00  0.00    +0.000 C 
ENDBRANCH  16  19
ENDBRANCH   7  16
ENDBRANCH   1   7
BRANCH   4  20
ATOM     20  C   UNL     1       3.016   6.508  19.433  0.00  0.00    +0.000 C 
BRANCH  20  21
ATOM     21  C   UNL     1       2.709   7.599  18.386  0.00  0.00    +0.000 C 
BRANCH  21  22
ATOM     22  C   UNL     1       1.659   8.577  18.871  0.00  0.00    +0.000 A 
ATOM     23  C   UNL     1       1.299   8.618  20.229  0.00  0.00    +0.000 A 
ATOM     24  C   UNL     1       0.306   9.494  20.670  0.00  0.00    +0.000 A 
ATOM     25  C   UNL     1      -0.334  10.339  19.766  0.00  0.00    +0.000 A 
ATOM     26  C   UNL     1       0.025  10.315  18.417  0.00  0.00    +0.000 A 
ATOM     27  C   UNL     1       1.020   9.436  17.977  0.00  0.00    +0.000 A 
ENDBRANCH  21  22
ENDBRANCH  20  21
ENDBRANCH   4  20
TORSDOF 8
ENDMDL
MODEL 5
REMARK VINA RESULT:      -7.2      2.702      7.977
REMARK  Name = 
REMARK  9 active torsions:
REMARK  status: ('A' for Active; 'I' for Inactive)
REMARK    1  A    between atoms: C_1  and  C_2
REMARK    2  A    between atoms: C_2  and  C_3
REMARK    3  A    between atoms: C_3  and  C_5
REMARK    4  A    between atoms: C_5  and  C_6
REMARK    5  A    between atoms: C_5  and  C_13
REMARK    6  A    between atoms: C_10  and  O_11
REMARK    7  A    between atoms: N_16  and  C_17
REMARK    8  A    between atoms: C_17  and  C_18
REMARK    9  A    between atoms: C_18  and  C_19
REMARK                            x       y       z     vdW  Elec       q    Type
REMARK                         _______ _______ _______ _____ _____    ______ ____
ROOT
ATOM      1  C   UNL     1       5.064   3.898  17.439  0.00  0.00    +0.000 C 
ATOM      2  C   UNL     1       3.574   4.010  17.098  0.00  0.00    +0.000 C 
ATOM      3  C   UNL     1       2.974   5.326  17.586  0.00  0.00    +0.000 C 
ATOM      4  N   UNL     1       3.096   5.518  19.036  0.00  0.00    +0.000 NA
ATOM      5  C   UNL     1       4.431   5.208  19.578  0.00  0.00    +0.000 C 
ATOM      6  C   UNL     1       5.147   3.985  18.978  0.00  0.00    +0.000 C 
ENDROOT
BRANCH   1   7
ATOM      7  C   UNL     1       5.965   4.954  16.731  0.00  0.00    +0.000 C 
BRANCH   7   8
ATOM      8  C   UNL     1       6.191   4.744  15.234  0.00  0.00    +0.000 A 
ATOM      9  C   UNL     1       5.509   3.755  14.504  0.00  0.00    +0.000 A 
ATOM     10  C   UNL     1       5.838   3.498  13.168  0.00  0.00    +0.000 A 
ATOM     11  C   UNL     1       6.863   4.211  12.543  0.00  0.00    +0.000 A 
ATOM     12  C   UNL     1       7.531   5.194  13.260  0.00  0.00    +0.000 A 
ATOM     13  C   UNL     1       7.185   5.485  14.576  0.00  0.00    +0.000 A 
BRANCH  12  14
ATOM     14  O   UNL     1       8.578   5.881  12.720  0.00  0.00    +0.000 OA
ATOM     15  H   UNL     1       9.281   5.242  12.519  0.00  0.00    +0.000 HD
ENDBRANCH  12  14
ENDBRANCH   7   8
BRANCH   7  16
ATOM     16  C   UNL     1       7.340   5.063  17.419  0.00  0.00    +0.000 C 
ATOM     17  O   UNL     1       8.143   4.128  17.427  0.00  0.00    +0.000 OA
BRANCH  16  19
ATOM     18  C   UNL     1       6.855   7.544  17.520  0.00  0.00    +0.000 C 
ATOM     19  C   UNL     1       7.647   6.387  18.102  0.00  0.00    +0.000 C 
ENDBRANCH  16  19
ENDBRANCH   7  16
ENDBRANCH   1   7
BRANCH   4  20
ATOM     20  C   UNL     1       2.705   6.900  19.426  0.00  0.00    +0.000 C 
BRANCH  20  21
ATOM     21  C   UNL     1       1.673   6.983  20.570  0.00  0.00    +0.000 C 
BRANCH  21  22
ATOM     22  C   UNL     1       1.127   8.385  20.746  0.00  0.00    +0.000 A 
ATOM     23  C   UNL     1       1.074   9.269  19.655  0.00  0.00    +0.000 A 
ATOM     24  C   UNL     1       0.604  10.572  19.824  0.00  0.00    +0.000 A 
ATOM     25  C   UNL     1       0.180  11.006  21.078  0.00  0.00    +0.000 A 
ATOM     26  C   UNL     1       0.217  10.131  22.166  0.00  0.00    +0.000 A 
ATOM     27  C   UNL     1       0.688   8.826  21.994  0.00  0.00    +0.000 A 
ENDBRANCH  21  22
ENDBRANCH  20  21
ENDBRANCH   4  20
TORSDOF 8
ENDMDL
MODEL 6
REMARK VINA RESULT:      -7.2      1.380      2.076
REMARK  Name = 
REMARK  9 active torsions:
REMARK  status: ('A' for Active; 'I' for Inactive)
REMARK    1  A    between atoms: C_1  and  C_2
REMARK    2  A    between atoms: C_2  and  C_3
REMARK    3  A    between atoms: C_3  and  C_5
REMARK    4  A    between atoms: C_5  and  C_6
REMARK    5  A    between atoms: C_5  and  C_13
REMARK    6  A    between atoms: C_10  and  O_11
REMARK    7  A    between atoms: N_16  and  C_17
REMARK    8  A    between atoms: C_17  and  C_18
REMARK    9  A    between atoms: C_18  and  C_19
REMARK                            x       y       z     vdW  Elec       q    Type
REMARK                         _______ _______ _______ _____ _____    ______ ____
ROOT
ATOM      1  C   UNL     1       4.359   5.162  18.453  0.00  0.00    +0.000 C 
ATOM      2  C   UNL     1       5.418   6.242  18.201  0.00  0.00    +0.000 C 
ATOM      3  C   UNL     1       5.680   6.449  16.712  0.00  0.00    +0.000 C 
ATOM      4  N   UNL     1       6.138   5.233  16.029  0.00  0.00    +0.000 NA
ATOM      5  C   UNL     1       5.364   4.023  16.359  0.00  0.00    +0.000 C 
ATOM      6  C   UNL     1       4.925   3.870  17.826  0.00  0.00    +0.000 C 
ENDROOT
BRANCH   1   7
ATOM      7  C   UNL     1       2.941   5.518  17.914  0.00  0.00    +0.000 C 
BRANCH   7   8
ATOM      8  C   UNL     1       2.325   6.809  18.453  0.00  0.00    +0.000 A 
ATOM      9  C   UNL     1       2.065   7.917  17.628  0.00  0.00    +0.000 A 
ATOM     10  C   UNL     1       1.629   9.129  18.176  0.00  0.00    +0.000 A 
ATOM     11  C   UNL     1       1.461   9.261  19.555  0.00  0.00    +0.000 A 
ATOM     12  C   UNL     1       1.709   8.166  20.370  0.00  0.00    +0.000 A 
ATOM     13  C   UNL     1       2.104   6.944  19.832  0.00  0.00    +0.000 A 
BRANCH  12  14
ATOM     14  O   UNL     1       1.619   8.253  21.728  0.00  0.00    +0.000 OA
ATOM     15  H   UNL     1       2.517   8.378  22.078  0.00  0.00    +0.000 HD
ENDBRANCH  12  14
ENDBRANCH   7   8
BRANCH   7  16
ATOM     16  C   UNL     1       1.947   4.366  18.163  0.00  0.00    +0.000 C 
ATOM     17  O   UNL     1       1.051   4.092  17.363  0.00  0.00    +0.000 OA
BRANCH  16  19
ATOM     18  C   UNL     1       0.879   3.615  20.330  0.00  0.00    +0.000 C 
ATOM     19  C   UNL     1       2.124   3.593  19.462  0.00  0.00    +0.000 C 
ENDBRANCH  16  19
ENDBRANCH   7  16
ENDBRANCH   1   7
BRANCH   4  20
ATOM     20  C   UNL     1       6.161   5.427  14.554  0.00  0.00    +0.000 C 
BRANCH  20  21
ATOM     21  C   UNL     1       7.031   4.413  13.780  0.00  0.00    +0.000 C 
BRANCH  21  22
ATOM     22  C   UNL     1       6.222   3.613  12.780  0.00  0.00    +0.000 A 
ATOM     23  C   UNL     1       6.809   2.540  12.087  0.00  0.00    +0.000 A 
ATOM     24  C   UNL     1       6.075   1.825  11.140  0.00  0.00    +0.000 A 
ATOM     25  C   UNL     1       4.751   2.168  10.877  0.00  0.00    +0.000 A 
ATOM     26  C   UNL     1       4.154   3.224  11.569  0.00  0.00    +0.000 A 
ATOM     27  C   UNL     1       4.892   3.939  12.517  0.00  0.00    +0.000 A 
ENDBRANCH  21  22
ENDBRANCH  20  21
ENDBRANCH   4  20
TORSDOF 8
ENDMDL
MODEL 7
REMARK VINA RESULT:      -7.2      2.444      7.642
REMARK  Name = 
REMARK  9 active torsions:
REMARK  status: ('A' for Active; 'I' for Inactive)
REMARK    1  A    between atoms: C_1  and  C_2
REMARK    2  A    between atoms: C_2  and  C_3
REMARK    3  A    between atoms: C_3  and  C_5
REMARK    4  A    between atoms: C_5  and  C_6
REMARK    5  A    between atoms: C_5  and  C_13
REMARK    6  A    between atoms: C_10  and  O_11
REMARK    7  A    between atoms: N_16  and  C_17
REMARK    8  A    between atoms: C_17  and  C_18
REMARK    9  A    between atoms: C_18  and  C_19
REMARK                            x       y       z     vdW  Elec       q    Type
REMARK                         _______ _______ _______ _____ _____    ______ ____
ROOT
ATOM      1  C   UNL     1       5.049   3.749  16.979  0.00  0.00    +0.000 C 
ATOM      2  C   UNL     1       3.522   3.623  16.936  0.00  0.00    +0.000 C 
ATOM      3  C   UNL     1       2.832   4.811  17.603  0.00  0.00    +0.000 C 
ATOM      4  N   UNL     1       3.207   4.985  19.010  0.00  0.00    +0.000 NA
ATOM      5  C   UNL     1       4.655   4.886  19.269  0.00  0.00    +0.000 C 
ATOM      6  C   UNL     1       5.420   3.812  18.476  0.00  0.00    +0.000 C 
ENDROOT
BRANCH   1   7
ATOM      7  C   UNL     1       5.615   4.955  16.171  0.00  0.00    +0.000 C 
BRANCH   7   8
ATOM      8  C   UNL     1       6.152   4.633  14.777  0.00  0.00    +0.000 A 
ATOM      9  C   UNL     1       7.291   5.263  14.247  0.00  0.00    +0.000 A 
ATOM     10  C   UNL     1       7.676   5.047  12.919  0.00  0.00    +0.000 A 
ATOM     11  C   UNL     1       6.923   4.211  12.093  0.00  0.00    +0.000 A 
ATOM     12  C   UNL     1       5.803   3.580  12.617  0.00  0.00    +0.000 A 
ATOM     13  C   UNL     1       5.435   3.757  13.947  0.00  0.00    +0.000 A 
BRANCH  12  14
ATOM     14  O   UNL     1       4.998   2.798  11.842  0.00  0.00    +0.000 OA
ATOM     15  H   UNL     1       4.085   3.116  11.948  0.00  0.00    +0.000 HD
ENDBRANCH  12  14
ENDBRANCH   7   8
BRANCH   7  16
ATOM     16  C   UNL     1       6.722   5.683  16.961  0.00  0.00    +0.000 C 
ATOM     17  O   UNL     1       7.728   5.098  17.366  0.00  0.00    +0.000 OA
BRANCH  16  19
ATOM     18  C   UNL     1       7.773   7.893  17.600  0.00  0.00    +0.000 C 
ATOM     19  C   UNL     1       6.495   7.164  17.225  0.00  0.00    +0.000 C 
ENDBRANCH  16  19
ENDBRANCH   7  16
ENDBRANCH   1   7
BRANCH   4  20
ATOM     20  C   UNL     1       2.690   6.275  19.544  0.00  0.00    +0.000 C 
BRANCH  20  21
ATOM     21  C   UNL     1       2.651   7.430  18.522  0.00  0.00    +0.000 C 
BRANCH  21  22
ATOM     22  C   UNL     1       1.712   8.540  18.950  0.00  0.00    +0.000 A 
ATOM     23  C   UNL     1       1.286   9.508  18.025  0.00  0.00    +0.000 A 
ATOM     24  C   UNL     1       0.450  10.549  18.428  0.00  0.00    +0.000 A 
ATOM     25  C   UNL     1       0.028  10.637  19.752  0.00  0.00    +0.000 A 
ATOM     26  C   UNL     1       0.436   9.673  20.677  0.00  0.00    +0.000 A 
ATOM     27  C   UNL     1       1.273   8.630  20.272  0.00  0.00    +0.000 A 
ENDBRANCH  21  22
ENDBRANCH  20  21
ENDBRANCH   4  20
TORSDOF 8
ENDMDL
MODEL 8
REMARK VINA RESULT:      -7.1      1.243      1.679
REMARK  Name = 
REMARK  9 active torsions:
REMARK  status: ('A' for Active; 'I' for Inactive)
REMARK    1  A    between atoms: C_1  and  C_2
REMARK    2  A    between atoms: C_2  and  C_3
REMARK    3  A    between atoms: C_3  and  C_5
REMARK    4  A    between atoms: C_5  and  C_6
REMARK    5  A    between atoms: C_5  and  C_13
REMARK    6  A    between atoms: C_10  and  O_11
REMARK    7  A    between atoms: N_16  and  C_17
REMARK    8  A    between atoms: C_17  and  C_18
REMARK    9  A    between atoms: C_18  and  C_19
REMARK                            x       y       z     vdW  Elec       q    Type
REMARK                         _______ _______ _______ _____ _____    ______ ____
ROOT
ATOM      1  C   UNL     1       4.757   5.481  18.767  0.00  0.00    +0.000 C 
ATOM      2  C   UNL     1       5.637   6.578  18.157  0.00  0.00    +0.000 C 
ATOM      3  C   UNL     1       5.601   6.557  16.631  0.00  0.00    +0.000 C 
ATOM      4  N   UNL     1       6.047   5.282  16.058  0.00  0.00    +0.000 NA
ATOM      5  C   UNL     1       5.473   4.090  16.707  0.00  0.00    +0.000 C 
ATOM      6  C   UNL     1       5.326   4.148  18.238  0.00  0.00    +0.000 C 
ENDROOT
BRANCH   1   7
ATOM      7  C   UNL     1       3.235   5.641  18.471  0.00  0.00    +0.000 C 
BRANCH   7   8
ATOM      8  C   UNL     1       2.597   6.948  18.941  0.00  0.00    +0.000 A 
ATOM      9  C   UNL     1       2.060   7.098  20.231  0.00  0.00    +0.000 A 
ATOM     10  C   UNL     1       1.361   8.259  20.584  0.00  0.00    +0.000 A 
ATOM     11  C   UNL     1       1.174   9.281  19.652  0.00  0.00    +0.000 A 
ATOM     12  C   UNL     1       1.711   9.138  18.381  0.00  0.00    +0.000 A 
ATOM     13  C   UNL     1       2.441   8.005  18.032  0.00  0.00    +0.000 A 
BRANCH  12  14
ATOM     14  O   UNL     1       1.510  10.077  17.412  0.00  0.00    +0.000 OA
ATOM     15  H   UNL     1       1.650  10.951  17.813  0.00  0.00    +0.000 HD
ENDBRANCH  12  14
ENDBRANCH   7   8
BRANCH   7  16
ATOM     16  C   UNL     1       2.428   4.467  19.059  0.00  0.00    +0.000 C 
ATOM     17  O   UNL     1       2.591   4.076  20.216  0.00  0.00    +0.000 OA
BRANCH  16  19
ATOM     18  C   UNL     1       0.731   2.615  18.760  0.00  0.00    +0.000 C 
ATOM     19  C   UNL     1       1.426   3.805  18.124  0.00  0.00    +0.000 C 
ENDBRANCH  16  19
ENDBRANCH   7  16
ENDBRANCH   1   7
BRANCH   4  20
ATOM     20  C   UNL     1       5.781   5.233  14.594  0.00  0.00    +0.000 C 
BRANCH  20  21
ATOM     21  C   UNL     1       6.799   4.410  13.777  0.00  0.00    +0.000 C 
BRANCH  21  22
ATOM     22  C   UNL     1       6.128   3.572  12.708  0.00  0.00    +0.000 A 
ATOM     23  C   UNL     1       4.787   3.803  12.360  0.00  0.00    +0.000 A 
ATOM     24  C   UNL     1       4.159   3.007  11.401  0.00  0.00    +0.000 A 
ATOM     25  C   UNL     1       4.860   1.977  10.778  0.00  0.00    +0.000 A 
ATOM     26  C   UNL     1       6.197   1.747  11.108  0.00  0.00    +0.000 A 
ATOM     27  C   UNL     1       6.824   2.545  12.069  0.00  0.00    +0.000 A 
ENDBRANCH  21  22
ENDBRANCH  20  21
ENDBRANCH   4  20
TORSDOF 8
ENDMDL
MODEL 9
REMARK VINA RESULT:      -7.1      0.921      1.149
REMARK  Name = 
REMARK  9 active torsions:
REMARK  status: ('A' for Active; 'I' for Inactive)
REMARK    1  A    between atoms: C_1  and  C_2
REMARK    2  A    between atoms: C_2  and  C_3
REMARK    3  A    between atoms: C_3  and  C_5
REMARK    4  A    between atoms: C_5  and  C_6
REMARK    5  A    between atoms: C_5  and  C_13
REMARK    6  A    between atoms: C_10  and  O_11
REMARK    7  A    between atoms: N_16  and  C_17
REMARK    8  A    between atoms: C_17  and  C_18
REMARK    9  A    between atoms: C_18  and  C_19
REMARK                            x       y       z     vdW  Elec       q    Type
REMARK                         _______ _______ _______ _____ _____    ______ ____
ROOT
ATOM      1  C   UNL     1       3.948   4.365  18.846  0.00  0.00    +0.000 C 
ATOM      2  C   UNL     1       5.122   5.347  18.933  0.00  0.00    +0.000 C 
ATOM      3  C   UNL     1       5.497   5.911  17.565  0.00  0.00    +0.000 C 
ATOM      4  N   UNL     1       5.876   4.878  16.595  0.00  0.00    +0.000 NA
ATOM      5  C   UNL     1       4.967   3.719  16.557  0.00  0.00    +0.000 C 
ATOM      6  C   UNL     1       4.422   3.231  17.912  0.00  0.00    +0.000 C 
ENDROOT
BRANCH   1   7
ATOM      7  C   UNL     1       2.609   5.007  18.375  0.00  0.00    +0.000 C 
BRANCH   7   8
ATOM      8  C   UNL     1       2.340   6.429  18.867  0.00  0.00    +0.000 A 
ATOM      9  C   UNL     1       2.025   6.712  20.206  0.00  0.00    +0.000 A 
ATOM     10  C   UNL     1       1.651   8.004  20.596  0.00  0.00    +0.000 A 
ATOM     11  C   UNL     1       1.570   9.030  19.653  0.00  0.00    +0.000 A 
ATOM     12  C   UNL     1       1.890   8.754  18.331  0.00  0.00    +0.000 A 
ATOM     13  C   UNL     1       2.301   7.483  17.941  0.00  0.00    +0.000 A 
BRANCH  12  14
ATOM     14  O   UNL     1       1.773   9.702  17.357  0.00  0.00    +0.000 OA
ATOM     15  H   UNL     1       1.201  10.409  17.698  0.00  0.00    +0.000 HD
ENDBRANCH  12  14
ENDBRANCH   7   8
BRANCH   7  16
ATOM     16  C   UNL     1       1.404   4.125  18.759  0.00  0.00    +0.000 C 
ATOM     17  O   UNL     1       0.776   3.475  17.921  0.00  0.00    +0.000 OA
BRANCH  16  19
ATOM     18  C   UNL     1       1.469   2.848  20.941  0.00  0.00    +0.000 C 
ATOM     19  C   UNL     1       1.022   4.113  20.231  0.00  0.00    +0.000 C 
ENDBRANCH  16  19
ENDBRANCH   7  16
ENDBRANCH   1   7
BRANCH   4  20
ATOM     20  C   UNL     1       6.011   5.453  15.228  0.00  0.00    +0.000 C 
BRANCH  20  21
ATOM     21  C   UNL     1       7.039   4.742  14.324  0.00  0.00    +0.000 C 
BRANCH  21  22
ATOM     22  C   UNL     1       6.375   3.962  13.208  0.00  0.00    +0.000 A 
ATOM     23  C   UNL     1       4.990   4.067  12.993  0.00  0.00    +0.000 A 
ATOM     24  C   UNL     1       4.373   3.322  11.988  0.00  0.00    +0.000 A 
ATOM     25  C   UNL     1       5.128   2.469  11.185  0.00  0.00    +0.000 A 
ATOM     26  C   UNL     1       6.506   2.366  11.383  0.00  0.00    +0.000 A 
ATOM     27  C   UNL     1       7.122   3.114  12.391  0.00  0.00    +0.000 A 
ENDBRANCH  21  22
ENDBRANCH  20  21
ENDBRANCH   4  20
TORSDOF 8
ENDMDL
