MODEL 1
REMARK VINA RESULT:      -8.1      0.000      0.000
REMARK  Name = 
REMARK  8 active torsions:
REMARK  status: ('A' for Active; 'I' for Inactive)
REMARK    1  A    between atoms: C_1  and  C_2
REMARK    2  A    between atoms: C_2  and  C_3
REMARK    3  A    between atoms: N_5  and  C_6
REMARK    4  A    between atoms: C_6  and  C_7
REMARK    5  A    between atoms: C_16  and  O_17
REMARK    6  A    between atoms: O_17  and  C_18
REMARK    7  A    between atoms: C_21  and  C_22
REMARK    8  A    between atoms: C_24  and  C_25
REMARK                            x       y       z     vdW  Elec       q    Type
REMARK                         _______ _______ _______ _____ _____    ______ ____
ROOT
ATOM      1  C   UNL     1       1.596   3.858  18.150  0.00  0.00    +0.000 C 
ATOM      2  C   UNL     1       3.065   4.294  18.076  0.00  0.00    +0.000 C 
ATOM      3  C   UNL     1       3.835   3.928  19.360  0.00  0.00    +0.000 C 
ATOM      4  C   UNL     1       3.748   3.603  16.890  0.00  0.00    +0.000 C 
ATOM      5  N   UNL     1       4.759   4.545  16.493  0.00  0.00    +0.000 N 
ATOM      6  C   UNL     1       4.413   5.852  16.814  0.00  0.00    +0.000 C 
ATOM      7  O   UNL     1       5.014   6.858  16.469  0.00  0.00    +0.000 OA
ATOM      8  C   UNL     1       3.155   5.806  17.695  0.00  0.00    +0.000 C 
ENDROOT
BRANCH   5   9
ATOM      9  C   UNL     1       6.122   4.135  16.212  0.00  0.00    +0.000 C 
BRANCH   9  10
ATOM     10  C   UNL     1       6.487   4.146  14.758  0.00  0.00    +0.000 A 
ATOM     11  C   UNL     1       5.817   3.322  13.846  0.00  0.00    +0.000 A 
ATOM     12  C   UNL     1       6.054   3.445  12.475  0.00  0.00    +0.000 A 
ATOM     13  C   UNL     1       6.962   4.393  12.002  0.00  0.00    +0.000 A 
ATOM     14  C   UNL     1       7.655   5.200  12.902  0.00  0.00    +0.000 A 
ATOM     15  C   UNL     1       7.418   5.068  14.268  0.00  0.00    +0.000 A 
ATOM     16  F   UNL     1       8.084   5.865  15.115  0.00  0.00    +0.000 F 
ENDBRANCH   9  10
ENDBRANCH   5   9
BRANCH   8  17
ATOM     17  O   UNL     1       3.218   6.645  18.851  0.00  0.00    +0.000 OA
BRANCH  17  18
ATOM     18  C   UNL     1       2.368   7.715  18.946  0.00  0.00    +0.000 A 
ATOM     19  C   UNL     1       1.965   8.509  17.881  0.00  0.00    +0.000 A 
ATOM     20  C   UNL     1       1.038   9.535  18.068  0.00  0.00    +0.000 A 
ATOM     21  C   UNL     1       0.518   9.820  19.344  0.00  0.00    +0.000 A 
ATOM     22  C   UNL     1       0.921   9.048  20.436  0.00  0.00    +0.000 A 
ATOM     23  C   UNL     1       1.853   7.999  20.225  0.00  0.00    +0.000 A 
BRANCH  22  24
ATOM     24  C   UNL     1       0.383   9.278  21.835  0.00  0.00    +0.000 C 
ATOM     25  F   UNL     1       0.183  10.580  22.166  0.00  0.00    +0.000 F 
ATOM     26  F   UNL     1      -0.820   8.669  22.026  0.00  0.00    +0.000 F 
ATOM     27  F   UNL     1       1.210   8.782  22.794  0.00  0.00    +0.000 F 
ENDBRANCH  22  24
BRANCH  21  28
ATOM     28  C   UNL     1      -0.417  10.914  19.428  0.00  0.00    +0.000 C 
ATOM     29  N   UNL     1      -1.193  11.761  19.518  0.00  0.00    +0.000 NA
ENDBRANCH  21  28
ENDBRANCH  17  18
ENDBRANCH   8  17
TORSDOF 6
ENDMDL
MODEL 2
REMARK VINA RESULT:      -7.8      0.865      1.243
REMARK  Name = 
REMARK  8 active torsions:
REMARK  status: ('A' for Active; 'I' for Inactive)
REMARK    1  A    between atoms: C_1  and  C_2
REMARK    2  A    between atoms: C_2  and  C_3
REMARK    3  A    between atoms: N_5  and  C_6
REMARK    4  A    between atoms: C_6  and  C_7
REMARK    5  A    between atoms: C_16  and  O_17
REMARK    6  A    between atoms: O_17  and  C_18
REMARK    7  A    between atoms: C_21  and  C_22
REMARK    8  A    between atoms: C_24  and  C_25
REMARK                            x       y       z     vdW  Elec       q    Type
REMARK                         _______ _______ _______ _____ _____    ______ ____
ROOT
ATOM      1  C   UNL     1       1.815   3.754  18.182  0.00  0.00    +0.000 C 
ATOM      2  C   UNL     1       3.255   4.267  18.049  0.00  0.00    +0.000 C 
ATOM      3  C   UNL     1       4.090   3.957  19.308  0.00  0.00    +0.000 C 
ATOM      4  C   UNL     1       3.930   3.600  16.845  0.00  0.00    +0.000 C 
ATOM      5  N   UNL     1       4.874   4.590  16.403  0.00  0.00    +0.000 N 
ATOM      6  C   UNL     1       4.470   5.881  16.725  0.00  0.00    +0.000 C 
ATOM      7  O   UNL     1       5.003   6.913  16.348  0.00  0.00    +0.000 OA
ATOM      8  C   UNL     1       3.249   5.777  17.652  0.00  0.00    +0.000 C 
ENDROOT
BRANCH   5   9
ATOM      9  C   UNL     1       6.246   4.251  16.075  0.00  0.00    +0.000 C 
BRANCH   9  10
ATOM     10  C   UNL     1       6.621   4.491  14.643  0.00  0.00    +0.000 A 
ATOM     11  C   UNL     1       7.661   5.368  14.314  0.00  0.00    +0.000 A 
ATOM     12  C   UNL     1       8.106   5.473  12.995  0.00  0.00    +0.000 A 
ATOM     13  C   UNL     1       7.519   4.702  11.992  0.00  0.00    +0.000 A 
ATOM     14  C   UNL     1       6.465   3.844  12.303  0.00  0.00    +0.000 A 
ATOM     15  C   UNL     1       6.022   3.749  13.620  0.00  0.00    +0.000 A 
ATOM     16  F   UNL     1       5.017   2.907  13.899  0.00  0.00    +0.000 F 
ENDBRANCH   9  10
ENDBRANCH   5   9
BRANCH   8  17
ATOM     17  O   UNL     1       3.310   6.631  18.797  0.00  0.00    +0.000 OA
BRANCH  17  18
ATOM     18  C   UNL     1       2.431   7.678  18.896  0.00  0.00    +0.000 A 
ATOM     19  C   UNL     1       2.008   8.464  17.833  0.00  0.00    +0.000 A 
ATOM     20  C   UNL     1       1.054   9.465  18.024  0.00  0.00    +0.000 A 
ATOM     21  C   UNL     1       0.526   9.731  19.301  0.00  0.00    +0.000 A 
ATOM     22  C   UNL     1       0.949   8.966  20.390  0.00  0.00    +0.000 A 
ATOM     23  C   UNL     1       1.909   7.942  20.176  0.00  0.00    +0.000 A 
BRANCH  22  24
ATOM     24  C   UNL     1       0.405   9.176  21.790  0.00  0.00    +0.000 C 
ATOM     25  F   UNL     1       0.176  10.471  22.127  0.00  0.00    +0.000 F 
ATOM     26  F   UNL     1      -0.786   8.540  21.975  0.00  0.00    +0.000 F 
ATOM     27  F   UNL     1       1.241   8.692  22.747  0.00  0.00    +0.000 F 
ENDBRANCH  22  24
BRANCH  21  28
ATOM     28  C   UNL     1      -0.437  10.799  19.388  0.00  0.00    +0.000 C 
ATOM     29  N   UNL     1      -1.181  11.674  19.489  0.00  0.00    +0.000 NA
ENDBRANCH  21  28
ENDBRANCH  17  18
ENDBRANCH   8  17
TORSDOF 6
ENDMDL
MODEL 3
REMARK VINA RESULT:      -7.7      2.795      3.575
REMARK  Name = 
REMARK  8 active torsions:
REMARK  status: ('A' for Active; 'I' for Inactive)
REMARK    1  A    between atoms: C_1  and  C_2
REMARK    2  A    between atoms: C_2  and  C_3
REMARK    3  A    between atoms: N_5  and  C_6
REMARK    4  A    between atoms: C_6  and  C_7
REMARK    5  A    between atoms: C_16  and  O_17
REMARK    6  A    between atoms: O_17  and  C_18
REMARK    7  A    between atoms: C_21  and  C_22
REMARK    8  A    between atoms: C_24  and  C_25
REMARK                            x       y       z     vdW  Elec       q    Type
REMARK                         _______ _______ _______ _____ _____    ______ ____
ROOT
ATOM      1  C   UNL     1       0.746   4.158  20.216  0.00  0.00    +0.000 C 
ATOM      2  C   UNL     1       2.077   4.747  19.732  0.00  0.00    +0.000 C 
ATOM      3  C   UNL     1       3.219   4.471  20.730  0.00  0.00    +0.000 C 
ATOM      4  C   UNL     1       2.454   4.127  18.382  0.00  0.00    +0.000 C 
ATOM      5  N   UNL     1       3.205   5.168  17.735  0.00  0.00    +0.000 N 
ATOM      6  C   UNL     1       2.834   6.433  18.177  0.00  0.00    +0.000 C 
ATOM      7  O   UNL     1       3.202   7.495  17.699  0.00  0.00    +0.000 OA
ATOM      8  C   UNL     1       1.897   6.258  19.382  0.00  0.00    +0.000 C 
ENDROOT
BRANCH   5   9
ATOM      9  C   UNL     1       4.462   4.904  17.062  0.00  0.00    +0.000 C 
BRANCH   9  10
ATOM     10  C   UNL     1       5.649   5.589  17.669  0.00  0.00    +0.000 A 
ATOM     11  C   UNL     1       6.225   5.107  18.851  0.00  0.00    +0.000 A 
ATOM     12  C   UNL     1       7.418   5.653  19.330  0.00  0.00    +0.000 A 
ATOM     13  C   UNL     1       8.048   6.684  18.632  0.00  0.00    +0.000 A 
ATOM     14  C   UNL     1       7.470   7.189  17.469  0.00  0.00    +0.000 A 
ATOM     15  C   UNL     1       6.277   6.644  17.000  0.00  0.00    +0.000 A 
ATOM     16  F   UNL     1       5.747   7.135  15.871  0.00  0.00    +0.000 F 
ENDBRANCH   9  10
ENDBRANCH   5   9
BRANCH   8  17
ATOM     17  O   UNL     1       2.206   7.104  20.492  0.00  0.00    +0.000 OA
BRANCH  17  18
ATOM     18  C   UNL     1       1.391   8.172  20.763  0.00  0.00    +0.000 A 
ATOM     19  C   UNL     1       1.216   8.742  22.017  0.00  0.00    +0.000 A 
ATOM     20  C   UNL     1       0.417   9.875  22.179  0.00  0.00    +0.000 A 
ATOM     21  C   UNL     1      -0.263  10.446  21.088  0.00  0.00    +0.000 A 
ATOM     22  C   UNL     1      -0.118   9.880  19.818  0.00  0.00    +0.000 A 
ATOM     23  C   UNL     1       0.710   8.738  19.669  0.00  0.00    +0.000 A 
BRANCH  22  24
ATOM     24  C   UNL     1      -0.799  10.457  18.591  0.00  0.00    +0.000 C 
ATOM     25  F   UNL     1      -0.483  11.747  18.314  0.00  0.00    +0.000 F 
ATOM     26  F   UNL     1      -0.491   9.759  17.463  0.00  0.00    +0.000 F 
ATOM     27  F   UNL     1      -2.154  10.426  18.692  0.00  0.00    +0.000 F 
ENDBRANCH  22  24
BRANCH  21  28
ATOM     28  C   UNL     1      -1.077  11.601  21.371  0.00  0.00    +0.000 C 
ATOM     29  N   UNL     1      -1.717  12.542  21.556  0.00  0.00    +0.000 NA
ENDBRANCH  21  28
ENDBRANCH  17  18
ENDBRANCH   8  17
TORSDOF 6
ENDMDL
MODEL 4
REMARK VINA RESULT:      -7.6      3.943     10.123
REMARK  Name = 
REMARK  8 active torsions:
REMARK  status: ('A' for Active; 'I' for Inactive)
REMARK    1  A    between atoms: C_1  and  C_2
REMARK    2  A    between atoms: C_2  and  C_3
REMARK    3  A    between atoms: N_5  and  C_6
REMARK    4  A    between atoms: C_6  and  C_7
REMARK    5  A    between atoms: C_16  and  O_17
REMARK    6  A    between atoms: O_17  and  C_18
REMARK    7  A    between atoms: C_21  and  C_22
REMARK    8  A    between atoms: C_24  and  C_25
REMARK                            x       y       z     vdW  Elec       q    Type
REMARK                         _______ _______ _______ _____ _____    ______ ____
ROOT
ATOM      1  C   UNL     1      -0.513   9.687  18.331  0.00  0.00    +0.000 C 
ATOM      2  C   UNL     1       0.140  10.393  19.527  0.00  0.00    +0.000 C 
ATOM      3  C   UNL     1       1.373  11.214  19.101  0.00  0.00    +0.000 C 
ATOM      4  C   UNL     1      -0.871  11.343  20.179  0.00  0.00    +0.000 C 
ATOM      5  N   UNL     1      -0.468  11.362  21.559  0.00  0.00    +0.000 N 
ATOM      6  C   UNL     1       0.174  10.187  21.933  0.00  0.00    +0.000 C 
ATOM      7  O   UNL     1       0.491   9.876  23.071  0.00  0.00    +0.000 OA
ATOM      8  C   UNL     1       0.430   9.362  20.662  0.00  0.00    +0.000 C 
ENDROOT
BRANCH   5   9
ATOM      9  C   UNL     1      -0.354  12.598  22.309  0.00  0.00    +0.000 C 
BRANCH   9  10
ATOM     10  C   UNL     1      -1.595  12.994  23.050  0.00  0.00    +0.000 A 
ATOM     11  C   UNL     1      -2.678  12.112  23.153  0.00  0.00    +0.000 A 
ATOM     12  C   UNL     1      -3.767  12.423  23.969  0.00  0.00    +0.000 A 
ATOM     13  C   UNL     1      -3.785  13.616  24.692  0.00  0.00    +0.000 A 
ATOM     14  C   UNL     1      -2.725  14.513  24.577  0.00  0.00    +0.000 A 
ATOM     15  C   UNL     1      -1.645  14.200  23.756  0.00  0.00    +0.000 A 
ATOM     16  F   UNL     1      -0.629  15.070  23.672  0.00  0.00    +0.000 F 
ENDBRANCH   9  10
ENDBRANCH   5   9
BRANCH   8  17
ATOM     17  O   UNL     1       1.752   8.824  20.571  0.00  0.00    +0.000 OA
BRANCH  17  18
ATOM     18  C   UNL     1       1.957   7.678  19.847  0.00  0.00    +0.000 A 
ATOM     19  C   UNL     1       2.291   7.637  18.500  0.00  0.00    +0.000 A 
ATOM     20  C   UNL     1       2.549   6.419  17.868  0.00  0.00    +0.000 A 
ATOM     21  C   UNL     1       2.438   5.202  18.564  0.00  0.00    +0.000 A 
ATOM     22  C   UNL     1       2.085   5.215  19.915  0.00  0.00    +0.000 A 
ATOM     23  C   UNL     1       1.841   6.463  20.547  0.00  0.00    +0.000 A 
BRANCH  22  24
ATOM     24  C   UNL     1       1.973   3.945  20.737  0.00  0.00    +0.000 C 
ATOM     25  F   UNL     1       2.055   4.122  22.080  0.00  0.00    +0.000 F 
ATOM     26  F   UNL     1       0.788   3.306  20.529  0.00  0.00    +0.000 F 
ATOM     27  F   UNL     1       2.943   3.044  20.428  0.00  0.00    +0.000 F 
ENDBRANCH  22  24
BRANCH  21  28
ATOM     28  C   UNL     1       2.706   4.004  17.810  0.00  0.00    +0.000 C 
ATOM     29  N   UNL     1       2.956   3.037  17.234  0.00  0.00    +0.000 NA
ENDBRANCH  21  28
ENDBRANCH  17  18
ENDBRANCH   8  17
TORSDOF 6
ENDMDL
MODEL 5
REMARK VINA RESULT:      -7.6      1.451      1.904
REMARK  Name = 
REMARK  8 active torsions:
REMARK  status: ('A' for Active; 'I' for Inactive)
REMARK    1  A    between atoms: C_1  and  C_2
REMARK    2  A    between atoms: C_2  and  C_3
REMARK    3  A    between atoms: N_5  and  C_6
REMARK    4  A    between atoms: C_6  and  C_7
REMARK    5  A    between atoms: C_16  and  O_17
REMARK    6  A    between atoms: O_17  and  C_18
REMARK    7  A    between atoms: C_21  and  C_22
REMARK    8  A    between atoms: C_24  and  C_25
REMARK                            x       y       z     vdW  Elec       q    Type
REMARK                         _______ _______ _______ _____ _____    ______ ____
ROOT
ATOM      1  C   UNL     1       0.622   4.086  19.944  0.00  0.00    +0.000 C 
ATOM      2  C   UNL     1       2.087   4.536  19.868  0.00  0.00    +0.000 C 
ATOM      3  C   UNL     1       2.785   4.440  21.239  0.00  0.00    +0.000 C 
ATOM      4  C   UNL     1       2.847   3.650  18.875  0.00  0.00    +0.000 C 
ATOM      5  N   UNL     1       3.866   4.523  18.361  0.00  0.00    +0.000 N 
ATOM      6  C   UNL     1       3.484   5.860  18.408  0.00  0.00    +0.000 C 
ATOM      7  O   UNL     1       4.091   6.796  17.910  0.00  0.00    +0.000 OA
ATOM      8  C   UNL     1       2.177   5.950  19.212  0.00  0.00    +0.000 C 
ENDROOT
BRANCH   5   9
ATOM      9  C   UNL     1       5.249   4.102  18.238  0.00  0.00    +0.000 C 
BRANCH   9  10
ATOM     10  C   UNL     1       5.817   4.228  16.856  0.00  0.00    +0.000 A 
ATOM     11  C   UNL     1       5.019   3.992  15.730  0.00  0.00    +0.000 A 
ATOM     12  C   UNL     1       5.507   4.258  14.450  0.00  0.00    +0.000 A 
ATOM     13  C   UNL     1       6.796   4.763  14.281  0.00  0.00    +0.000 A 
ATOM     14  C   UNL     1       7.610   4.976  15.392  0.00  0.00    +0.000 A 
ATOM     15  C   UNL     1       7.118   4.704  16.666  0.00  0.00    +0.000 A 
ATOM     16  F   UNL     1       7.912   4.930  17.723  0.00  0.00    +0.000 F 
ENDBRANCH   9  10
ENDBRANCH   5   9
BRANCH   8  17
ATOM     17  O   UNL     1       2.162   6.995  20.188  0.00  0.00    +0.000 OA
BRANCH  17  18
ATOM     18  C   UNL     1       1.600   8.202  19.864  0.00  0.00    +0.000 A 
ATOM     19  C   UNL     1       1.526   8.727  18.582  0.00  0.00    +0.000 A 
ATOM     20  C   UNL     1       0.869   9.936  18.344  0.00  0.00    +0.000 A 
ATOM     21  C   UNL     1       0.301  10.673  19.399  0.00  0.00    +0.000 A 
ATOM     22  C   UNL     1       0.378  10.175  20.702  0.00  0.00    +0.000 A 
ATOM     23  C   UNL     1       1.036   8.937  20.924  0.00  0.00    +0.000 A 
BRANCH  22  24
ATOM     24  C   UNL     1      -0.235  10.900  21.885  0.00  0.00    +0.000 C 
ATOM     25  F   UNL     1       0.218  12.165  22.079  0.00  0.00    +0.000 F 
ATOM     26  F   UNL     1      -1.587  11.015  21.768  0.00  0.00    +0.000 F 
ATOM     27  F   UNL     1      -0.015  10.249  23.059  0.00  0.00    +0.000 F 
ENDBRANCH  22  24
BRANCH  21  28
ATOM     28  C   UNL     1      -0.335  11.916  19.045  0.00  0.00    +0.000 C 
ATOM     29  N   UNL     1      -0.877  12.902  18.791  0.00  0.00    +0.000 NA
ENDBRANCH  21  28
ENDBRANCH  17  18
ENDBRANCH   8  17
TORSDOF 6
ENDMDL
MODEL 6
REMARK VINA RESULT:      -7.6      2.752      3.535
REMARK  Name = 
REMARK  8 active torsions:
REMARK  status: ('A' for Active; 'I' for Inactive)
REMARK    1  A    between atoms: C_1  and  C_2
REMARK    2  A    between atoms: C_2  and  C_3
REMARK    3  A    between atoms: N_5  and  C_6
REMARK    4  A    between atoms: C_6  and  C_7
REMARK    5  A    between atoms: C_16  and  O_17
REMARK    6  A    between atoms: O_17  and  C_18
REMARK    7  A    between atoms: C_21  and  C_22
REMARK    8  A    between atoms: C_24  and  C_25
REMARK                            x       y       z     vdW  Elec       q    Type
REMARK                         _______ _______ _______ _____ _____    ______ ____
ROOT
ATOM      1  C   UNL     1       0.789   3.963  20.245  0.00  0.00    +0.000 C 
ATOM      2  C   UNL     1       2.097   4.586  19.740  0.00  0.00    +0.000 C 
ATOM      3  C   UNL     1       3.255   4.365  20.732  0.00  0.00    +0.000 C 
ATOM      4  C   UNL     1       2.484   3.955  18.397  0.00  0.00    +0.000 C 
ATOM      5  N   UNL     1       3.194   5.009  17.726  0.00  0.00    +0.000 N 
ATOM      6  C   UNL     1       2.786   6.269  18.149  0.00  0.00    +0.000 C 
ATOM      7  O   UNL     1       3.115   7.333  17.649  0.00  0.00    +0.000 OA
ATOM      8  C   UNL     1       1.864   6.084  19.365  0.00  0.00    +0.000 C 
ENDROOT
BRANCH   5   9
ATOM      9  C   UNL     1       4.454   4.774  17.047  0.00  0.00    +0.000 C 
BRANCH   9  10
ATOM     10  C   UNL     1       5.623   5.506  17.633  0.00  0.00    +0.000 A 
ATOM     11  C   UNL     1       6.225   5.062  18.817  0.00  0.00    +0.000 A 
ATOM     12  C   UNL     1       7.403   5.654  19.276  0.00  0.00    +0.000 A 
ATOM     13  C   UNL     1       7.993   6.694  18.558  0.00  0.00    +0.000 A 
ATOM     14  C   UNL     1       7.388   7.163  17.393  0.00  0.00    +0.000 A 
ATOM     15  C   UNL     1       6.210   6.572  16.943  0.00  0.00    +0.000 A 
ATOM     16  F   UNL     1       5.654   7.028  15.812  0.00  0.00    +0.000 F 
ENDBRANCH   9  10
ENDBRANCH   5   9
BRANCH   8  17
ATOM     17  O   UNL     1       2.154   6.960  20.457  0.00  0.00    +0.000 OA
BRANCH  17  18
ATOM     18  C   UNL     1       1.320   8.019  20.702  0.00  0.00    +0.000 A 
ATOM     19  C   UNL     1       0.384   8.076  21.725  0.00  0.00    +0.000 A 
ATOM     20  C   UNL     1      -0.372   9.230  21.936  0.00  0.00    +0.000 A 
ATOM     21  C   UNL     1      -0.235  10.351  21.097  0.00  0.00    +0.000 A 
ATOM     22  C   UNL     1       0.688  10.313  20.049  0.00  0.00    +0.000 A 
ATOM     23  C   UNL     1       1.458   9.137  19.857  0.00  0.00    +0.000 A 
BRANCH  22  24
ATOM     24  C   UNL     1       0.910  11.492  19.121  0.00  0.00    +0.000 C 
ATOM     25  F   UNL     1      -0.193  11.905  18.445  0.00  0.00    +0.000 F 
ATOM     26  F   UNL     1       1.355  12.592  19.791  0.00  0.00    +0.000 F 
ATOM     27  F   UNL     1       1.845  11.230  18.169  0.00  0.00    +0.000 F 
ENDBRANCH  22  24
BRANCH  21  28
ATOM     28  C   UNL     1      -1.078  11.481  21.393  0.00  0.00    +0.000 C 
ATOM     29  N   UNL     1      -1.768  12.364  21.666  0.00  0.00    +0.000 NA
ENDBRANCH  21  28
ENDBRANCH  17  18
ENDBRANCH   8  17
TORSDOF 6
ENDMDL
MODEL 7
REMARK VINA RESULT:      -7.5      3.686     10.316
REMARK  Name = 
REMARK  8 active torsions:
REMARK  status: ('A' for Active; 'I' for Inactive)
REMARK    1  A    between atoms: C_1  and  C_2
REMARK    2  A    between atoms: C_2  and  C_3
REMARK    3  A    between atoms: N_5  and  C_6
REMARK    4  A    between atoms: C_6  and  C_7
REMARK    5  A    between atoms: C_16  and  O_17
REMARK    6  A    between atoms: O_17  and  C_18
REMARK    7  A    between atoms: C_21  and  C_22
REMARK    8  A    between atoms: C_24  and  C_25
REMARK                            x       y       z     vdW  Elec       q    Type
REMARK                         _______ _______ _______ _____ _____    ______ ____
ROOT
ATOM      1  C   UNL     1      -1.065  10.008  18.046  0.00  0.00    +0.000 C 
ATOM      2  C   UNL     1      -0.254  10.670  19.167  0.00  0.00    +0.000 C 
ATOM      3  C   UNL     1       0.841  11.600  18.607  0.00  0.00    +0.000 C 
ATOM      4  C   UNL     1      -1.186  11.501  20.056  0.00  0.00    +0.000 C 
ATOM      5  N   UNL     1      -0.551  11.450  21.344  0.00  0.00    +0.000 N 
ATOM      6  C   UNL     1       0.209  10.297  21.509  0.00  0.00    +0.000 C 
ATOM      7  O   UNL     1       0.735   9.929  22.547  0.00  0.00    +0.000 OA
ATOM      8  C   UNL     1       0.285   9.583  20.150  0.00  0.00    +0.000 C 
ENDROOT
BRANCH   5   9
ATOM      9  C   UNL     1      -0.375  12.635  22.162  0.00  0.00    +0.000 C 
BRANCH   9  10
ATOM     10  C   UNL     1      -1.580  13.021  22.967  0.00  0.00    +0.000 A 
ATOM     11  C   UNL     1      -2.643  12.125  23.137  0.00  0.00    +0.000 A 
ATOM     12  C   UNL     1      -3.690  12.429  24.008  0.00  0.00    +0.000 A 
ATOM     13  C   UNL     1      -3.686  13.629  24.720  0.00  0.00    +0.000 A 
ATOM     14  C   UNL     1      -2.647  14.540  24.538  0.00  0.00    +0.000 A 
ATOM     15  C   UNL     1      -1.608  14.233  23.663  0.00  0.00    +0.000 A 
ATOM     16  F   UNL     1      -0.611  15.117  23.515  0.00  0.00    +0.000 F 
ENDBRANCH   9  10
ENDBRANCH   5   9
BRANCH   8  17
ATOM     17  O   UNL     1       1.598   9.143  19.793  0.00  0.00    +0.000 OA
BRANCH  17  18
ATOM     18  C   UNL     1       1.887   7.804  19.837  0.00  0.00    +0.000 A 
ATOM     19  C   UNL     1       1.393   6.913  20.780  0.00  0.00    +0.000 A 
ATOM     20  C   UNL     1       1.691   5.552  20.698  0.00  0.00    +0.000 A 
ATOM     21  C   UNL     1       2.530   5.052  19.686  0.00  0.00    +0.000 A 
ATOM     22  C   UNL     1       3.056   5.931  18.736  0.00  0.00    +0.000 A 
ATOM     23  C   UNL     1       2.731   7.309  18.825  0.00  0.00    +0.000 A 
BRANCH  22  24
ATOM     24  C   UNL     1       3.946   5.461  17.601  0.00  0.00    +0.000 C 
ATOM     25  F   UNL     1       5.141   4.945  17.986  0.00  0.00    +0.000 F 
ATOM     26  F   UNL     1       3.354   4.484  16.860  0.00  0.00    +0.000 F 
ATOM     27  F   UNL     1       4.244   6.462  16.731  0.00  0.00    +0.000 F 
ENDBRANCH  22  24
BRANCH  21  28
ATOM     28  C   UNL     1       2.789   3.635  19.708  0.00  0.00    +0.000 C 
ATOM     29  N   UNL     1       3.030   2.508  19.753  0.00  0.00    +0.000 NA
ENDBRANCH  21  28
ENDBRANCH  17  18
ENDBRANCH   8  17
TORSDOF 6
ENDMDL
MODEL 8
REMARK VINA RESULT:      -7.5      2.156      2.884
REMARK  Name = 
REMARK  8 active torsions:
REMARK  status: ('A' for Active; 'I' for Inactive)
REMARK    1  A    between atoms: C_1  and  C_2
REMARK    2  A    between atoms: C_2  and  C_3
REMARK    3  A    between atoms: N_5  and  C_6
REMARK    4  A    between atoms: C_6  and  C_7
REMARK    5  A    between atoms: C_16  and  O_17
REMARK    6  A    between atoms: O_17  and  C_18
REMARK    7  A    between atoms: C_21  and  C_22
REMARK    8  A    between atoms: C_24  and  C_25
REMARK                            x       y       z     vdW  Elec       q    Type
REMARK                         _______ _______ _______ _____ _____    ______ ____
ROOT
ATOM      1  C   UNL     1       0.527   3.791  20.081  0.00  0.00    +0.000 C 
ATOM      2  C   UNL     1       2.005   4.201  20.109  0.00  0.00    +0.000 C 
ATOM      3  C   UNL     1       2.673   3.835  21.449  0.00  0.00    +0.000 C 
ATOM      4  C   UNL     1       2.759   3.488  18.982  0.00  0.00    +0.000 C 
ATOM      5  N   UNL     1       3.813   4.408  18.651  0.00  0.00    +0.000 N 
ATOM      6  C   UNL     1       3.467   5.724  18.935  0.00  0.00    +0.000 C 
ATOM      7  O   UNL     1       4.109   6.716  18.625  0.00  0.00    +0.000 OA
ATOM      8  C   UNL     1       2.148   5.708  19.723  0.00  0.00    +0.000 C 
ENDROOT
BRANCH   5   9
ATOM      9  C   UNL     1       5.185   3.973  18.472  0.00  0.00    +0.000 C 
BRANCH   9  10
ATOM     10  C   UNL     1       5.727   4.175  17.089  0.00  0.00    +0.000 A 
ATOM     11  C   UNL     1       4.889   4.078  15.971  0.00  0.00    +0.000 A 
ATOM     12  C   UNL     1       5.362   4.416  14.702  0.00  0.00    +0.000 A 
ATOM     13  C   UNL     1       6.675   4.855  14.536  0.00  0.00    +0.000 A 
ATOM     14  C   UNL     1       7.526   4.930  15.637  0.00  0.00    +0.000 A 
ATOM     15  C   UNL     1       7.050   4.586  16.899  0.00  0.00    +0.000 A 
ATOM     16  F   UNL     1       7.881   4.680  17.947  0.00  0.00    +0.000 F 
ENDBRANCH   9  10
ENDBRANCH   5   9
BRANCH   8  17
ATOM     17  O   UNL     1       2.143   6.557  20.874  0.00  0.00    +0.000 OA
BRANCH  17  18
ATOM     18  C   UNL     1       1.356   7.679  20.871  0.00  0.00    +0.000 A 
ATOM     19  C   UNL     1       0.566   8.100  21.931  0.00  0.00    +0.000 A 
ATOM     20  C   UNL     1      -0.147   9.298  21.857  0.00  0.00    +0.000 A 
ATOM     21  C   UNL     1      -0.117  10.089  20.694  0.00  0.00    +0.000 A 
ATOM     22  C   UNL     1       0.655   9.678  19.605  0.00  0.00    +0.000 A 
ATOM     23  C   UNL     1       1.386   8.465  19.703  0.00  0.00    +0.000 A 
BRANCH  22  24
ATOM     24  C   UNL     1       0.757  10.492  18.329  0.00  0.00    +0.000 C 
ATOM     25  F   UNL     1       1.118  11.789  18.504  0.00  0.00    +0.000 F 
ATOM     26  F   UNL     1       1.677   9.975  17.467  0.00  0.00    +0.000 F 
ATOM     27  F   UNL     1      -0.417  10.528  17.646  0.00  0.00    +0.000 F 
ENDBRANCH  22  24
BRANCH  21  28
ATOM     28  C   UNL     1      -0.906  11.295  20.716  0.00  0.00    +0.000 C 
ATOM     29  N   UNL     1      -1.572  12.235  20.717  0.00  0.00    +0.000 NA
ENDBRANCH  21  28
ENDBRANCH  17  18
ENDBRANCH   8  17
TORSDOF 6
ENDMDL
MODEL 9
REMARK VINA RESULT:      -7.5      3.824     10.243
REMARK  Name = 
REMARK  8 active torsions:
REMARK  status: ('A' for Active; 'I' for Inactive)
REMARK    1  A    between atoms: C_1  and  C_2
REMARK    2  A    between atoms: C_2  and  C_3
REMARK    3  A    between atoms: N_5  and  C_6
REMARK    4  A    between atoms: C_6  and  C_7
REMARK    5  A    between atoms: C_16  and  O_17
REMARK    6  A    between atoms: O_17  and  C_18
REMARK    7  A    between atoms: C_21  and  C_22
REMARK    8  A    between atoms: C_24  and  C_25
REMARK                            x       y       z     vdW  Elec       q    Type
REMARK                         _______ _______ _______ _____ _____    ______ ____
ROOT
ATOM      1  C   UNL     1      -0.469  10.057  18.391  0.00  0.00    +0.000 C 
ATOM      2  C   UNL     1       0.001  10.623  19.737  0.00  0.00    +0.000 C 
ATOM      3  C   UNL     1       1.264  11.494  19.581  0.00  0.00    +0.000 C 
ATOM      4  C   UNL     1      -1.108  11.485  20.349  0.00  0.00    +0.000 C 
ATOM      5  N   UNL     1      -0.896  11.346  21.764  0.00  0.00    +0.000 N 
ATOM      6  C   UNL     1      -0.286  10.138  22.086  0.00  0.00    +0.000 C 
ATOM      7  O   UNL     1      -0.120   9.698  23.213  0.00  0.00    +0.000 OA
ATOM      8  C   UNL     1       0.157   9.467  20.776  0.00  0.00    +0.000 C 
ENDROOT
BRANCH   5   9
ATOM      9  C   UNL     1      -0.910  12.487  22.659  0.00  0.00    +0.000 C 
BRANCH   9  10
ATOM     10  C   UNL     1      -2.235  13.180  22.764  0.00  0.00    +0.000 A 
ATOM     11  C   UNL     1      -2.452  14.409  22.129  0.00  0.00    +0.000 A 
ATOM     12  C   UNL     1      -3.727  14.975  22.102  0.00  0.00    +0.000 A 
ATOM     13  C   UNL     1      -4.800  14.319  22.706  0.00  0.00    +0.000 A 
ATOM     14  C   UNL     1      -4.591  13.108  23.364  0.00  0.00    +0.000 A 
ATOM     15  C   UNL     1      -3.315  12.552  23.393  0.00  0.00    +0.000 A 
ATOM     16  F   UNL     1      -3.140  11.379  24.018  0.00  0.00    +0.000 F 
ENDBRANCH   9  10
ENDBRANCH   5   9
BRANCH   8  17
ATOM     17  O   UNL     1       1.489   8.951  20.805  0.00  0.00    +0.000 OA
BRANCH  17  18
ATOM     18  C   UNL     1       1.804   7.875  20.017  0.00  0.00    +0.000 A 
ATOM     19  C   UNL     1       2.232   7.951  18.699  0.00  0.00    +0.000 A 
ATOM     20  C   UNL     1       2.597   6.799  18.000  0.00  0.00    +0.000 A 
ATOM     21  C   UNL     1       2.504   5.529  18.597  0.00  0.00    +0.000 A 
ATOM     22  C   UNL     1       2.059   5.422  19.917  0.00  0.00    +0.000 A 
ATOM     23  C   UNL     1       1.706   6.605  20.617  0.00  0.00    +0.000 A 
BRANCH  22  24
ATOM     24  C   UNL     1       1.959   4.090  20.634  0.00  0.00    +0.000 C 
ATOM     25  F   UNL     1       2.853   3.152  20.228  0.00  0.00    +0.000 F 
ATOM     26  F   UNL     1       2.155   4.217  21.976  0.00  0.00    +0.000 F 
ATOM     27  F   UNL     1       0.735   3.516  20.487  0.00  0.00    +0.000 F 
ENDBRANCH  22  24
BRANCH  21  28
ATOM     28  C   UNL     1       2.887   4.406  17.779  0.00  0.00    +0.000 C 
ATOM     29  N   UNL     1       3.203   3.484  17.164  0.00  0.00    +0.000 NA
ENDBRANCH  21  28
ENDBRANCH  17  18
ENDBRANCH   8  17
TORSDOF 6
ENDMDL
