MODEL 1
REMARK VINA RESULT:      -8.7      0.000      0.000
REMARK  Name = 
REMARK  5 active torsions:
REMARK  status: ('A' for Active; 'I' for Inactive)
REMARK    1  A    between atoms: N_3  and  C_4
REMARK    2  A    between atoms: N_11  and  C_12
REMARK    3  A    between atoms: C_17  and  O_18
REMARK    4  A    between atoms: O_18  and  C_19
REMARK    5  A    between atoms: C_19  and  C_20
REMARK                            x       y       z     vdW  Elec       q    Type
REMARK                         _______ _______ _______ _____ _____    ______ ____
ROOT
ATOM      1  C   UNL     1       4.182   3.543  18.617  0.00  0.00    +0.000 A 
ATOM      2  N   UNL     1       3.897   2.227  18.453  0.00  0.00    +0.000 NA
ATOM      3  C   UNL     1       2.582   1.909  18.496  0.00  0.00    +0.000 A 
ATOM      4  C   UNL     1       1.595   2.844  18.770  0.00  0.00    +0.000 A 
ATOM      5  N   UNL     1       1.870   4.149  18.996  0.00  0.00    +0.000 NA
ATOM      6  C   UNL     1       3.180   4.480  18.904  0.00  0.00    +0.000 A 
ENDROOT
BRANCH   1  10
ATOM      7  O   UNL     1       7.352   4.712  17.539  0.00  0.00    +0.000 OA
ATOM      8  C   UNL     1       6.187   4.340  17.399  0.00  0.00    +0.000 C 
ATOM      9  N   UNL     1       5.542   4.141  16.208  0.00  0.00    +0.000 N 
ATOM     10  N   UNL     1       5.504   3.977  18.521  0.00  0.00    +0.000 N 
ATOM     11  H   UNL     1       4.533   4.057  16.286  0.00  0.00    +0.000 HD
ATOM     12  H   UNL     1       6.096   3.853  19.333  0.00  0.00    +0.000 HD
BRANCH   9  13
ATOM     13  C   UNL     1       6.097   4.206  14.914  0.00  0.00    +0.000 A 
ATOM     14  C   UNL     1       7.221   4.976  14.598  0.00  0.00    +0.000 A 
ATOM     15  C   UNL     1       7.692   5.047  13.280  0.00  0.00    +0.000 A 
ATOM     16  C   UNL     1       7.047   4.334  12.271  0.00  0.00    +0.000 A 
ATOM     17  C   UNL     1       5.961   3.536  12.599  0.00  0.00    +0.000 A 
ATOM     18  F   UNL     1       5.356   2.827  11.638  0.00  0.00    +0.000 F 
ATOM     19  C   UNL     1       5.489   3.452  13.908  0.00  0.00    +0.000 A 
ENDBRANCH   9  13
ENDBRANCH   1  10
BRANCH   6  20
ATOM     20  O   UNL     1       3.568   5.776  19.189  0.00  0.00    +0.000 OA
BRANCH  20  21
ATOM     21  C   UNL     1       3.260   6.667  18.110  0.00  0.00    +0.000 C 
BRANCH  21  22
ATOM     22  C   UNL     1       2.359   7.762  18.627  0.00  0.00    +0.000 A 
ATOM     23  C   UNL     1       1.928   8.794  17.778  0.00  0.00    +0.000 A 
ATOM     24  C   UNL     1       1.119   9.826  18.261  0.00  0.00    +0.000 A 
ATOM     25  C   UNL     1       0.735   9.842  19.601  0.00  0.00    +0.000 A 
ATOM     26  C   UNL     1       1.166   8.827  20.453  0.00  0.00    +0.000 A 
ATOM     27 CL   UNL     1       0.702   8.851  22.110  0.00  0.00    +0.000 Cl
ATOM     28  C   UNL     1       1.976   7.797  19.975  0.00  0.00    +0.000 A 
ENDBRANCH  21  22
ENDBRANCH  20  21
ENDBRANCH   6  20
TORSDOF 5
ENDMDL
MODEL 2
REMARK VINA RESULT:      -8.5      3.954      7.861
REMARK  Name = 
REMARK  5 active torsions:
REMARK  status: ('A' for Active; 'I' for Inactive)
REMARK    1  A    between atoms: N_3  and  C_4
REMARK    2  A    between atoms: N_11  and  C_12
REMARK    3  A    between atoms: C_17  and  O_18
REMARK    4  A    between atoms: O_18  and  C_19
REMARK    5  A    between atoms: C_19  and  C_20
REMARK                            x       y       z     vdW  Elec       q    Type
REMARK                         _______ _______ _______ _____ _____    ______ ____
ROOT
ATOM      1  C   UNL     1       5.544   4.709  18.768  0.00  0.00    +0.000 A 
ATOM      2  N   UNL     1       6.159   5.171  19.885  0.00  0.00    +0.000 NA
ATOM      3  C   UNL     1       7.448   5.553  19.722  0.00  0.00    +0.000 A 
ATOM      4  C   UNL     1       8.124   5.407  18.520  0.00  0.00    +0.000 A 
ATOM      5  N   UNL     1       7.541   4.891  17.413  0.00  0.00    +0.000 NA
ATOM      6  C   UNL     1       6.237   4.555  17.559  0.00  0.00    +0.000 A 
ENDROOT
BRANCH   1  10
ATOM      7  O   UNL     1       1.998   4.654  18.797  0.00  0.00    +0.000 OA
ATOM      8  C   UNL     1       3.111   5.176  18.745  0.00  0.00    +0.000 C 
ATOM      9  N   UNL     1       3.370   6.521  18.735  0.00  0.00    +0.000 N 
ATOM     10  N   UNL     1       4.196   4.355  18.822  0.00  0.00    +0.000 N 
ATOM     11  H   UNL     1       4.318   6.764  18.461  0.00  0.00    +0.000 HD
ATOM     12  H   UNL     1       3.972   3.416  19.126  0.00  0.00    +0.000 HD
BRANCH   9  13
ATOM     13  C   UNL     1       2.445   7.571  18.896  0.00  0.00    +0.000 A 
ATOM     14  C   UNL     1       2.048   8.413  17.851  0.00  0.00    +0.000 A 
ATOM     15  C   UNL     1       1.169   9.479  18.085  0.00  0.00    +0.000 A 
ATOM     16  C   UNL     1       0.668   9.699  19.366  0.00  0.00    +0.000 A 
ATOM     17  C   UNL     1       1.029   8.834  20.389  0.00  0.00    +0.000 A 
ATOM     18  F   UNL     1       0.528   9.025  21.615  0.00  0.00    +0.000 F 
ATOM     19  C   UNL     1       1.897   7.766  20.165  0.00  0.00    +0.000 A 
ENDBRANCH   9  13
ENDBRANCH   1  10
BRANCH   6  20
ATOM     20  O   UNL     1       5.575   3.953  16.506  0.00  0.00    +0.000 OA
BRANCH  20  21
ATOM     21  C   UNL     1       5.228   4.902  15.491  0.00  0.00    +0.000 C 
BRANCH  21  22
ATOM     22  C   UNL     1       5.947   4.534  14.215  0.00  0.00    +0.000 A 
ATOM     23  C   UNL     1       7.071   5.260  13.792  0.00  0.00    +0.000 A 
ATOM     24  C   UNL     1       7.720   4.940  12.596  0.00  0.00    +0.000 A 
ATOM     25  C   UNL     1       7.249   3.893  11.806  0.00  0.00    +0.000 A 
ATOM     26  C   UNL     1       6.128   3.173  12.213  0.00  0.00    +0.000 A 
ATOM     27 CL   UNL     1       5.538   1.888  11.233  0.00  0.00    +0.000 Cl
ATOM     28  C   UNL     1       5.476   3.491  13.405  0.00  0.00    +0.000 A 
ENDBRANCH  21  22
ENDBRANCH  20  21
ENDBRANCH   6  20
TORSDOF 5
ENDMDL
MODEL 3
REMARK VINA RESULT:      -8.5      4.750      6.951
REMARK  Name = 
REMARK  5 active torsions:
REMARK  status: ('A' for Active; 'I' for Inactive)
REMARK    1  A    between atoms: N_3  and  C_4
REMARK    2  A    between atoms: N_11  and  C_12
REMARK    3  A    between atoms: C_17  and  O_18
REMARK    4  A    between atoms: O_18  and  C_19
REMARK    5  A    between atoms: C_19  and  C_20
REMARK                            x       y       z     vdW  Elec       q    Type
REMARK                         _______ _______ _______ _____ _____    ______ ____
ROOT
ATOM      1  C   UNL     1       5.307   6.500  16.632  0.00  0.00    +0.000 A 
ATOM      2  N   UNL     1       5.019   5.478  15.787  0.00  0.00    +0.000 NA
ATOM      3  C   UNL     1       6.092   4.851  15.249  0.00  0.00    +0.000 A 
ATOM      4  C   UNL     1       7.395   5.270  15.476  0.00  0.00    +0.000 A 
ATOM      5  N   UNL     1       7.693   6.325  16.268  0.00  0.00    +0.000 NA
ATOM      6  C   UNL     1       6.625   6.924  16.848  0.00  0.00    +0.000 A 
ENDROOT
BRANCH   1  10
ATOM      7  O   UNL     1       2.595   7.439  18.716  0.00  0.00    +0.000 OA
ATOM      8  C   UNL     1       3.442   6.675  18.253  0.00  0.00    +0.000 C 
ATOM      9  N   UNL     1       3.560   5.339  18.532  0.00  0.00    +0.000 N 
ATOM     10  N   UNL     1       4.269   7.163  17.286  0.00  0.00    +0.000 N 
ATOM     11  H   UNL     1       4.441   4.926  18.243  0.00  0.00    +0.000 HD
ATOM     12  H   UNL     1       3.963   8.046  16.900  0.00  0.00    +0.000 HD
BRANCH   9  13
ATOM     13  C   UNL     1       2.685   4.545  19.300  0.00  0.00    +0.000 A 
ATOM     14  C   UNL     1       2.675   4.547  20.700  0.00  0.00    +0.000 A 
ATOM     15  C   UNL     1       1.822   3.691  21.410  0.00  0.00    +0.000 A 
ATOM     16  C   UNL     1       0.961   2.839  20.721  0.00  0.00    +0.000 A 
ATOM     17  C   UNL     1       0.943   2.875  19.335  0.00  0.00    +0.000 A 
ATOM     18  F   UNL     1       0.097   2.078  18.670  0.00  0.00    +0.000 F 
ATOM     19  C   UNL     1       1.782   3.727  18.619  0.00  0.00    +0.000 A 
ENDBRANCH   9  13
ENDBRANCH   1  10
BRANCH   6  20
ATOM     20  O   UNL     1       6.824   8.055  17.617  0.00  0.00    +0.000 OA
BRANCH  20  21
ATOM     21  C   UNL     1       8.178   8.151  18.073  0.00  0.00    +0.000 C 
BRANCH  21  22
ATOM     22  C   UNL     1       8.517   9.606  18.284  0.00  0.00    +0.000 A 
ATOM     23  C   UNL     1       7.962  10.598  17.459  0.00  0.00    +0.000 A 
ATOM     24  C   UNL     1       8.298  11.943  17.633  0.00  0.00    +0.000 A 
ATOM     25  C   UNL     1       9.197  12.314  18.631  0.00  0.00    +0.000 A 
ATOM     26  C   UNL     1       9.761  11.336  19.448  0.00  0.00    +0.000 A 
ATOM     27 CL   UNL     1      10.881  11.791  20.673  0.00  0.00    +0.000 Cl
ATOM     28  C   UNL     1       9.430   9.992  19.276  0.00  0.00    +0.000 A 
ENDBRANCH  21  22
ENDBRANCH  20  21
ENDBRANCH   6  20
TORSDOF 5
ENDMDL
MODEL 4
REMARK VINA RESULT:      -8.5      1.138      1.477
REMARK  Name = 
REMARK  5 active torsions:
REMARK  status: ('A' for Active; 'I' for Inactive)
REMARK    1  A    between atoms: N_3  and  C_4
REMARK    2  A    between atoms: N_11  and  C_12
REMARK    3  A    between atoms: C_17  and  O_18
REMARK    4  A    between atoms: O_18  and  C_19
REMARK    5  A    between atoms: C_19  and  C_20
REMARK                            x       y       z     vdW  Elec       q    Type
REMARK                         _______ _______ _______ _____ _____    ______ ____
ROOT
ATOM      1  C   UNL     1       4.974   3.974  19.109  0.00  0.00    +0.000 A 
ATOM      2  N   UNL     1       4.948   2.634  19.317  0.00  0.00    +0.000 NA
ATOM      3  C   UNL     1       3.732   2.116  19.613  0.00  0.00    +0.000 A 
ATOM      4  C   UNL     1       2.603   2.905  19.774  0.00  0.00    +0.000 A 
ATOM      5  N   UNL     1       2.627   4.250  19.628  0.00  0.00    +0.000 NA
ATOM      6  C   UNL     1       3.831   4.766  19.283  0.00  0.00    +0.000 A 
ENDROOT
BRANCH   1  10
ATOM      7  O   UNL     1       7.692   5.439  17.363  0.00  0.00    +0.000 OA
ATOM      8  C   UNL     1       6.604   4.873  17.474  0.00  0.00    +0.000 C 
ATOM      9  N   UNL     1       5.837   4.393  16.446  0.00  0.00    +0.000 N 
ATOM     10  N   UNL     1       6.169   4.587  18.733  0.00  0.00    +0.000 N 
ATOM     11  H   UNL     1       4.882   4.167  16.706  0.00  0.00    +0.000 HD
ATOM     12  H   UNL     1       6.886   4.684  19.441  0.00  0.00    +0.000 HD
BRANCH   9  13
ATOM     13  C   UNL     1       6.175   4.341  15.079  0.00  0.00    +0.000 A 
ATOM     14  C   UNL     1       5.490   3.553  14.148  0.00  0.00    +0.000 A 
ATOM     15  C   UNL     1       5.909   3.496  12.812  0.00  0.00    +0.000 A 
ATOM     16  C   UNL     1       7.010   4.242  12.396  0.00  0.00    +0.000 A 
ATOM     17  C   UNL     1       7.657   5.057  13.313  0.00  0.00    +0.000 A 
ATOM     18  F   UNL     1       8.698   5.798  12.912  0.00  0.00    +0.000 F 
ATOM     19  C   UNL     1       7.244   5.127  14.643  0.00  0.00    +0.000 A 
ENDBRANCH   9  13
ENDBRANCH   1  10
BRANCH   6  20
ATOM     20  O   UNL     1       3.972   6.137  19.182  0.00  0.00    +0.000 OA
BRANCH  20  21
ATOM     21  C   UNL     1       3.211   6.665  18.089  0.00  0.00    +0.000 C 
BRANCH  21  22
ATOM     22  C   UNL     1       2.327   7.775  18.605  0.00  0.00    +0.000 A 
ATOM     23  C   UNL     1       1.928   8.823  17.760  0.00  0.00    +0.000 A 
ATOM     24  C   UNL     1       1.136   9.868  18.242  0.00  0.00    +0.000 A 
ATOM     25  C   UNL     1       0.736   9.881  19.577  0.00  0.00    +0.000 A 
ATOM     26  C   UNL     1       1.135   8.850  20.426  0.00  0.00    +0.000 A 
ATOM     27 CL   UNL     1       0.651   8.870  22.077  0.00  0.00    +0.000 Cl
ATOM     28  C   UNL     1       1.928   7.807  19.949  0.00  0.00    +0.000 A 
ENDBRANCH  21  22
ENDBRANCH  20  21
ENDBRANCH   6  20
TORSDOF 5
ENDMDL
MODEL 5
REMARK VINA RESULT:      -8.4      1.062      1.431
REMARK  Name = 
REMARK  5 active torsions:
REMARK  status: ('A' for Active; 'I' for Inactive)
REMARK    1  A    between atoms: N_3  and  C_4
REMARK    2  A    between atoms: N_11  and  C_12
REMARK    3  A    between atoms: C_17  and  O_18
REMARK    4  A    between atoms: O_18  and  C_19
REMARK    5  A    between atoms: C_19  and  C_20
REMARK                            x       y       z     vdW  Elec       q    Type
REMARK                         _______ _______ _______ _____ _____    ______ ____
ROOT
ATOM      1  C   UNL     1       4.176   4.016  18.123  0.00  0.00    +0.000 A 
ATOM      2  N   UNL     1       3.932   2.725  17.787  0.00  0.00    +0.000 NA
ATOM      3  C   UNL     1       2.632   2.349  17.841  0.00  0.00    +0.000 A 
ATOM      4  C   UNL     1       1.626   3.194  18.285  0.00  0.00    +0.000 A 
ATOM      5  N   UNL     1       1.865   4.466  18.680  0.00  0.00    +0.000 NA
ATOM      6  C   UNL     1       3.156   4.862  18.581  0.00  0.00    +0.000 A 
ENDROOT
BRANCH   1  10
ATOM      7  O   UNL     1       7.326   5.245  17.051  0.00  0.00    +0.000 OA
ATOM      8  C   UNL     1       6.192   4.790  16.907  0.00  0.00    +0.000 C 
ATOM      9  N   UNL     1       5.617   4.422  15.720  0.00  0.00    +0.000 N 
ATOM     10  N   UNL     1       5.476   4.514  18.033  0.00  0.00    +0.000 N 
ATOM     11  H   UNL     1       4.611   4.287  15.765  0.00  0.00    +0.000 HD
ATOM     12  H   UNL     1       6.034   4.517  18.878  0.00  0.00    +0.000 HD
BRANCH   9  13
ATOM     13  C   UNL     1       6.228   4.375  14.451  0.00  0.00    +0.000 A 
ATOM     14  C   UNL     1       7.265   5.232  14.066  0.00  0.00    +0.000 A 
ATOM     15  C   UNL     1       7.794   5.178  12.770  0.00  0.00    +0.000 A 
ATOM     16  C   UNL     1       7.298   4.252  11.854  0.00  0.00    +0.000 A 
ATOM     17  C   UNL     1       6.301   3.375  12.256  0.00  0.00    +0.000 A 
ATOM     18  F   UNL     1       5.841   2.465  11.388  0.00  0.00    +0.000 F 
ATOM     19  C   UNL     1       5.773   3.416  13.545  0.00  0.00    +0.000 A 
ENDBRANCH   9  13
ENDBRANCH   1  10
BRANCH   6  20
ATOM     20  O   UNL     1       3.510   6.121  19.028  0.00  0.00    +0.000 OA
BRANCH  20  21
ATOM     21  C   UNL     1       2.954   7.149  18.201  0.00  0.00    +0.000 C 
BRANCH  21  22
ATOM     22  C   UNL     1       2.105   8.056  19.058  0.00  0.00    +0.000 A 
ATOM     23  C   UNL     1       1.843   7.733  20.399  0.00  0.00    +0.000 A 
ATOM     24  C   UNL     1       1.032   8.554  21.187  0.00  0.00    +0.000 A 
ATOM     25  C   UNL     1       0.469   9.707  20.642  0.00  0.00    +0.000 A 
ATOM     26  C   UNL     1       0.716  10.031  19.309  0.00  0.00    +0.000 A 
ATOM     27 CL   UNL     1       0.013  11.447  18.631  0.00  0.00    +0.000 Cl
ATOM     28  C   UNL     1       1.523   9.211  18.519  0.00  0.00    +0.000 A 
ENDBRANCH  21  22
ENDBRANCH  20  21
ENDBRANCH   6  20
TORSDOF 5
ENDMDL
MODEL 6
REMARK VINA RESULT:      -8.4      4.597      6.915
REMARK  Name = 
REMARK  5 active torsions:
REMARK  status: ('A' for Active; 'I' for Inactive)
REMARK    1  A    between atoms: N_3  and  C_4
REMARK    2  A    between atoms: N_11  and  C_12
REMARK    3  A    between atoms: C_17  and  O_18
REMARK    4  A    between atoms: O_18  and  C_19
REMARK    5  A    between atoms: C_19  and  C_20
REMARK                            x       y       z     vdW  Elec       q    Type
REMARK                         _______ _______ _______ _____ _____    ______ ____
ROOT
ATOM      1  C   UNL     1       5.266   6.372  16.517  0.00  0.00    +0.000 A 
ATOM      2  N   UNL     1       4.931   5.308  15.746  0.00  0.00    +0.000 NA
ATOM      3  C   UNL     1       5.971   4.660  15.168  0.00  0.00    +0.000 A 
ATOM      4  C   UNL     1       7.282   5.097  15.285  0.00  0.00    +0.000 A 
ATOM      5  N   UNL     1       7.624   6.192  16.002  0.00  0.00    +0.000 NA
ATOM      6  C   UNL     1       6.592   6.814  16.622  0.00  0.00    +0.000 A 
ENDROOT
BRANCH   1  10
ATOM      7  O   UNL     1       2.650   7.379  18.690  0.00  0.00    +0.000 OA
ATOM      8  C   UNL     1       3.460   6.593  18.199  0.00  0.00    +0.000 C 
ATOM      9  N   UNL     1       3.549   5.254  18.470  0.00  0.00    +0.000 N 
ATOM     10  N   UNL     1       4.269   7.061  17.206  0.00  0.00    +0.000 N 
ATOM     11  H   UNL     1       4.410   4.818  18.152  0.00  0.00    +0.000 HD
ATOM     12  H   UNL     1       3.974   7.954  16.832  0.00  0.00    +0.000 HD
BRANCH   9  13
ATOM     13  C   UNL     1       2.678   4.482  19.265  0.00  0.00    +0.000 A 
ATOM     14  C   UNL     1       2.683   4.514  20.664  0.00  0.00    +0.000 A 
ATOM     15  C   UNL     1       1.833   3.679  21.401  0.00  0.00    +0.000 A 
ATOM     16  C   UNL     1       0.960   2.817  20.741  0.00  0.00    +0.000 A 
ATOM     17  C   UNL     1       0.927   2.823  19.354  0.00  0.00    +0.000 A 
ATOM     18  F   UNL     1       0.070   2.017  18.716  0.00  0.00    +0.000 F 
ATOM     19  C   UNL     1       1.763   3.655  18.611  0.00  0.00    +0.000 A 
ENDBRANCH   9  13
ENDBRANCH   1  10
BRANCH   6  20
ATOM     20  O   UNL     1       6.832   7.983  17.319  0.00  0.00    +0.000 OA
BRANCH  20  21
ATOM     21  C   UNL     1       8.104   7.952  17.977  0.00  0.00    +0.000 C 
BRANCH  21  22
ATOM     22  C   UNL     1       8.513   9.367  18.308  0.00  0.00    +0.000 A 
ATOM     23  C   UNL     1       9.347   9.633  19.406  0.00  0.00    +0.000 A 
ATOM     24  C   UNL     1       9.702  10.944  19.733  0.00  0.00    +0.000 A 
ATOM     25  C   UNL     1       9.224  12.007  18.969  0.00  0.00    +0.000 A 
ATOM     26  C   UNL     1       8.389  11.754  17.883  0.00  0.00    +0.000 A 
ATOM     27 CL   UNL     1       7.789  13.066  16.945  0.00  0.00    +0.000 Cl
ATOM     28  C   UNL     1       8.029  10.447  17.555  0.00  0.00    +0.000 A 
ENDBRANCH  21  22
ENDBRANCH  20  21
ENDBRANCH   6  20
TORSDOF 5
ENDMDL
MODEL 7
REMARK VINA RESULT:      -8.2      1.568      1.949
REMARK  Name = 
REMARK  5 active torsions:
REMARK  status: ('A' for Active; 'I' for Inactive)
REMARK    1  A    between atoms: N_3  and  C_4
REMARK    2  A    between atoms: N_11  and  C_12
REMARK    3  A    between atoms: C_17  and  O_18
REMARK    4  A    between atoms: O_18  and  C_19
REMARK    5  A    between atoms: C_19  and  C_20
REMARK                            x       y       z     vdW  Elec       q    Type
REMARK                         _______ _______ _______ _____ _____    ______ ____
ROOT
ATOM      1  C   UNL     1       4.348   4.677  18.565  0.00  0.00    +0.000 A 
ATOM      2  N   UNL     1       5.165   3.632  18.846  0.00  0.00    +0.000 NA
ATOM      3  C   UNL     1       4.562   2.562  19.418  0.00  0.00    +0.000 A 
ATOM      4  C   UNL     1       3.220   2.560  19.769  0.00  0.00    +0.000 A 
ATOM      5  N   UNL     1       2.407   3.618  19.549  0.00  0.00    +0.000 NA
ATOM      6  C   UNL     1       2.995   4.671  18.932  0.00  0.00    +0.000 A 
ENDROOT
BRANCH   1  10
ATOM      7  O   UNL     1       5.675   6.997  16.233  0.00  0.00    +0.000 OA
ATOM      8  C   UNL     1       5.260   5.903  16.614  0.00  0.00    +0.000 C 
ATOM      9  N   UNL     1       5.265   4.742  15.888  0.00  0.00    +0.000 N 
ATOM     10  N   UNL     1       4.865   5.797  17.914  0.00  0.00    +0.000 N 
ATOM     11  H   UNL     1       4.683   4.004  16.273  0.00  0.00    +0.000 HD
ATOM     12  H   UNL     1       5.152   6.579  18.489  0.00  0.00    +0.000 HD
BRANCH   9  13
ATOM     13  C   UNL     1       5.841   4.529  14.619  0.00  0.00    +0.000 A 
ATOM     14  C   UNL     1       5.289   3.674  13.659  0.00  0.00    +0.000 A 
ATOM     15  C   UNL     1       5.939   3.457  12.437  0.00  0.00    +0.000 A 
ATOM     16  C   UNL     1       7.140   4.109  12.162  0.00  0.00    +0.000 A 
ATOM     17  C   UNL     1       7.658   4.991  13.099  0.00  0.00    +0.000 A 
ATOM     18  F   UNL     1       8.796   5.640  12.827  0.00  0.00    +0.000 F 
ATOM     19  C   UNL     1       7.016   5.219  14.315  0.00  0.00    +0.000 A 
ENDBRANCH   9  13
ENDBRANCH   1  10
BRANCH   6  20
ATOM     20  O   UNL     1       2.264   5.826  18.729  0.00  0.00    +0.000 OA
BRANCH  20  21
ATOM     21  C   UNL     1       2.248   6.652  19.899  0.00  0.00    +0.000 C 
BRANCH  21  22
ATOM     22  C   UNL     1       1.823   8.045  19.504  0.00  0.00    +0.000 A 
ATOM     23  C   UNL     1       2.136   8.556  18.234  0.00  0.00    +0.000 A 
ATOM     24  C   UNL     1       1.770   9.857  17.877  0.00  0.00    +0.000 A 
ATOM     25  C   UNL     1       1.091  10.665  18.787  0.00  0.00    +0.000 A 
ATOM     26  C   UNL     1       0.784  10.170  20.052  0.00  0.00    +0.000 A 
ATOM     27 CL   UNL     1      -0.045  11.170  21.181  0.00  0.00    +0.000 Cl
ATOM     28  C   UNL     1       1.150   8.873  20.414  0.00  0.00    +0.000 A 
ENDBRANCH  21  22
ENDBRANCH  20  21
ENDBRANCH   6  20
TORSDOF 5
ENDMDL
MODEL 8
REMARK VINA RESULT:      -8.1      1.196      1.357
REMARK  Name = 
REMARK  5 active torsions:
REMARK  status: ('A' for Active; 'I' for Inactive)
REMARK    1  A    between atoms: N_3  and  C_4
REMARK    2  A    between atoms: N_11  and  C_12
REMARK    3  A    between atoms: C_17  and  O_18
REMARK    4  A    between atoms: O_18  and  C_19
REMARK    5  A    between atoms: C_19  and  C_20
REMARK                            x       y       z     vdW  Elec       q    Type
REMARK                         _______ _______ _______ _____ _____    ______ ____
ROOT
ATOM      1  C   UNL     1       4.777   4.712  18.732  0.00  0.00    +0.000 A 
ATOM      2  N   UNL     1       5.361   3.538  19.077  0.00  0.00    +0.000 NA
ATOM      3  C   UNL     1       4.517   2.585  19.539  0.00  0.00    +0.000 A 
ATOM      4  C   UNL     1       3.162   2.813  19.726  0.00  0.00    +0.000 A 
ATOM      5  N   UNL     1       2.577   3.999  19.443  0.00  0.00    +0.000 NA
ATOM      6  C   UNL     1       3.409   4.939  18.934  0.00  0.00    +0.000 A 
ENDROOT
BRANCH   1  10
ATOM      7  O   UNL     1       6.639   6.860  16.611  0.00  0.00    +0.000 OA
ATOM      8  C   UNL     1       5.967   5.868  16.891  0.00  0.00    +0.000 C 
ATOM      9  N   UNL     1       5.687   4.821  16.054  0.00  0.00    +0.000 N 
ATOM     10  N   UNL     1       5.556   5.731  18.184  0.00  0.00    +0.000 N 
ATOM     11  H   UNL     1       4.940   4.213  16.377  0.00  0.00    +0.000 HD
ATOM     12  H   UNL     1       6.025   6.357  18.826  0.00  0.00    +0.000 HD
BRANCH   9  13
ATOM     13  C   UNL     1       6.195   4.604  14.758  0.00  0.00    +0.000 A 
ATOM     14  C   UNL     1       7.327   5.255  14.257  0.00  0.00    +0.000 A 
ATOM     15  C   UNL     1       7.751   5.042  12.939  0.00  0.00    +0.000 A 
ATOM     16  C   UNL     1       7.051   4.161  12.117  0.00  0.00    +0.000 A 
ATOM     17  C   UNL     1       5.956   3.484  12.633  0.00  0.00    +0.000 A 
ATOM     18  F   UNL     1       5.297   2.616  11.856  0.00  0.00    +0.000 F 
ATOM     19  C   UNL     1       5.531   3.683  13.945  0.00  0.00    +0.000 A 
ENDBRANCH   9  13
ENDBRANCH   1  10
BRANCH   6  20
ATOM     20  O   UNL     1       2.918   6.206  18.681  0.00  0.00    +0.000 OA
BRANCH  20  21
ATOM     21  C   UNL     1       2.325   6.784  19.849  0.00  0.00    +0.000 C 
BRANCH  21  22
ATOM     22  C   UNL     1       1.806   8.158  19.501  0.00  0.00    +0.000 A 
ATOM     23  C   UNL     1       2.088   8.734  18.252  0.00  0.00    +0.000 A 
ATOM     24  C   UNL     1       1.635  10.019  17.938  0.00  0.00    +0.000 A 
ATOM     25  C   UNL     1       0.898  10.745  18.872  0.00  0.00    +0.000 A 
ATOM     26  C   UNL     1       0.621  10.186  20.117  0.00  0.00    +0.000 A 
ATOM     27 CL   UNL     1      -0.278  11.087  21.275  0.00  0.00    +0.000 Cl
ATOM     28  C   UNL     1       1.074   8.905  20.435  0.00  0.00    +0.000 A 
ENDBRANCH  21  22
ENDBRANCH  20  21
ENDBRANCH   6  20
TORSDOF 5
ENDMDL
MODEL 9
REMARK VINA RESULT:      -8.1      1.107      1.578
REMARK  Name = 
REMARK  5 active torsions:
REMARK  status: ('A' for Active; 'I' for Inactive)
REMARK    1  A    between atoms: N_3  and  C_4
REMARK    2  A    between atoms: N_11  and  C_12
REMARK    3  A    between atoms: C_17  and  O_18
REMARK    4  A    between atoms: O_18  and  C_19
REMARK    5  A    between atoms: C_19  and  C_20
REMARK                            x       y       z     vdW  Elec       q    Type
REMARK                         _______ _______ _______ _____ _____    ______ ____
ROOT
ATOM      1  C   UNL     1       4.267   3.367  18.636  0.00  0.00    +0.000 A 
ATOM      2  N   UNL     1       3.985   2.074  18.341  0.00  0.00    +0.000 NA
ATOM      3  C   UNL     1       2.691   1.709  18.508  0.00  0.00    +0.000 A 
ATOM      4  C   UNL     1       1.732   2.570  19.021  0.00  0.00    +0.000 A 
ATOM      5  N   UNL     1       2.012   3.845  19.375  0.00  0.00    +0.000 NA
ATOM      6  C   UNL     1       3.294   4.228  19.164  0.00  0.00    +0.000 A 
ENDROOT
BRANCH   1  10
ATOM      7  O   UNL     1       7.289   4.656  17.301  0.00  0.00    +0.000 OA
ATOM      8  C   UNL     1       6.133   4.237  17.258  0.00  0.00    +0.000 C 
ATOM      9  N   UNL     1       5.402   4.007  16.123  0.00  0.00    +0.000 N 
ATOM     10  N   UNL     1       5.558   3.853  18.432  0.00  0.00    +0.000 N 
ATOM     11  H   UNL     1       4.406   3.883  16.283  0.00  0.00    +0.000 HD
ATOM     12  H   UNL     1       6.218   3.756  19.193  0.00  0.00    +0.000 HD
BRANCH   9  13
ATOM     13  C   UNL     1       5.846   4.087  14.788  0.00  0.00    +0.000 A 
ATOM     14  C   UNL     1       5.171   3.492  13.717  0.00  0.00    +0.000 A 
ATOM     15  C   UNL     1       5.693   3.555  12.418  0.00  0.00    +0.000 A 
ATOM     16  C   UNL     1       6.889   4.230  12.182  0.00  0.00    +0.000 A 
ATOM     17  C   UNL     1       7.530   4.857  13.240  0.00  0.00    +0.000 A 
ATOM     18  F   UNL     1       8.664   5.530  13.012  0.00  0.00    +0.000 F 
ATOM     19  C   UNL     1       7.015   4.806  14.534  0.00  0.00    +0.000 A 
ENDBRANCH   9  13
ENDBRANCH   1  10
BRANCH   6  20
ATOM     20  O   UNL     1       3.694   5.490  19.562  0.00  0.00    +0.000 OA
BRANCH  20  21
ATOM     21  C   UNL     1       2.721   6.106  20.414  0.00  0.00    +0.000 C 
BRANCH  21  22
ATOM     22  C   UNL     1       2.226   7.369  19.752  0.00  0.00    +0.000 A 
ATOM     23  C   UNL     1       2.549   7.650  18.415  0.00  0.00    +0.000 A 
ATOM     24  C   UNL     1       2.118   8.833  17.809  0.00  0.00    +0.000 A 
ATOM     25  C   UNL     1       1.362   9.752  18.534  0.00  0.00    +0.000 A 
ATOM     26  C   UNL     1       1.045   9.486  19.864  0.00  0.00    +0.000 A 
ATOM     27 CL   UNL     1       0.121  10.626  20.764  0.00  0.00    +0.000 Cl
ATOM     28  C   UNL     1       1.476   8.308  20.474  0.00  0.00    +0.000 A 
ENDBRANCH  21  22
ENDBRANCH  20  21
ENDBRANCH   6  20
TORSDOF 5
ENDMDL
