MODEL 1
REMARK VINA RESULT:      -8.0      0.000      0.000
REMARK  Name = 
REMARK  5 active torsions:
REMARK  status: ('A' for Active; 'I' for Inactive)
REMARK    1  A    between atoms: C_1  and  O_2
REMARK    2  A    between atoms: O_2  and  C_3
REMARK    3  A    between atoms: C_3  and  C_4
REMARK    4  A    between atoms: C_4  and  N_5
REMARK    5  A    between atoms: C_13  and  C_14
REMARK                            x       y       z     vdW  Elec       q    Type
REMARK                         _______ _______ _______ _____ _____    ______ ____
ROOT
ATOM      1  N   UNL     1       7.922   7.837  18.563  0.00  0.00    +0.000 N 
ATOM      2  C   UNL     1       7.423   6.847  17.791  0.00  0.00    +0.000 A 
ATOM      3  N   UNL     1       7.676   6.629  16.522  0.00  0.00    +0.000 NA
ATOM      4  C   UNL     1       6.930   5.551  16.069  0.00  0.00    +0.000 A 
ATOM      5  N   UNL     1       7.054   5.068  14.816  0.00  0.00    +0.000 NA
ATOM      6  C   UNL     1       6.228   4.066  14.521  0.00  0.00    +0.000 A 
ATOM      7  N   UNL     1       6.368   3.442  13.298  0.00  0.00    +0.000 N 
ATOM      8  N   UNL     1       5.236   3.615  15.293  0.00  0.00    +0.000 NA
ATOM      9  C   UNL     1       5.078   4.127  16.537  0.00  0.00    +0.000 A 
ATOM     10  C   UNL     1       6.010   5.053  16.981  0.00  0.00    +0.000 A 
ATOM     11  S   UNL     1       6.310   5.759  18.512  0.00  0.00    +0.000 S 
ATOM     12  H   UNL     1       8.429   7.528  19.392  0.00  0.00    +0.000 HD
ATOM     13  H   UNL     1       6.808   4.049  12.623  0.00  0.00    +0.000 HD
ATOM     14  H   UNL     1       5.504   2.988  13.035  0.00  0.00    +0.000 HD
ENDROOT
BRANCH   9  15
ATOM     15  C   UNL     1       3.890   3.722  17.294  0.00  0.00    +0.000 A 
ATOM     16  C   UNL     1       3.738   2.403  17.755  0.00  0.00    +0.000 A 
ATOM     17  C   UNL     1       2.586   2.009  18.442  0.00  0.00    +0.000 A 
ATOM     18  C   UNL     1       1.573   2.929  18.673  0.00  0.00    +0.000 A 
ATOM     19  F   UNL     1       0.467   2.551  19.323  0.00  0.00    +0.000 F 
ATOM     20  C   UNL     1       1.683   4.237  18.226  0.00  0.00    +0.000 A 
ATOM     21  C   UNL     1       2.831   4.626  17.531  0.00  0.00    +0.000 A 
ENDBRANCH   9  15
BRANCH   1  22
ATOM     22  C   UNL     1       8.526   9.005  17.942  0.00  0.00    +0.000 C 
BRANCH  22  23
ATOM     23  C   UNL     1       9.118   9.911  19.031  0.00  0.00    +0.000 C 
BRANCH  23  25
ATOM     24  C   UNL     1      10.664  11.684  18.800  0.00  0.00    +0.000 C 
ATOM     25  O   UNL     1       9.364  11.208  18.474  0.00  0.00    +0.000 OA
ENDBRANCH  23  25
ENDBRANCH  22  23
ENDBRANCH   1  22
TORSDOF 4
ENDMDL
MODEL 2
REMARK VINA RESULT:      -8.0      0.413      1.108
REMARK  Name = 
REMARK  5 active torsions:
REMARK  status: ('A' for Active; 'I' for Inactive)
REMARK    1  A    between atoms: C_1  and  O_2
REMARK    2  A    between atoms: O_2  and  C_3
REMARK    3  A    between atoms: C_3  and  C_4
REMARK    4  A    between atoms: C_4  and  N_5
REMARK    5  A    between atoms: C_13  and  C_14
REMARK                            x       y       z     vdW  Elec       q    Type
REMARK                         _______ _______ _______ _____ _____    ______ ____
ROOT
ATOM      1  N   UNL     1       7.914   7.900  18.503  0.00  0.00    +0.000 N 
ATOM      2  C   UNL     1       7.422   6.898  17.741  0.00  0.00    +0.000 A 
ATOM      3  N   UNL     1       7.676   6.669  16.475  0.00  0.00    +0.000 NA
ATOM      4  C   UNL     1       6.938   5.582  16.033  0.00  0.00    +0.000 A 
ATOM      5  N   UNL     1       7.064   5.087  14.784  0.00  0.00    +0.000 NA
ATOM      6  C   UNL     1       6.246   4.076  14.500  0.00  0.00    +0.000 A 
ATOM      7  N   UNL     1       6.389   3.441  13.283  0.00  0.00    +0.000 N 
ATOM      8  N   UNL     1       5.257   3.626  15.277  0.00  0.00    +0.000 NA
ATOM      9  C   UNL     1       5.096   4.149  16.516  0.00  0.00    +0.000 A 
ATOM     10  C   UNL     1       6.021   5.087  16.950  0.00  0.00    +0.000 A 
ATOM     11  S   UNL     1       6.316   5.810  18.473  0.00  0.00    +0.000 S 
ATOM     12  H   UNL     1       8.424   7.603  19.335  0.00  0.00    +0.000 HD
ATOM     13  H   UNL     1       6.825   4.044  12.602  0.00  0.00    +0.000 HD
ATOM     14  H   UNL     1       5.528   2.978  13.025  0.00  0.00    +0.000 HD
ENDROOT
BRANCH   9  15
ATOM     15  C   UNL     1       3.910   3.744  17.278  0.00  0.00    +0.000 A 
ATOM     16  C   UNL     1       2.888   4.662  17.571  0.00  0.00    +0.000 A 
ATOM     17  C   UNL     1       1.777   4.284  18.331  0.00  0.00    +0.000 A 
ATOM     18  C   UNL     1       1.679   2.984  18.807  0.00  0.00    +0.000 A 
ATOM     19  F   UNL     1       0.620   2.623  19.541  0.00  0.00    +0.000 F 
ATOM     20  C   UNL     1       2.671   2.052  18.544  0.00  0.00    +0.000 A 
ATOM     21  C   UNL     1       3.785   2.435  17.793  0.00  0.00    +0.000 A 
ENDBRANCH   9  15
BRANCH   1  22
ATOM     22  C   UNL     1       8.510   9.066  17.870  0.00  0.00    +0.000 C 
BRANCH  22  23
ATOM     23  C   UNL     1       9.042  10.016  18.953  0.00  0.00    +0.000 C 
BRANCH  23  25
ATOM     24  C   UNL     1       9.125  12.191  18.033  0.00  0.00    +0.000 C 
ATOM     25  O   UNL     1       9.863  11.013  18.333  0.00  0.00    +0.000 OA
ENDBRANCH  23  25
ENDBRANCH  22  23
ENDBRANCH   1  22
TORSDOF 4
ENDMDL
MODEL 3
REMARK VINA RESULT:      -7.9      3.696      5.745
REMARK  Name = 
REMARK  5 active torsions:
REMARK  status: ('A' for Active; 'I' for Inactive)
REMARK    1  A    between atoms: C_1  and  O_2
REMARK    2  A    between atoms: O_2  and  C_3
REMARK    3  A    between atoms: C_3  and  C_4
REMARK    4  A    between atoms: C_4  and  N_5
REMARK    5  A    between atoms: C_13  and  C_14
REMARK                            x       y       z     vdW  Elec       q    Type
REMARK                         _______ _______ _______ _____ _____    ______ ____
ROOT
ATOM      1  N   UNL     1       5.271   4.077  13.864  0.00  0.00    +0.000 N 
ATOM      2  C   UNL     1       5.584   4.359  15.148  0.00  0.00    +0.000 A 
ATOM      3  N   UNL     1       6.782   4.555  15.646  0.00  0.00    +0.000 NA
ATOM      4  C   UNL     1       6.697   4.763  17.014  0.00  0.00    +0.000 A 
ATOM      5  N   UNL     1       7.779   5.060  17.764  0.00  0.00    +0.000 NA
ATOM      6  C   UNL     1       7.537   5.176  19.068  0.00  0.00    +0.000 A 
ATOM      7  N   UNL     1       8.567   5.588  19.890  0.00  0.00    +0.000 N 
ATOM      8  N   UNL     1       6.384   4.896  19.680  0.00  0.00    +0.000 NA
ATOM      9  C   UNL     1       5.304   4.553  18.937  0.00  0.00    +0.000 A 
ATOM     10  C   UNL     1       5.432   4.581  17.556  0.00  0.00    +0.000 A 
ATOM     11  S   UNL     1       4.298   4.446  16.281  0.00  0.00    +0.000 S 
ATOM     12  H   UNL     1       4.635   4.737  13.417  0.00  0.00    +0.000 HD
ATOM     13  H   UNL     1       9.468   5.387  19.481  0.00  0.00    +0.000 HD
ATOM     14  H   UNL     1       8.400   5.289  20.840  0.00  0.00    +0.000 HD
ENDROOT
BRANCH   9  15
ATOM     15  C   UNL     1       4.104   4.103  19.647  0.00  0.00    +0.000 A 
ATOM     16  C   UNL     1       3.888   2.740  19.915  0.00  0.00    +0.000 A 
ATOM     17  C   UNL     1       2.724   2.309  20.558  0.00  0.00    +0.000 A 
ATOM     18  C   UNL     1       1.763   3.235  20.936  0.00  0.00    +0.000 A 
ATOM     19  F   UNL     1       0.645   2.823  21.544  0.00  0.00    +0.000 F 
ATOM     20  C   UNL     1       1.937   4.587  20.682  0.00  0.00    +0.000 A 
ATOM     21  C   UNL     1       3.096   5.015  20.031  0.00  0.00    +0.000 A 
ENDBRANCH   9  15
BRANCH   1  22
ATOM     22  C   UNL     1       6.300   3.593  12.957  0.00  0.00    +0.000 C 
BRANCH  22  23
ATOM     23  C   UNL     1       5.636   2.980  11.716  0.00  0.00    +0.000 C 
BRANCH  23  25
ATOM     24  C   UNL     1       3.627   3.382  10.537  0.00  0.00    +0.000 C 
ATOM     25  O   UNL     1       4.218   3.159  11.812  0.00  0.00    +0.000 OA
ENDBRANCH  23  25
ENDBRANCH  22  23
ENDBRANCH   1  22
TORSDOF 4
ENDMDL
MODEL 4
REMARK VINA RESULT:      -7.8      3.716      5.876
REMARK  Name = 
REMARK  5 active torsions:
REMARK  status: ('A' for Active; 'I' for Inactive)
REMARK    1  A    between atoms: C_1  and  O_2
REMARK    2  A    between atoms: O_2  and  C_3
REMARK    3  A    between atoms: C_3  and  C_4
REMARK    4  A    between atoms: C_4  and  N_5
REMARK    5  A    between atoms: C_13  and  C_14
REMARK                            x       y       z     vdW  Elec       q    Type
REMARK                         _______ _______ _______ _____ _____    ______ ____
ROOT
ATOM      1  N   UNL     1       5.183   4.077  13.919  0.00  0.00    +0.000 N 
ATOM      2  C   UNL     1       5.505   4.355  15.202  0.00  0.00    +0.000 A 
ATOM      3  N   UNL     1       6.706   4.550  15.692  0.00  0.00    +0.000 NA
ATOM      4  C   UNL     1       6.631   4.754  17.061  0.00  0.00    +0.000 A 
ATOM      5  N   UNL     1       7.717   5.051  17.804  0.00  0.00    +0.000 NA
ATOM      6  C   UNL     1       7.485   5.162  19.110  0.00  0.00    +0.000 A 
ATOM      7  N   UNL     1       8.520   5.573  19.926  0.00  0.00    +0.000 N 
ATOM      8  N   UNL     1       6.337   4.878  19.730  0.00  0.00    +0.000 NA
ATOM      9  C   UNL     1       5.252   4.536  18.993  0.00  0.00    +0.000 A 
ATOM     10  C   UNL     1       5.370   4.568  17.611  0.00  0.00    +0.000 A 
ATOM     11  S   UNL     1       4.228   4.436  16.344  0.00  0.00    +0.000 S 
ATOM     12  H   UNL     1       4.543   4.736  13.479  0.00  0.00    +0.000 HD
ATOM     13  H   UNL     1       9.418   5.374  19.510  0.00  0.00    +0.000 HD
ATOM     14  H   UNL     1       8.360   5.270  20.876  0.00  0.00    +0.000 HD
ENDROOT
BRANCH   9  15
ATOM     15  C   UNL     1       4.058   4.082  19.710  0.00  0.00    +0.000 A 
ATOM     16  C   UNL     1       3.040   4.983  20.068  0.00  0.00    +0.000 A 
ATOM     17  C   UNL     1       1.920   4.555  20.787  0.00  0.00    +0.000 A 
ATOM     18  C   UNL     1       1.808   3.222  21.157  0.00  0.00    +0.000 A 
ATOM     19  F   UNL     1       0.740   2.813  21.852  0.00  0.00    +0.000 F 
ATOM     20  C   UNL     1       2.795   2.305  20.829  0.00  0.00    +0.000 A 
ATOM     21  C   UNL     1       3.918   2.737  20.120  0.00  0.00    +0.000 A 
ENDBRANCH   9  15
BRANCH   1  22
ATOM     22  C   UNL     1       6.207   3.596  13.003  0.00  0.00    +0.000 C 
BRANCH  22  23
ATOM     23  C   UNL     1       5.544   3.134  11.698  0.00  0.00    +0.000 C 
BRANCH  23  25
ATOM     24  C   UNL     1       3.474   3.057  10.560  0.00  0.00    +0.000 C 
ATOM     25  O   UNL     1       4.146   3.441  11.753  0.00  0.00    +0.000 OA
ENDBRANCH  23  25
ENDBRANCH  22  23
ENDBRANCH   1  22
TORSDOF 4
ENDMDL
MODEL 5
REMARK VINA RESULT:      -7.6      3.805      5.838
REMARK  Name = 
REMARK  5 active torsions:
REMARK  status: ('A' for Active; 'I' for Inactive)
REMARK    1  A    between atoms: C_1  and  O_2
REMARK    2  A    between atoms: O_2  and  C_3
REMARK    3  A    between atoms: C_3  and  C_4
REMARK    4  A    between atoms: C_4  and  N_5
REMARK    5  A    between atoms: C_13  and  C_14
REMARK                            x       y       z     vdW  Elec       q    Type
REMARK                         _______ _______ _______ _____ _____    ______ ____
ROOT
ATOM      1  N   UNL     1       5.152   4.090  13.871  0.00  0.00    +0.000 N 
ATOM      2  C   UNL     1       5.488   4.375  15.148  0.00  0.00    +0.000 A 
ATOM      3  N   UNL     1       6.695   4.569  15.624  0.00  0.00    +0.000 NA
ATOM      4  C   UNL     1       6.636   4.782  16.993  0.00  0.00    +0.000 A 
ATOM      5  N   UNL     1       7.731   5.079  17.722  0.00  0.00    +0.000 NA
ATOM      6  C   UNL     1       7.514   5.199  19.030  0.00  0.00    +0.000 A 
ATOM      7  N   UNL     1       8.559   5.612  19.832  0.00  0.00    +0.000 N 
ATOM      8  N   UNL     1       6.371   4.923  19.664  0.00  0.00    +0.000 NA
ATOM      9  C   UNL     1       5.278   4.581  18.941  0.00  0.00    +0.000 A 
ATOM     10  C   UNL     1       5.381   4.604  17.558  0.00  0.00    +0.000 A 
ATOM     11  S   UNL     1       4.224   4.468  16.304  0.00  0.00    +0.000 S 
ATOM     12  H   UNL     1       4.509   4.749  13.434  0.00  0.00    +0.000 HD
ATOM     13  H   UNL     1       9.452   5.407  19.408  0.00  0.00    +0.000 HD
ATOM     14  H   UNL     1       8.409   5.315  20.786  0.00  0.00    +0.000 HD
ENDROOT
BRANCH   9  15
ATOM     15  C   UNL     1       4.089   4.135  19.674  0.00  0.00    +0.000 A 
ATOM     16  C   UNL     1       3.105   5.050  20.084  0.00  0.00    +0.000 A 
ATOM     17  C   UNL     1       1.992   4.629  20.818  0.00  0.00    +0.000 A 
ATOM     18  C   UNL     1       1.853   3.289  21.151  0.00  0.00    +0.000 A 
ATOM     19  F   UNL     1       0.793   2.886  21.860  0.00  0.00    +0.000 F 
ATOM     20  C   UNL     1       2.808   2.358  20.771  0.00  0.00    +0.000 A 
ATOM     21  C   UNL     1       3.924   2.783  20.046  0.00  0.00    +0.000 A 
ENDBRANCH   9  15
BRANCH   1  22
ATOM     22  C   UNL     1       6.163   3.600  12.948  0.00  0.00    +0.000 C 
BRANCH  22  23
ATOM     23  C   UNL     1       5.475   2.971  11.728  0.00  0.00    +0.000 C 
BRANCH  23  25
ATOM     24  C   UNL     1       7.471   1.910  11.035  0.00  0.00    +0.000 C 
ATOM     25  O   UNL     1       6.116   1.725  11.425  0.00  0.00    +0.000 OA
ENDBRANCH  23  25
ENDBRANCH  22  23
ENDBRANCH   1  22
TORSDOF 4
ENDMDL
MODEL 6
REMARK VINA RESULT:      -7.2      4.305      6.206
REMARK  Name = 
REMARK  5 active torsions:
REMARK  status: ('A' for Active; 'I' for Inactive)
REMARK    1  A    between atoms: C_1  and  O_2
REMARK    2  A    between atoms: O_2  and  C_3
REMARK    3  A    between atoms: C_3  and  C_4
REMARK    4  A    between atoms: C_4  and  N_5
REMARK    5  A    between atoms: C_13  and  C_14
REMARK                            x       y       z     vdW  Elec       q    Type
REMARK                         _______ _______ _______ _____ _____    ______ ____
ROOT
ATOM      1  N   UNL     1       6.317   5.499  15.188  0.00  0.00    +0.000 N 
ATOM      2  C   UNL     1       5.585   5.346  16.313  0.00  0.00    +0.000 A 
ATOM      3  N   UNL     1       5.276   4.219  16.909  0.00  0.00    +0.000 NA
ATOM      4  C   UNL     1       4.464   4.469  18.004  0.00  0.00    +0.000 A 
ATOM      5  N   UNL     1       4.059   3.490  18.838  0.00  0.00    +0.000 NA
ATOM      6  C   UNL     1       3.239   3.887  19.808  0.00  0.00    +0.000 A 
ATOM      7  N   UNL     1       2.868   2.968  20.770  0.00  0.00    +0.000 N 
ATOM      8  N   UNL     1       2.700   5.103  19.931  0.00  0.00    +0.000 NA
ATOM      9  C   UNL     1       3.069   6.082  19.069  0.00  0.00    +0.000 A 
ATOM     10  C   UNL     1       4.053   5.789  18.137  0.00  0.00    +0.000 A 
ATOM     11  S   UNL     1       4.947   6.759  17.047  0.00  0.00    +0.000 S 
ATOM     12  H   UNL     1       7.147   6.083  15.286  0.00  0.00    +0.000 HD
ATOM     13  H   UNL     1       2.944   2.023  20.424  0.00  0.00    +0.000 HD
ATOM     14  H   UNL     1       2.000   3.245  21.205  0.00  0.00    +0.000 HD
ENDROOT
BRANCH   9  15
ATOM     15  C   UNL     1       2.344   7.354  19.135  0.00  0.00    +0.000 A 
ATOM     16  C   UNL     1       1.772   7.802  20.338  0.00  0.00    +0.000 A 
ATOM     17  C   UNL     1       1.048   8.997  20.390  0.00  0.00    +0.000 A 
ATOM     18  C   UNL     1       0.887   9.754  19.239  0.00  0.00    +0.000 A 
ATOM     19  F   UNL     1       0.187  10.894  19.285  0.00  0.00    +0.000 F 
ATOM     20  C   UNL     1       1.430   9.342  18.031  0.00  0.00    +0.000 A 
ATOM     21  C   UNL     1       2.145   8.142  17.980  0.00  0.00    +0.000 A 
ENDBRANCH   9  15
BRANCH   1  22
ATOM     22  C   UNL     1       6.535   4.363  14.305  0.00  0.00    +0.000 C 
BRANCH  22  23
ATOM     23  C   UNL     1       7.412   4.800  13.123  0.00  0.00    +0.000 C 
BRANCH  23  25
ATOM     24  C   UNL     1       5.901   3.228  12.210  0.00  0.00    +0.000 C 
ATOM     25  O   UNL     1       7.043   4.039  11.966  0.00  0.00    +0.000 OA
ENDBRANCH  23  25
ENDBRANCH  22  23
ENDBRANCH   1  22
TORSDOF 4
ENDMDL
MODEL 7
REMARK VINA RESULT:      -7.2      4.322      6.251
REMARK  Name = 
REMARK  5 active torsions:
REMARK  status: ('A' for Active; 'I' for Inactive)
REMARK    1  A    between atoms: C_1  and  O_2
REMARK    2  A    between atoms: O_2  and  C_3
REMARK    3  A    between atoms: C_3  and  C_4
REMARK    4  A    between atoms: C_4  and  N_5
REMARK    5  A    between atoms: C_13  and  C_14
REMARK                            x       y       z     vdW  Elec       q    Type
REMARK                         _______ _______ _______ _____ _____    ______ ____
ROOT
ATOM      1  N   UNL     1       6.728   5.581  15.565  0.00  0.00    +0.000 N 
ATOM      2  C   UNL     1       5.909   5.406  16.626  0.00  0.00    +0.000 A 
ATOM      3  N   UNL     1       5.601   4.273  17.210  0.00  0.00    +0.000 NA
ATOM      4  C   UNL     1       4.688   4.498  18.229  0.00  0.00    +0.000 A 
ATOM      5  N   UNL     1       4.257   3.509  19.039  0.00  0.00    +0.000 NA
ATOM      6  C   UNL     1       3.341   3.879  19.931  0.00  0.00    +0.000 A 
ATOM      7  N   UNL     1       2.931   2.954  20.870  0.00  0.00    +0.000 N 
ATOM      8  N   UNL     1       2.741   5.071  19.991  0.00  0.00    +0.000 NA
ATOM      9  C   UNL     1       3.138   6.056  19.150  0.00  0.00    +0.000 A 
ATOM     10  C   UNL     1       4.210   5.798  18.308  0.00  0.00    +0.000 A 
ATOM     11  S   UNL     1       5.150   6.797  17.284  0.00  0.00    +0.000 S 
ATOM     12  H   UNL     1       7.519   6.203  15.725  0.00  0.00    +0.000 HD
ATOM     13  H   UNL     1       3.077   2.010  20.545  0.00  0.00    +0.000 HD
ATOM     14  H   UNL     1       2.017   3.196  21.226  0.00  0.00    +0.000 HD
ENDROOT
BRANCH   9  15
ATOM     15  C   UNL     1       2.356   7.296  19.137  0.00  0.00    +0.000 A 
ATOM     16  C   UNL     1       2.194   8.039  17.954  0.00  0.00    +0.000 A 
ATOM     17  C   UNL     1       1.481   9.241  17.952  0.00  0.00    +0.000 A 
ATOM     18  C   UNL     1       0.925   9.714  19.132  0.00  0.00    +0.000 A 
ATOM     19  F   UNL     1       0.249  10.869  19.133  0.00  0.00    +0.000 F 
ATOM     20  C   UNL     1       1.070   9.013  20.320  0.00  0.00    +0.000 A 
ATOM     21  C   UNL     1       1.792   7.817  20.322  0.00  0.00    +0.000 A 
ENDBRANCH   9  15
BRANCH   1  22
ATOM     22  C   UNL     1       7.069   4.447  14.720  0.00  0.00    +0.000 C 
BRANCH  22  23
ATOM     23  C   UNL     1       5.864   4.090  13.838  0.00  0.00    +0.000 C 
BRANCH  23  25
ATOM     24  C   UNL     1       5.331   2.968  11.828  0.00  0.00    +0.000 C 
ATOM     25  O   UNL     1       6.339   3.656  12.558  0.00  0.00    +0.000 OA
ENDBRANCH  23  25
ENDBRANCH  22  23
ENDBRANCH   1  22
TORSDOF 4
ENDMDL
MODEL 8
REMARK VINA RESULT:      -7.0      5.317      6.941
REMARK  Name = 
REMARK  5 active torsions:
REMARK  status: ('A' for Active; 'I' for Inactive)
REMARK    1  A    between atoms: C_1  and  O_2
REMARK    2  A    between atoms: O_2  and  C_3
REMARK    3  A    between atoms: C_3  and  C_4
REMARK    4  A    between atoms: C_4  and  N_5
REMARK    5  A    between atoms: C_13  and  C_14
REMARK                            x       y       z     vdW  Elec       q    Type
REMARK                         _______ _______ _______ _____ _____    ______ ____
ROOT
ATOM      1  N   UNL     1       1.360   9.173  19.661  0.00  0.00    +0.000 N 
ATOM      2  C   UNL     1       1.725   7.875  19.746  0.00  0.00    +0.000 A 
ATOM      3  N   UNL     1       1.511   7.056  20.749  0.00  0.00    +0.000 NA
ATOM      4  C   UNL     1       2.085   5.823  20.484  0.00  0.00    +0.000 A 
ATOM      5  N   UNL     1       1.952   4.773  21.321  0.00  0.00    +0.000 NA
ATOM      6  C   UNL     1       2.609   3.677  20.949  0.00  0.00    +0.000 A 
ATOM      7  N   UNL     1       2.434   2.526  21.691  0.00  0.00    +0.000 N 
ATOM      8  N   UNL     1       3.463   3.583  19.926  0.00  0.00    +0.000 NA
ATOM      9  C   UNL     1       3.635   4.648  19.106  0.00  0.00    +0.000 A 
ATOM     10  C   UNL     1       2.853   5.771  19.328  0.00  0.00    +0.000 A 
ATOM     11  S   UNL     1       2.592   7.203  18.427  0.00  0.00    +0.000 S 
ATOM     12  H   UNL     1       0.761   9.405  18.870  0.00  0.00    +0.000 HD
ATOM     13  H   UNL     1       2.144   2.737  22.634  0.00  0.00    +0.000 HD
ATOM     14  H   UNL     1       3.221   1.904  21.565  0.00  0.00    +0.000 HD
ENDROOT
BRANCH   9  15
ATOM     15  C   UNL     1       4.691   4.563  18.093  0.00  0.00    +0.000 A 
ATOM     16  C   UNL     1       6.027   4.864  18.411  0.00  0.00    +0.000 A 
ATOM     17  C   UNL     1       7.026   4.821  17.433  0.00  0.00    +0.000 A 
ATOM     18  C   UNL     1       6.699   4.478  16.129  0.00  0.00    +0.000 A 
ATOM     19  F   UNL     1       7.653   4.444  15.192  0.00  0.00    +0.000 F 
ATOM     20  C   UNL     1       5.391   4.182  15.776  0.00  0.00    +0.000 A 
ATOM     21  C   UNL     1       4.393   4.236  16.752  0.00  0.00    +0.000 A 
ENDBRANCH   9  15
BRANCH   1  22
ATOM     22  C   UNL     1       1.002   9.905  20.866  0.00  0.00    +0.000 C 
BRANCH  22  23
ATOM     23  C   UNL     1      -0.469  10.336  20.781  0.00  0.00    +0.000 C 
BRANCH  23  25
ATOM     24  C   UNL     1      -0.979  10.606  23.073  0.00  0.00    +0.000 C 
ATOM     25  O   UNL     1      -0.743  11.266  21.835  0.00  0.00    +0.000 OA
ENDBRANCH  23  25
ENDBRANCH  22  23
ENDBRANCH   1  22
TORSDOF 4
ENDMDL
MODEL 9
REMARK VINA RESULT:      -7.0      5.237      6.885
REMARK  Name = 
REMARK  5 active torsions:
REMARK  status: ('A' for Active; 'I' for Inactive)
REMARK    1  A    between atoms: C_1  and  O_2
REMARK    2  A    between atoms: O_2  and  C_3
REMARK    3  A    between atoms: C_3  and  C_4
REMARK    4  A    between atoms: C_4  and  N_5
REMARK    5  A    between atoms: C_13  and  C_14
REMARK                            x       y       z     vdW  Elec       q    Type
REMARK                         _______ _______ _______ _____ _____    ______ ____
ROOT
ATOM      1  N   UNL     1       1.381   9.186  19.596  0.00  0.00    +0.000 N 
ATOM      2  C   UNL     1       1.743   7.888  19.692  0.00  0.00    +0.000 A 
ATOM      3  N   UNL     1       1.522   7.077  20.699  0.00  0.00    +0.000 NA
ATOM      4  C   UNL     1       2.096   5.840  20.445  0.00  0.00    +0.000 A 
ATOM      5  N   UNL     1       1.957   4.797  21.289  0.00  0.00    +0.000 NA
ATOM      6  C   UNL     1       2.614   3.697  20.928  0.00  0.00    +0.000 A 
ATOM      7  N   UNL     1       2.434   2.551  21.677  0.00  0.00    +0.000 N 
ATOM      8  N   UNL     1       3.475   3.596  19.912  0.00  0.00    +0.000 NA
ATOM      9  C   UNL     1       3.654   4.655  19.085  0.00  0.00    +0.000 A 
ATOM     10  C   UNL     1       2.871   5.781  19.295  0.00  0.00    +0.000 A 
ATOM     11  S   UNL     1       2.618   7.206  18.382  0.00  0.00    +0.000 S 
ATOM     12  H   UNL     1       0.787   9.414  18.799  0.00  0.00    +0.000 HD
ATOM     13  H   UNL     1       2.137   2.769  22.616  0.00  0.00    +0.000 HD
ATOM     14  H   UNL     1       3.220   1.928  21.560  0.00  0.00    +0.000 HD
ENDROOT
BRANCH   9  15
ATOM     15  C   UNL     1       4.716   4.562  18.080  0.00  0.00    +0.000 A 
ATOM     16  C   UNL     1       6.047   4.882  18.399  0.00  0.00    +0.000 A 
ATOM     17  C   UNL     1       7.052   4.831  17.428  0.00  0.00    +0.000 A 
ATOM     18  C   UNL     1       6.735   4.461  16.129  0.00  0.00    +0.000 A 
ATOM     19  F   UNL     1       7.695   4.420  15.197  0.00  0.00    +0.000 F 
ATOM     20  C   UNL     1       5.433   4.146  15.774  0.00  0.00    +0.000 A 
ATOM     21  C   UNL     1       4.428   4.207  16.743  0.00  0.00    +0.000 A 
ENDBRANCH   9  15
BRANCH   1  22
ATOM     22  C   UNL     1       1.016   9.926  20.794  0.00  0.00    +0.000 C 
BRANCH  22  23
ATOM     23  C   UNL     1      -0.391  10.516  20.617  0.00  0.00    +0.000 C 
BRANCH  23  25
ATOM     24  C   UNL     1      -1.526  11.279  18.690  0.00  0.00    +0.000 C 
ATOM     25  O   UNL     1      -0.876  10.179  19.312  0.00  0.00    +0.000 OA
ENDBRANCH  23  25
ENDBRANCH  22  23
ENDBRANCH   1  22
TORSDOF 4
ENDMDL
