MODEL 1
REMARK VINA RESULT:      -7.5      0.000      0.000
REMARK  Name = 
REMARK  5 active torsions:
REMARK  status: ('A' for Active; 'I' for Inactive)
REMARK    1  A    between atoms: C_1  and  O_2
REMARK    2  A    between atoms: O_2  and  C_3
REMARK    3  A    between atoms: C_6  and  C_7
REMARK    4  A    between atoms: C_11  and  N_12
REMARK    5  A    between atoms: C_13  and  C_14
REMARK                            x       y       z     vdW  Elec       q    Type
REMARK                         _______ _______ _______ _____ _____    ______ ____
ROOT
ATOM      1  C   UNL     1       1.567   8.037  20.076  0.00  0.00    +0.000 A 
ATOM      2  C   UNL     1       2.067   8.319  18.802  0.00  0.00    +0.000 A 
ATOM      3  C   UNL     1       2.737   7.333  18.083  0.00  0.00    +0.000 A 
ATOM      4  C   UNL     1       2.882   6.060  18.664  0.00  0.00    +0.000 A 
ATOM      5  C   UNL     1       3.495   4.849  18.209  0.00  0.00    +0.000 A 
ATOM      6  C   UNL     1       3.394   3.809  19.116  0.00  0.00    +0.000 A 
ATOM      7  S   UNL     1       2.557   4.312  20.529  0.00  0.00    +0.000 S 
ATOM      8  C   UNL     1       2.331   5.890  19.927  0.00  0.00    +0.000 A 
ATOM      9  N   UNL     1       1.678   6.819  20.658  0.00  0.00    +0.000 NA
ENDROOT
BRANCH   1  13
ATOM     10  C   UNL     1      -0.447  11.064  22.420  0.00  0.00    +0.000 A 
ATOM     11  C   UNL     1      -0.108   9.837  22.988  0.00  0.00    +0.000 A 
ATOM     12  C   UNL     1       0.556   8.860  22.232  0.00  0.00    +0.000 A 
ATOM     13  C   UNL     1       0.878   9.074  20.881  0.00  0.00    +0.000 A 
ATOM     14  C   UNL     1       0.514  10.317  20.329  0.00  0.00    +0.000 A 
ATOM     15  C   UNL     1      -0.146  11.296  21.081  0.00  0.00    +0.000 A 
BRANCH  10  17
ATOM     16  C   UNL     1      -2.507  12.025  23.053  0.00  0.00    +0.000 C 
ATOM     17  O   UNL     1      -1.096  11.943  23.240  0.00  0.00    +0.000 OA
ENDBRANCH  10  17
ENDBRANCH   1  13
BRANCH   6  18
ATOM     18  C   UNL     1       3.899   2.453  18.963  0.00  0.00    +0.000 C 
ATOM     19  N   UNL     1       4.905   2.059  19.803  0.00  0.00    +0.000 N 
ATOM     20  O   UNL     1       3.482   1.647  18.133  0.00  0.00    +0.000 OA
ATOM     21  H   UNL     1       5.286   2.671  20.511  0.00  0.00    +0.000 HD
ATOM     22  H   UNL     1       5.257   1.116  19.710  0.00  0.00    +0.000 HD
ENDBRANCH   6  18
BRANCH   5  23
ATOM     23  N   UNL     1       4.109   4.734  17.011  0.00  0.00    +0.000 N 
ATOM     24  H   UNL     1       4.305   3.854  16.550  0.00  0.00    +0.000 HD
ATOM     25  H   UNL     1       4.436   5.563  16.505  0.00  0.00    +0.000 HD
ENDBRANCH   5  23
TORSDOF 4
ENDMDL
MODEL 2
REMARK VINA RESULT:      -7.4      2.488      3.180
REMARK  Name = 
REMARK  5 active torsions:
REMARK  status: ('A' for Active; 'I' for Inactive)
REMARK    1  A    between atoms: C_1  and  O_2
REMARK    2  A    between atoms: O_2  and  C_3
REMARK    3  A    between atoms: C_6  and  C_7
REMARK    4  A    between atoms: C_11  and  N_12
REMARK    5  A    between atoms: C_13  and  C_14
REMARK                            x       y       z     vdW  Elec       q    Type
REMARK                         _______ _______ _______ _____ _____    ______ ____
ROOT
ATOM      1  C   UNL     1       2.485   6.985  19.128  0.00  0.00    +0.000 A 
ATOM      2  C   UNL     1       2.349   5.654  19.530  0.00  0.00    +0.000 A 
ATOM      3  C   UNL     1       3.053   4.652  18.870  0.00  0.00    +0.000 A 
ATOM      4  C   UNL     1       3.903   5.016  17.809  0.00  0.00    +0.000 A 
ATOM      5  C   UNL     1       4.754   4.258  16.942  0.00  0.00    +0.000 A 
ATOM      6  C   UNL     1       5.436   5.036  16.025  0.00  0.00    +0.000 A 
ATOM      7  S   UNL     1       5.033   6.695  16.216  0.00  0.00    +0.000 S 
ATOM      8  C   UNL     1       3.971   6.369  17.507  0.00  0.00    +0.000 A 
ATOM      9  N   UNL     1       3.304   7.370  18.120  0.00  0.00    +0.000 NA
ENDROOT
BRANCH   1  13
ATOM     10  C   UNL     1       0.261  10.158  21.051  0.00  0.00    +0.000 A 
ATOM     11  C   UNL     1       0.613   9.010  21.759  0.00  0.00    +0.000 A 
ATOM     12  C   UNL     1       1.345   7.987  21.139  0.00  0.00    +0.000 A 
ATOM     13  C   UNL     1       1.724   8.073  19.789  0.00  0.00    +0.000 A 
ATOM     14  C   UNL     1       1.344   9.237  19.094  0.00  0.00    +0.000 A 
ATOM     15  C   UNL     1       0.617  10.262  19.710  0.00  0.00    +0.000 A 
BRANCH  10  17
ATOM     16  C   UNL     1      -0.970  10.656  23.002  0.00  0.00    +0.000 C 
ATOM     17  O   UNL     1      -0.456  11.091  21.746  0.00  0.00    +0.000 OA
ENDBRANCH  10  17
ENDBRANCH   1  13
BRANCH   6  18
ATOM     18  C   UNL     1       6.380   4.586  15.013  0.00  0.00    +0.000 C 
ATOM     19  N   UNL     1       7.563   5.265  14.910  0.00  0.00    +0.000 N 
ATOM     20  O   UNL     1       6.180   3.640  14.251  0.00  0.00    +0.000 OA
ATOM     21  H   UNL     1       7.789   6.045  15.511  0.00  0.00    +0.000 HD
ATOM     22  H   UNL     1       8.228   4.954  14.216  0.00  0.00    +0.000 HD
ENDBRANCH   6  18
BRANCH   5  23
ATOM     23  N   UNL     1       4.877   2.914  17.015  0.00  0.00    +0.000 N 
ATOM     24  H   UNL     1       4.265   2.257  16.546  0.00  0.00    +0.000 HD
ATOM     25  H   UNL     1       5.609   2.482  17.586  0.00  0.00    +0.000 HD
ENDBRANCH   5  23
TORSDOF 4
ENDMDL
MODEL 3
REMARK VINA RESULT:      -7.4      2.649      3.449
REMARK  Name = 
REMARK  5 active torsions:
REMARK  status: ('A' for Active; 'I' for Inactive)
REMARK    1  A    between atoms: C_1  and  O_2
REMARK    2  A    between atoms: O_2  and  C_3
REMARK    3  A    between atoms: C_6  and  C_7
REMARK    4  A    between atoms: C_11  and  N_12
REMARK    5  A    between atoms: C_13  and  C_14
REMARK                            x       y       z     vdW  Elec       q    Type
REMARK                         _______ _______ _______ _____ _____    ______ ____
ROOT
ATOM      1  C   UNL     1       2.348   7.580  19.036  0.00  0.00    +0.000 A 
ATOM      2  C   UNL     1       2.398   6.530  19.957  0.00  0.00    +0.000 A 
ATOM      3  C   UNL     1       3.295   5.482  19.769  0.00  0.00    +0.000 A 
ATOM      4  C   UNL     1       4.144   5.518  18.648  0.00  0.00    +0.000 A 
ATOM      5  C   UNL     1       5.160   4.629  18.171  0.00  0.00    +0.000 A 
ATOM      6  C   UNL     1       5.770   5.067  17.008  0.00  0.00    +0.000 A 
ATOM      7  S   UNL     1       5.097   6.562  16.494  0.00  0.00    +0.000 S 
ATOM      8  C   UNL     1       4.017   6.618  17.810  0.00  0.00    +0.000 A 
ATOM      9  N   UNL     1       3.160   7.651  17.955  0.00  0.00    +0.000 NA
ENDROOT
BRANCH   1  13
ATOM     10  C   UNL     1      -0.468  10.832  19.489  0.00  0.00    +0.000 A 
ATOM     11  C   UNL     1       0.059  10.520  18.237  0.00  0.00    +0.000 A 
ATOM     12  C   UNL     1       0.962   9.458  18.088  0.00  0.00    +0.000 A 
ATOM     13  C   UNL     1       1.382   8.694  19.190  0.00  0.00    +0.000 A 
ATOM     14  C   UNL     1       0.845   9.039  20.445  0.00  0.00    +0.000 A 
ATOM     15  C   UNL     1      -0.060  10.096  20.598  0.00  0.00    +0.000 A 
BRANCH  10  17
ATOM     16  C   UNL     1      -2.415  11.825  18.600  0.00  0.00    +0.000 C 
ATOM     17  O   UNL     1      -1.334  11.889  19.527  0.00  0.00    +0.000 OA
ENDBRANCH  10  17
ENDBRANCH   1  13
BRANCH   6  18
ATOM     18  C   UNL     1       6.838   4.410  16.270  0.00  0.00    +0.000 C 
ATOM     19  N   UNL     1       6.546   3.957  15.013  0.00  0.00    +0.000 N 
ATOM     20  O   UNL     1       7.976   4.238  16.704  0.00  0.00    +0.000 OA
ATOM     21  H   UNL     1       5.633   4.075  14.597  0.00  0.00    +0.000 HD
ATOM     22  H   UNL     1       7.284   3.507  14.489  0.00  0.00    +0.000 HD
ENDBRANCH   6  18
BRANCH   5  23
ATOM     23  N   UNL     1       5.490   3.478  18.795  0.00  0.00    +0.000 N 
ATOM     24  H   UNL     1       5.278   2.553  18.440  0.00  0.00    +0.000 HD
ATOM     25  H   UNL     1       5.970   3.487  19.700  0.00  0.00    +0.000 HD
ENDBRANCH   5  23
TORSDOF 4
ENDMDL
MODEL 4
REMARK VINA RESULT:      -7.3      0.481      1.152
REMARK  Name = 
REMARK  5 active torsions:
REMARK  status: ('A' for Active; 'I' for Inactive)
REMARK    1  A    between atoms: C_1  and  O_2
REMARK    2  A    between atoms: O_2  and  C_3
REMARK    3  A    between atoms: C_6  and  C_7
REMARK    4  A    between atoms: C_11  and  N_12
REMARK    5  A    between atoms: C_13  and  C_14
REMARK                            x       y       z     vdW  Elec       q    Type
REMARK                         _______ _______ _______ _____ _____    ______ ____
ROOT
ATOM      1  C   UNL     1       1.473   8.091  20.175  0.00  0.00    +0.000 A 
ATOM      2  C   UNL     1       1.981   8.410  18.913  0.00  0.00    +0.000 A 
ATOM      3  C   UNL     1       2.676   7.453  18.180  0.00  0.00    +0.000 A 
ATOM      4  C   UNL     1       2.838   6.170  18.733  0.00  0.00    +0.000 A 
ATOM      5  C   UNL     1       3.478   4.981  18.258  0.00  0.00    +0.000 A 
ATOM      6  C   UNL     1       3.388   3.919  19.141  0.00  0.00    +0.000 A 
ATOM      7  S   UNL     1       2.527   4.376  20.556  0.00  0.00    +0.000 S 
ATOM      8  C   UNL     1       2.278   5.962  19.987  0.00  0.00    +0.000 A 
ATOM      9  N   UNL     1       1.601   6.862  20.731  0.00  0.00    +0.000 NA
ENDROOT
BRANCH   1  13
ATOM     10  C   UNL     1      -0.612  11.024  22.574  0.00  0.00    +0.000 A 
ATOM     11  C   UNL     1      -0.326  11.279  21.234  0.00  0.00    +0.000 A 
ATOM     12  C   UNL     1       0.338  10.323  20.453  0.00  0.00    +0.000 A 
ATOM     13  C   UNL     1       0.757   9.097  20.996  0.00  0.00    +0.000 A 
ATOM     14  C   UNL     1       0.467   8.871  22.355  0.00  0.00    +0.000 A 
ATOM     15  C   UNL     1      -0.199   9.821  23.137  0.00  0.00    +0.000 A 
BRANCH  10  17
ATOM     16  C   UNL     1      -0.909  13.348  22.855  0.00  0.00    +0.000 C 
ATOM     17  O   UNL     1      -1.257  12.024  23.248  0.00  0.00    +0.000 OA
ENDBRANCH  10  17
ENDBRANCH   1  13
BRANCH   6  18
ATOM     18  C   UNL     1       3.919   2.576  18.964  0.00  0.00    +0.000 C 
ATOM     19  N   UNL     1       4.877   2.158  19.847  0.00  0.00    +0.000 N 
ATOM     20  O   UNL     1       3.564   1.802  18.076  0.00  0.00    +0.000 OA
ATOM     21  H   UNL     1       5.206   2.744  20.601  0.00  0.00    +0.000 HD
ATOM     22  H   UNL     1       5.246   1.224  19.736  0.00  0.00    +0.000 HD
ENDBRANCH   6  18
BRANCH   5  23
ATOM     23  N   UNL     1       4.106   4.904  17.065  0.00  0.00    +0.000 N 
ATOM     24  H   UNL     1       4.927   5.443  16.814  0.00  0.00    +0.000 HD
ATOM     25  H   UNL     1       3.757   4.290  16.323  0.00  0.00    +0.000 HD
ENDBRANCH   5  23
TORSDOF 4
ENDMDL
MODEL 5
REMARK VINA RESULT:      -7.3      2.406      3.215
REMARK  Name = 
REMARK  5 active torsions:
REMARK  status: ('A' for Active; 'I' for Inactive)
REMARK    1  A    between atoms: C_1  and  O_2
REMARK    2  A    between atoms: O_2  and  C_3
REMARK    3  A    between atoms: C_6  and  C_7
REMARK    4  A    between atoms: C_11  and  N_12
REMARK    5  A    between atoms: C_13  and  C_14
REMARK                            x       y       z     vdW  Elec       q    Type
REMARK                         _______ _______ _______ _____ _____    ______ ____
ROOT
ATOM      1  C   UNL     1       2.398   7.047  19.294  0.00  0.00    +0.000 A 
ATOM      2  C   UNL     1       2.271   5.721  19.715  0.00  0.00    +0.000 A 
ATOM      3  C   UNL     1       2.991   4.715  19.078  0.00  0.00    +0.000 A 
ATOM      4  C   UNL     1       3.847   5.071  18.019  0.00  0.00    +0.000 A 
ATOM      5  C   UNL     1       4.713   4.307  17.172  0.00  0.00    +0.000 A 
ATOM      6  C   UNL     1       5.396   5.078  16.248  0.00  0.00    +0.000 A 
ATOM      7  S   UNL     1       4.975   6.736  16.409  0.00  0.00    +0.000 S 
ATOM      8  C   UNL     1       3.905   6.420  17.696  0.00  0.00    +0.000 A 
ATOM      9  N   UNL     1       3.222   7.424  18.287  0.00  0.00    +0.000 NA
ENDROOT
BRANCH   1  13
ATOM     10  C   UNL     1       0.133  10.226  21.157  0.00  0.00    +0.000 A 
ATOM     11  C   UNL     1       0.572  10.348  19.840  0.00  0.00    +0.000 A 
ATOM     12  C   UNL     1       1.296   9.312  19.232  0.00  0.00    +0.000 A 
ATOM     13  C   UNL     1       1.620   8.137  19.931  0.00  0.00    +0.000 A 
ATOM     14  C   UNL     1       1.175   8.046  21.263  0.00  0.00    +0.000 A 
ATOM     15  C   UNL     1       0.450   9.076  21.873  0.00  0.00    +0.000 A 
BRANCH  10  17
ATOM     16  C   UNL     1      -1.113  11.108  22.956  0.00  0.00    +0.000 C 
ATOM     17  O   UNL     1      -0.558  11.294  21.657  0.00  0.00    +0.000 OA
ENDBRANCH  10  17
ENDBRANCH   1  13
BRANCH   6  18
ATOM     18  C   UNL     1       6.353   4.621  15.252  0.00  0.00    +0.000 C 
ATOM     19  N   UNL     1       7.548   5.283  15.179  0.00  0.00    +0.000 N 
ATOM     20  O   UNL     1       6.155   3.684  14.480  0.00  0.00    +0.000 OA
ATOM     21  H   UNL     1       7.774   6.055  15.790  0.00  0.00    +0.000 HD
ATOM     22  H   UNL     1       8.223   4.967  14.496  0.00  0.00    +0.000 HD
ENDBRANCH   6  18
BRANCH   5  23
ATOM     23  N   UNL     1       4.849   2.966  17.267  0.00  0.00    +0.000 N 
ATOM     24  H   UNL     1       4.724   2.322  16.495  0.00  0.00    +0.000 HD
ATOM     25  H   UNL     1       5.072   2.521  18.162  0.00  0.00    +0.000 HD
ENDBRANCH   5  23
TORSDOF 4
ENDMDL
MODEL 6
REMARK VINA RESULT:      -7.2      2.521      3.154
REMARK  Name = 
REMARK  5 active torsions:
REMARK  status: ('A' for Active; 'I' for Inactive)
REMARK    1  A    between atoms: C_1  and  O_2
REMARK    2  A    between atoms: O_2  and  C_3
REMARK    3  A    between atoms: C_6  and  C_7
REMARK    4  A    between atoms: C_11  and  N_12
REMARK    5  A    between atoms: C_13  and  C_14
REMARK                            x       y       z     vdW  Elec       q    Type
REMARK                         _______ _______ _______ _____ _____    ______ ____
ROOT
ATOM      1  C   UNL     1       2.312   7.536  19.167  0.00  0.00    +0.000 A 
ATOM      2  C   UNL     1       2.344   6.469  20.069  0.00  0.00    +0.000 A 
ATOM      3  C   UNL     1       3.208   5.400  19.853  0.00  0.00    +0.000 A 
ATOM      4  C   UNL     1       4.046   5.431  18.723  0.00  0.00    +0.000 A 
ATOM      5  C   UNL     1       5.031   4.523  18.219  0.00  0.00    +0.000 A 
ATOM      6  C   UNL     1       5.639   4.963  17.057  0.00  0.00    +0.000 A 
ATOM      7  S   UNL     1       5.003   6.484  16.576  0.00  0.00    +0.000 S 
ATOM      8  C   UNL     1       3.940   6.548  17.905  0.00  0.00    +0.000 A 
ATOM      9  N   UNL     1       3.114   7.602  18.078  0.00  0.00    +0.000 NA
ENDROOT
BRANCH   1  13
ATOM     10  C   UNL     1      -0.410  10.855  19.696  0.00  0.00    +0.000 A 
ATOM     11  C   UNL     1      -0.055  10.051  20.777  0.00  0.00    +0.000 A 
ATOM     12  C   UNL     1       0.837   8.982  20.609  0.00  0.00    +0.000 A 
ATOM     13  C   UNL     1       1.380   8.674  19.350  0.00  0.00    +0.000 A 
ATOM     14  C   UNL     1       0.995   9.494  18.272  0.00  0.00    +0.000 A 
ATOM     15  C   UNL     1       0.107  10.564  18.437  0.00  0.00    +0.000 A 
BRANCH  10  17
ATOM     16  C   UNL     1      -1.047  13.088  19.276  0.00  0.00    +0.000 C 
ATOM     17  O   UNL     1      -1.291  11.865  19.966  0.00  0.00    +0.000 OA
ENDBRANCH  10  17
ENDBRANCH   1  13
BRANCH   6  18
ATOM     18  C   UNL     1       6.680   4.289  16.296  0.00  0.00    +0.000 C 
ATOM     19  N   UNL     1       6.282   3.363  15.370  0.00  0.00    +0.000 N 
ATOM     20  O   UNL     1       7.885   4.498  16.433  0.00  0.00    +0.000 OA
ATOM     21  H   UNL     1       5.307   3.152  15.205  0.00  0.00    +0.000 HD
ATOM     22  H   UNL     1       6.997   2.896  14.831  0.00  0.00    +0.000 HD
ENDBRANCH   6  18
BRANCH   5  23
ATOM     23  N   UNL     1       5.335   3.351  18.820  0.00  0.00    +0.000 N 
ATOM     24  H   UNL     1       5.873   2.609  18.388  0.00  0.00    +0.000 HD
ATOM     25  H   UNL     1       5.006   3.144  19.768  0.00  0.00    +0.000 HD
ENDBRANCH   5  23
TORSDOF 4
ENDMDL
MODEL 7
REMARK VINA RESULT:      -7.2      2.598      8.064
REMARK  Name = 
REMARK  5 active torsions:
REMARK  status: ('A' for Active; 'I' for Inactive)
REMARK    1  A    between atoms: C_1  and  O_2
REMARK    2  A    between atoms: O_2  and  C_3
REMARK    3  A    between atoms: C_6  and  C_7
REMARK    4  A    between atoms: C_11  and  N_12
REMARK    5  A    between atoms: C_13  and  C_14
REMARK                            x       y       z     vdW  Elec       q    Type
REMARK                         _______ _______ _______ _____ _____    ______ ____
ROOT
ATOM      1  C   UNL     1       2.654   7.696  18.223  0.00  0.00    +0.000 A 
ATOM      2  C   UNL     1       2.297   8.813  17.463  0.00  0.00    +0.000 A 
ATOM      3  C   UNL     1       1.533   9.827  18.031  0.00  0.00    +0.000 A 
ATOM      4  C   UNL     1       1.148   9.703  19.379  0.00  0.00    +0.000 A 
ATOM      5  C   UNL     1       0.385  10.542  20.253  0.00  0.00    +0.000 A 
ATOM      6  C   UNL     1       0.254  10.028  21.531  0.00  0.00    +0.000 A 
ATOM      7  S   UNL     1       1.057   8.515  21.664  0.00  0.00    +0.000 S 
ATOM      8  C   UNL     1       1.573   8.558  20.041  0.00  0.00    +0.000 A 
ATOM      9  N   UNL     1       2.310   7.552  19.525  0.00  0.00    +0.000 NA
ENDROOT
BRANCH   1  13
ATOM     10  C   UNL     1       4.939   4.445  16.514  0.00  0.00    +0.000 A 
ATOM     11  C   UNL     1       5.287   5.770  16.253  0.00  0.00    +0.000 A 
ATOM     12  C   UNL     1       4.554   6.824  16.817  0.00  0.00    +0.000 A 
ATOM     13  C   UNL     1       3.439   6.583  17.637  0.00  0.00    +0.000 A 
ATOM     14  C   UNL     1       3.101   5.236  17.874  0.00  0.00    +0.000 A 
ATOM     15  C   UNL     1       3.833   4.181  17.316  0.00  0.00    +0.000 A 
BRANCH  10  17
ATOM     16  C   UNL     1       6.340   3.897  14.696  0.00  0.00    +0.000 C 
ATOM     17  O   UNL     1       5.714   3.494  15.911  0.00  0.00    +0.000 OA
ENDBRANCH  10  17
ENDBRANCH   1  13
BRANCH   6  18
ATOM     18  C   UNL     1      -0.447  10.628  22.656  0.00  0.00    +0.000 C 
ATOM     19  N   UNL     1      -1.112   9.785  23.503  0.00  0.00    +0.000 N 
ATOM     20  O   UNL     1      -0.478  11.836  22.889  0.00  0.00    +0.000 OA
ATOM     21  H   UNL     1      -1.118   8.783  23.371  0.00  0.00    +0.000 HD
ATOM     22  H   UNL     1      -1.595  10.192  24.292  0.00  0.00    +0.000 HD
ENDBRANCH   6  18
BRANCH   5  23
ATOM     23  N   UNL     1      -0.153  11.719  19.866  0.00  0.00    +0.000 N 
ATOM     24  H   UNL     1      -0.356  12.489  20.493  0.00  0.00    +0.000 HD
ATOM     25  H   UNL     1      -0.408  11.887  18.888  0.00  0.00    +0.000 HD
ENDBRANCH   5  23
TORSDOF 4
ENDMDL
MODEL 8
REMARK VINA RESULT:      -7.1      1.673      2.201
REMARK  Name = 
REMARK  5 active torsions:
REMARK  status: ('A' for Active; 'I' for Inactive)
REMARK    1  A    between atoms: C_1  and  O_2
REMARK    2  A    between atoms: O_2  and  C_3
REMARK    3  A    between atoms: C_6  and  C_7
REMARK    4  A    between atoms: C_11  and  N_12
REMARK    5  A    between atoms: C_13  and  C_14
REMARK                            x       y       z     vdW  Elec       q    Type
REMARK                         _______ _______ _______ _____ _____    ______ ____
ROOT
ATOM      1  C   UNL     1       2.286   7.617  18.924  0.00  0.00    +0.000 A 
ATOM      2  C   UNL     1       3.205   7.681  17.874  0.00  0.00    +0.000 A 
ATOM      3  C   UNL     1       4.021   6.589  17.594  0.00  0.00    +0.000 A 
ATOM      4  C   UNL     1       3.885   5.431  18.380  0.00  0.00    +0.000 A 
ATOM      5  C   UNL     1       4.544   4.160  18.360  0.00  0.00    +0.000 A 
ATOM      6  C   UNL     1       4.081   3.286  19.327  0.00  0.00    +0.000 A 
ATOM      7  S   UNL     1       2.844   4.019  20.267  0.00  0.00    +0.000 S 
ATOM      8  C   UNL     1       2.928   5.474  19.386  0.00  0.00    +0.000 A 
ATOM      9  N   UNL     1       2.121   6.512  19.691  0.00  0.00    +0.000 NA
ENDROOT
BRANCH   1  13
ATOM     10  C   UNL     1      -0.220  10.994  19.936  0.00  0.00    +0.000 A 
ATOM     11  C   UNL     1       0.142  10.752  18.611  0.00  0.00    +0.000 A 
ATOM     12  C   UNL     1       0.944   9.650  18.282  0.00  0.00    +0.000 A 
ATOM     13  C   UNL     1       1.425   8.774  19.269  0.00  0.00    +0.000 A 
ATOM     14  C   UNL     1       1.056   9.049  20.599  0.00  0.00    +0.000 A 
ATOM     15  C   UNL     1       0.252  10.145  20.932  0.00  0.00    +0.000 A 
BRANCH  10  17
ATOM     16  C   UNL     1      -2.160  12.193  19.329  0.00  0.00    +0.000 C 
ATOM     17  O   UNL     1      -0.999  12.097  20.150  0.00  0.00    +0.000 OA
ENDBRANCH  10  17
ENDBRANCH   1  13
BRANCH   6  18
ATOM     18  C   UNL     1       4.528   1.923  19.573  0.00  0.00    +0.000 C 
ATOM     19  N   UNL     1       4.165   0.969  18.661  0.00  0.00    +0.000 N 
ATOM     20  O   UNL     1       5.205   1.579  20.541  0.00  0.00    +0.000 OA
ATOM     21  H   UNL     1       3.616   1.189  17.842  0.00  0.00    +0.000 HD
ATOM     22  H   UNL     1       4.478   0.022  18.819  0.00  0.00    +0.000 HD
ENDBRANCH   6  18
BRANCH   5  23
ATOM     23  N   UNL     1       5.522   3.847  17.482  0.00  0.00    +0.000 N 
ATOM     24  H   UNL     1       6.457   3.559  17.745  0.00  0.00    +0.000 HD
ATOM     25  H   UNL     1       5.363   3.908  16.472  0.00  0.00    +0.000 HD
ENDBRANCH   5  23
TORSDOF 4
ENDMDL
MODEL 9
REMARK VINA RESULT:      -7.1      1.481      1.808
REMARK  Name = 
REMARK  5 active torsions:
REMARK  status: ('A' for Active; 'I' for Inactive)
REMARK    1  A    between atoms: C_1  and  O_2
REMARK    2  A    between atoms: O_2  and  C_3
REMARK    3  A    between atoms: C_6  and  C_7
REMARK    4  A    between atoms: C_11  and  N_12
REMARK    5  A    between atoms: C_13  and  C_14
REMARK                            x       y       z     vdW  Elec       q    Type
REMARK                         _______ _______ _______ _____ _____    ______ ____
ROOT
ATOM      1  C   UNL     1       2.283   7.634  18.924  0.00  0.00    +0.000 A 
ATOM      2  C   UNL     1       3.195   7.694  17.866  0.00  0.00    +0.000 A 
ATOM      3  C   UNL     1       4.006   6.599  17.583  0.00  0.00    +0.000 A 
ATOM      4  C   UNL     1       3.873   5.443  18.374  0.00  0.00    +0.000 A 
ATOM      5  C   UNL     1       4.529   4.170  18.353  0.00  0.00    +0.000 A 
ATOM      6  C   UNL     1       4.071   3.300  19.327  0.00  0.00    +0.000 A 
ATOM      7  S   UNL     1       2.843   4.039  20.274  0.00  0.00    +0.000 S 
ATOM      8  C   UNL     1       2.924   5.492  19.387  0.00  0.00    +0.000 A 
ATOM      9  N   UNL     1       2.122   6.533  19.695  0.00  0.00    +0.000 NA
ENDROOT
BRANCH   1  13
ATOM     10  C   UNL     1      -0.213  11.019  19.933  0.00  0.00    +0.000 A 
ATOM     11  C   UNL     1       0.164  10.100  20.911  0.00  0.00    +0.000 A 
ATOM     12  C   UNL     1       0.984   9.010  20.587  0.00  0.00    +0.000 A 
ATOM     13  C   UNL     1       1.429   8.795  19.272  0.00  0.00    +0.000 A 
ATOM     14  C   UNL     1       1.023   9.731  18.301  0.00  0.00    +0.000 A 
ATOM     15  C   UNL     1       0.208  10.822  18.621  0.00  0.00    +0.000 A 
BRANCH  10  17
ATOM     16  C   UNL     1      -1.005  12.293  21.755  0.00  0.00    +0.000 C 
ATOM     17  O   UNL     1      -1.018  12.042  20.352  0.00  0.00    +0.000 OA
ENDBRANCH  10  17
ENDBRANCH   1  13
BRANCH   6  18
ATOM     18  C   UNL     1       4.517   1.937  19.573  0.00  0.00    +0.000 C 
ATOM     19  N   UNL     1       4.162   0.986  18.656  0.00  0.00    +0.000 N 
ATOM     20  O   UNL     1       5.185   1.592  20.546  0.00  0.00    +0.000 OA
ATOM     21  H   UNL     1       3.621   1.207  17.832  0.00  0.00    +0.000 HD
ATOM     22  H   UNL     1       4.475   0.038  18.814  0.00  0.00    +0.000 HD
ENDBRANCH   6  18
BRANCH   5  23
ATOM     23  N   UNL     1       5.499   3.852  17.469  0.00  0.00    +0.000 N 
ATOM     24  H   UNL     1       5.588   2.950  17.015  0.00  0.00    +0.000 HD
ATOM     25  H   UNL     1       6.230   4.526  17.222  0.00  0.00    +0.000 HD
ENDBRANCH   5  23
TORSDOF 4
ENDMDL
