MODEL 1
REMARK VINA RESULT:      -6.8      0.000      0.000
REMARK  Name = 
REMARK  11 active torsions:
REMARK  status: ('A' for Active; 'I' for Inactive)
REMARK    1  A    between atoms: C_1  and  O_2
REMARK    2  A    between atoms: O_2  and  C_3
REMARK    3  A    between atoms: C_5  and  C_6
REMARK    4  A    between atoms: N_7  and  O_8
REMARK    5  A    between atoms: C_9  and  C_10
REMARK    6  A    between atoms: C_15  and  C_16
REMARK    7  A    between atoms: N_17  and  O_18
REMARK    8  A    between atoms: C_22  and  O_23
REMARK    9  A    between atoms: O_23  and  C_24
REMARK   10  A    between atoms: C_25  and  O_26
REMARK   11  A    between atoms: O_26  and  C_27
REMARK                            x       y       z     vdW  Elec       q    Type
REMARK                         _______ _______ _______ _____ _____    ______ ____
ROOT
ATOM      1  C   UNL     1       2.026   4.655  20.162  0.00  0.00    +0.000 A 
ATOM      2  C   UNL     1       2.379   3.558  19.377  0.00  0.00    +0.000 A 
ATOM      3  C   UNL     1       3.327   3.676  18.348  0.00  0.00    +0.000 A 
ATOM      4  C   UNL     1       3.823   4.939  17.952  0.00  0.00    +0.000 A 
ATOM      5  C   UNL     1       3.196   6.070  18.579  0.00  0.00    +0.000 A 
ATOM      6  C   UNL     1       2.433   5.933  19.763  0.00  0.00    +0.000 A 
ENDROOT
BRANCH   4   7
ATOM      7  C   UNL     1       4.964   5.160  16.971  0.00  0.00    +0.000 A 
ATOM      8  C   UNL     1       4.838   4.852  15.596  0.00  0.00    +0.000 A 
ATOM      9  C   UNL     1       5.941   4.994  14.763  0.00  0.00    +0.000 A 
ATOM     10  C   UNL     1       7.090   5.624  15.180  0.00  0.00    +0.000 A 
ATOM     11  C   UNL     1       7.249   6.044  16.466  0.00  0.00    +0.000 A 
ATOM     12  C   UNL     1       6.246   5.687  17.380  0.00  0.00    +0.000 A 
ATOM     13  O   UNL     1       8.057   5.639  14.224  0.00  0.00    +0.000 OA
ATOM     14  C   UNL     1       7.519   4.630  13.353  0.00  0.00    +0.000 C 
ATOM     15  O   UNL     1       6.087   4.486  13.509  0.00  0.00    +0.000 OA
BRANCH  12  16
ATOM     16  C   UNL     1       6.683   5.733  18.802  0.00  0.00    +0.000 C 
ATOM     17  N   UNL     1       7.816   5.234  19.186  0.00  0.00    +0.000 NA
BRANCH  17  18
ATOM     18  O   UNL     1       7.938   5.392  20.569  0.00  0.00    +0.000 OA
ATOM     19  H   UNL     1       8.780   5.879  20.643  0.00  0.00    +0.000 HD
ENDBRANCH  17  18
ENDBRANCH  12  16
ENDBRANCH   4   7
BRANCH   1  21
ATOM     20  C   UNL     1       1.283   3.158  21.842  0.00  0.00    +0.000 C 
ATOM     21  O   UNL     1       1.308   4.487  21.316  0.00  0.00    +0.000 OA
ENDBRANCH   1  21
BRANCH   3  22
ATOM     22  C   UNL     1       3.813   2.371  17.839  0.00  0.00    +0.000 C 
ATOM     23  N   UNL     1       3.896   1.329  18.614  0.00  0.00    +0.000 NA
BRANCH  23  24
ATOM     24  O   UNL     1       4.385   0.244  17.890  0.00  0.00    +0.000 OA
ATOM     25  H   UNL     1       4.382  -0.466  18.559  0.00  0.00    +0.000 HD
ENDBRANCH  23  24
ENDBRANCH   3  22
BRANCH   5  26
ATOM     26  O   UNL     1       3.501   7.268  17.983  0.00  0.00    +0.000 OA
ATOM     27  C   UNL     1       2.543   8.216  17.551  0.00  0.00    +0.000 C 
ENDBRANCH   5  26
BRANCH   6  28
ATOM     28  O   UNL     1       2.347   7.066  20.531  0.00  0.00    +0.000 OA
ATOM     29  C   UNL     1       1.090   7.664  20.802  0.00  0.00    +0.000 C 
ENDBRANCH   6  28
TORSDOF 8
ENDMDL
MODEL 2
REMARK VINA RESULT:      -6.0      9.321     12.552
REMARK  Name = 
REMARK  11 active torsions:
REMARK  status: ('A' for Active; 'I' for Inactive)
REMARK    1  A    between atoms: C_1  and  O_2
REMARK    2  A    between atoms: O_2  and  C_3
REMARK    3  A    between atoms: C_5  and  C_6
REMARK    4  A    between atoms: N_7  and  O_8
REMARK    5  A    between atoms: C_9  and  C_10
REMARK    6  A    between atoms: C_15  and  C_16
REMARK    7  A    between atoms: N_17  and  O_18
REMARK    8  A    between atoms: C_22  and  O_23
REMARK    9  A    between atoms: O_23  and  C_24
REMARK   10  A    between atoms: C_25  and  O_26
REMARK   11  A    between atoms: O_26  and  C_27
REMARK                            x       y       z     vdW  Elec       q    Type
REMARK                         _______ _______ _______ _____ _____    ______ ____
ROOT
ATOM      1  C   UNL     1      -5.588  11.768  19.149  0.00  0.00    +0.000 A 
ATOM      2  C   UNL     1      -5.899  12.068  20.475  0.00  0.00    +0.000 A 
ATOM      3  C   UNL     1      -4.964  12.692  21.317  0.00  0.00    +0.000 A 
ATOM      4  C   UNL     1      -3.622  12.876  20.912  0.00  0.00    +0.000 A 
ATOM      5  C   UNL     1      -3.270  12.268  19.658  0.00  0.00    +0.000 A 
ATOM      6  C   UNL     1      -4.256  11.864  18.727  0.00  0.00    +0.000 A 
ENDROOT
BRANCH   4   7
ATOM      7  C   UNL     1      -2.582  13.681  21.676  0.00  0.00    +0.000 A 
ATOM      8  C   UNL     1      -2.268  15.016  21.330  0.00  0.00    +0.000 A 
ATOM      9  C   UNL     1      -1.249  15.673  22.008  0.00  0.00    +0.000 A 
ATOM     10  C   UNL     1      -0.677  15.149  23.144  0.00  0.00    +0.000 A 
ATOM     11  C   UNL     1      -1.002  13.908  23.601  0.00  0.00    +0.000 A 
ATOM     12  C   UNL     1      -1.844  13.132  22.791  0.00  0.00    +0.000 A 
ATOM     13  O   UNL     1       0.315  15.934  23.642  0.00  0.00    +0.000 OA
ATOM     14  C   UNL     1       0.536  16.765  22.489  0.00  0.00    +0.000 C 
ATOM     15  O   UNL     1      -0.629  16.825  21.632  0.00  0.00    +0.000 OA
BRANCH  12  16
ATOM     16  C   UNL     1      -1.774  11.673  23.072  0.00  0.00    +0.000 C 
ATOM     17  N   UNL     1      -0.642  11.047  23.160  0.00  0.00    +0.000 NA
BRANCH  17  18
ATOM     18  O   UNL     1      -0.887   9.692  23.394  0.00  0.00    +0.000 OA
ATOM     19  H   UNL     1      -1.393   9.719  24.228  0.00  0.00    +0.000 HD
ENDBRANCH  17  18
ENDBRANCH  12  16
ENDBRANCH   4   7
BRANCH   1  21
ATOM     20  C   UNL     1      -7.205  12.477  17.570  0.00  0.00    +0.000 C 
ATOM     21  O   UNL     1      -6.569  11.403  18.266  0.00  0.00    +0.000 OA
ENDBRANCH   1  21
BRANCH   3  22
ATOM     22  C   UNL     1      -5.556  13.220  22.569  0.00  0.00    +0.000 C 
ATOM     23  N   UNL     1      -6.203  12.449  23.393  0.00  0.00    +0.000 NA
BRANCH  23  24
ATOM     24  O   UNL     1      -6.658  13.195  24.477  0.00  0.00    +0.000 OA
ATOM     25  H   UNL     1      -7.188  12.540  24.969  0.00  0.00    +0.000 HD
ENDBRANCH  23  24
ENDBRANCH   3  22
BRANCH   5  26
ATOM     26  O   UNL     1      -1.918  12.228  19.427  0.00  0.00    +0.000 OA
ATOM     27  C   UNL     1      -1.124  11.059  19.513  0.00  0.00    +0.000 C 
ENDBRANCH   5  26
BRANCH   6  28
ATOM     28  O   UNL     1      -3.835  11.809  17.423  0.00  0.00    +0.000 OA
ATOM     29  C   UNL     1      -3.607  10.562  16.787  0.00  0.00    +0.000 C 
ENDBRANCH   6  28
TORSDOF 8
ENDMDL
MODEL 3
REMARK VINA RESULT:      -5.9      8.648     11.516
REMARK  Name = 
REMARK  11 active torsions:
REMARK  status: ('A' for Active; 'I' for Inactive)
REMARK    1  A    between atoms: C_1  and  O_2
REMARK    2  A    between atoms: O_2  and  C_3
REMARK    3  A    between atoms: C_5  and  C_6
REMARK    4  A    between atoms: N_7  and  O_8
REMARK    5  A    between atoms: C_9  and  C_10
REMARK    6  A    between atoms: C_15  and  C_16
REMARK    7  A    between atoms: N_17  and  O_18
REMARK    8  A    between atoms: C_22  and  O_23
REMARK    9  A    between atoms: O_23  and  C_24
REMARK   10  A    between atoms: C_25  and  O_26
REMARK   11  A    between atoms: O_26  and  C_27
REMARK                            x       y       z     vdW  Elec       q    Type
REMARK                         _______ _______ _______ _____ _____    ______ ____
ROOT
ATOM      1  C   UNL     1      -0.813  15.284  24.149  0.00  0.00    +0.000 A 
ATOM      2  C   UNL     1      -1.995  14.542  24.148  0.00  0.00    +0.000 A 
ATOM      3  C   UNL     1      -2.296  13.657  23.101  0.00  0.00    +0.000 A 
ATOM      4  C   UNL     1      -1.507  13.616  21.928  0.00  0.00    +0.000 A 
ATOM      5  C   UNL     1      -0.483  14.621  21.841  0.00  0.00    +0.000 A 
ATOM      6  C   UNL     1      -0.042  15.332  22.982  0.00  0.00    +0.000 A 
ENDROOT
BRANCH   4   7
ATOM      7  C   UNL     1      -1.648  12.588  20.816  0.00  0.00    +0.000 A 
ATOM      8  C   UNL     1      -2.586  12.743  19.769  0.00  0.00    +0.000 A 
ATOM      9  C   UNL     1      -2.730  11.731  18.829  0.00  0.00    +0.000 A 
ATOM     10  C   UNL     1      -1.848  10.678  18.754  0.00  0.00    +0.000 A 
ATOM     11  C   UNL     1      -0.851  10.514  19.667  0.00  0.00    +0.000 A 
ATOM     12  C   UNL     1      -0.844  11.388  20.765  0.00  0.00    +0.000 A 
ATOM     13  O   UNL     1      -2.177   9.786  17.783  0.00  0.00    +0.000 OA
ATOM     14  C   UNL     1      -3.535  10.201  17.554  0.00  0.00    +0.000 C 
ATOM     15  O   UNL     1      -3.754  11.578  17.944  0.00  0.00    +0.000 OA
BRANCH  12  16
ATOM     16  C   UNL     1      -0.076  10.881  21.934  0.00  0.00    +0.000 C 
ATOM     17  N   UNL     1      -0.562   9.986  22.736  0.00  0.00    +0.000 NA
BRANCH  17  18
ATOM     18  O   UNL     1       0.363   9.733  23.752  0.00  0.00    +0.000 OA
ATOM     19  H   UNL     1       1.185  10.098  23.372  0.00  0.00    +0.000 HD
ENDBRANCH  17  18
ENDBRANCH  12  16
ENDBRANCH   4   7
BRANCH   1  21
ATOM     20  C   UNL     1      -1.011  17.212  25.512  0.00  0.00    +0.000 C 
ATOM     21  O   UNL     1      -0.401  15.941  25.278  0.00  0.00    +0.000 OA
ENDBRANCH   1  21
BRANCH   3  22
ATOM     22  C   UNL     1      -3.408  12.729  23.412  0.00  0.00    +0.000 C 
ATOM     23  N   UNL     1      -3.903  12.642  24.612  0.00  0.00    +0.000 NA
BRANCH  23  24
ATOM     24  O   UNL     1      -4.927  11.697  24.631  0.00  0.00    +0.000 OA
ATOM     25  H   UNL     1      -5.497  12.027  25.351  0.00  0.00    +0.000 HD
ENDBRANCH  23  24
ENDBRANCH   3  22
BRANCH   5  26
ATOM     26  O   UNL     1       0.076  14.729  20.592  0.00  0.00    +0.000 OA
ATOM     27  C   UNL     1      -0.260  15.728  19.647  0.00  0.00    +0.000 C 
ENDBRANCH   5  26
BRANCH   6  28
ATOM     28  O   UNL     1       1.230  15.835  22.896  0.00  0.00    +0.000 OA
ATOM     29  C   UNL     1       1.450  17.212  22.637  0.00  0.00    +0.000 C 
ENDBRANCH   6  28
TORSDOF 8
ENDMDL
MODEL 4
REMARK VINA RESULT:      -5.9      1.920      3.655
REMARK  Name = 
REMARK  11 active torsions:
REMARK  status: ('A' for Active; 'I' for Inactive)
REMARK    1  A    between atoms: C_1  and  O_2
REMARK    2  A    between atoms: O_2  and  C_3
REMARK    3  A    between atoms: C_5  and  C_6
REMARK    4  A    between atoms: N_7  and  O_8
REMARK    5  A    between atoms: C_9  and  C_10
REMARK    6  A    between atoms: C_15  and  C_16
REMARK    7  A    between atoms: N_17  and  O_18
REMARK    8  A    between atoms: C_22  and  O_23
REMARK    9  A    between atoms: O_23  and  C_24
REMARK   10  A    between atoms: C_25  and  O_26
REMARK   11  A    between atoms: O_26  and  C_27
REMARK                            x       y       z     vdW  Elec       q    Type
REMARK                         _______ _______ _______ _____ _____    ______ ____
ROOT
ATOM      1  C   UNL     1       1.686   6.238  20.505  0.00  0.00    +0.000 A 
ATOM      2  C   UNL     1       2.105   7.357  19.785  0.00  0.00    +0.000 A 
ATOM      3  C   UNL     1       3.116   7.261  18.816  0.00  0.00    +0.000 A 
ATOM      4  C   UNL     1       3.868   6.074  18.659  0.00  0.00    +0.000 A 
ATOM      5  C   UNL     1       3.612   5.050  19.636  0.00  0.00    +0.000 A 
ATOM      6  C   UNL     1       2.447   5.065  20.438  0.00  0.00    +0.000 A 
ENDROOT
BRANCH   4   7
ATOM      7  C   UNL     1       4.863   5.812  17.539  0.00  0.00    +0.000 A 
ATOM      8  C   UNL     1       4.449   5.380  16.257  0.00  0.00    +0.000 A 
ATOM      9  C   UNL     1       5.408   5.075  15.300  0.00  0.00    +0.000 A 
ATOM     10  C   UNL     1       6.737   5.380  15.480  0.00  0.00    +0.000 A 
ATOM     11  C   UNL     1       7.200   5.897  16.652  0.00  0.00    +0.000 A 
ATOM     12  C   UNL     1       6.288   5.979  17.715  0.00  0.00    +0.000 A 
ATOM     13  O   UNL     1       7.513   4.979  14.438  0.00  0.00    +0.000 OA
ATOM     14  C   UNL     1       6.589   4.073  13.811  0.00  0.00    +0.000 C 
ATOM     15  O   UNL     1       5.215   4.387  14.141  0.00  0.00    +0.000 OA
BRANCH  12  16
ATOM     16  C   UNL     1       6.929   6.077  19.053  0.00  0.00    +0.000 C 
ATOM     17  N   UNL     1       7.691   5.136  19.518  0.00  0.00    +0.000 NA
BRANCH  17  18
ATOM     18  O   UNL     1       8.120   5.488  20.800  0.00  0.00    +0.000 OA
ATOM     19  H   UNL     1       7.842   4.714  21.325  0.00  0.00    +0.000 HD
ENDBRANCH  17  18
ENDBRANCH  12  16
ENDBRANCH   4   7
BRANCH   1  21
ATOM     20  C   UNL     1      -0.030   7.573  21.448  0.00  0.00    +0.000 C 
ATOM     21  O   UNL     1       0.539   6.277  21.253  0.00  0.00    +0.000 OA
ENDBRANCH   1  21
BRANCH   3  22
ATOM     22  C   UNL     1       3.208   8.450  17.937  0.00  0.00    +0.000 C 
ATOM     23  N   UNL     1       2.341   9.418  18.012  0.00  0.00    +0.000 NA
BRANCH  23  24
ATOM     24  O   UNL     1       2.654  10.402  17.077  0.00  0.00    +0.000 OA
ATOM     25  H   UNL     1       2.147  11.167  17.407  0.00  0.00    +0.000 HD
ENDBRANCH  23  24
ENDBRANCH   3  22
BRANCH   5  26
ATOM     26  O   UNL     1       4.537   4.036  19.624  0.00  0.00    +0.000 OA
ATOM     27  C   UNL     1       4.337   2.775  19.014  0.00  0.00    +0.000 C 
ENDBRANCH   5  26
BRANCH   6  28
ATOM     28  O   UNL     1       2.053   3.840  20.911  0.00  0.00    +0.000 OA
ATOM     29  C   UNL     1       1.008   3.119  20.278  0.00  0.00    +0.000 C 
ENDBRANCH   6  28
TORSDOF 8
ENDMDL
MODEL 5
REMARK VINA RESULT:      -5.9      6.744      9.834
REMARK  Name = 
REMARK  11 active torsions:
REMARK  status: ('A' for Active; 'I' for Inactive)
REMARK    1  A    between atoms: C_1  and  O_2
REMARK    2  A    between atoms: O_2  and  C_3
REMARK    3  A    between atoms: C_5  and  C_6
REMARK    4  A    between atoms: N_7  and  O_8
REMARK    5  A    between atoms: C_9  and  C_10
REMARK    6  A    between atoms: C_15  and  C_16
REMARK    7  A    between atoms: N_17  and  O_18
REMARK    8  A    between atoms: C_22  and  O_23
REMARK    9  A    between atoms: O_23  and  C_24
REMARK   10  A    between atoms: C_25  and  O_26
REMARK   11  A    between atoms: O_26  and  C_27
REMARK                            x       y       z     vdW  Elec       q    Type
REMARK                         _______ _______ _______ _____ _____    ______ ____
ROOT
ATOM      1  C   UNL     1      -3.948  13.112  22.482  0.00  0.00    +0.000 A 
ATOM      2  C   UNL     1      -2.994  12.268  23.050  0.00  0.00    +0.000 A 
ATOM      3  C   UNL     1      -1.929  11.759  22.289  0.00  0.00    +0.000 A 
ATOM      4  C   UNL     1      -1.882  11.934  20.887  0.00  0.00    +0.000 A 
ATOM      5  C   UNL     1      -3.047  12.541  20.304  0.00  0.00    +0.000 A 
ATOM      6  C   UNL     1      -3.984  13.254  21.089  0.00  0.00    +0.000 A 
ENDROOT
BRANCH   4   7
ATOM      7  C   UNL     1      -0.701  11.570  20.001  0.00  0.00    +0.000 A 
ATOM      8  C   UNL     1      -0.639  10.339  19.307  0.00  0.00    +0.000 A 
ATOM      9  C   UNL     1       0.503  10.023  18.581  0.00  0.00    +0.000 A 
ATOM     10  C   UNL     1       1.487  10.952  18.336  0.00  0.00    +0.000 A 
ATOM     11  C   UNL     1       1.448  12.198  18.885  0.00  0.00    +0.000 A 
ATOM     12  C   UNL     1       0.431  12.449  19.819  0.00  0.00    +0.000 A 
ATOM     13  O   UNL     1       2.528  10.439  17.628  0.00  0.00    +0.000 OA
ATOM     14  C   UNL     1       2.250   9.040  17.813  0.00  0.00    +0.000 C 
ATOM     15  O   UNL     1       0.853   8.798  18.102  0.00  0.00    +0.000 OA
BRANCH  12  16
ATOM     16  C   UNL     1       0.712  13.599  20.720  0.00  0.00    +0.000 C 
ATOM     17  N   UNL     1       1.702  13.587  21.557  0.00  0.00    +0.000 NA
BRANCH  17  18
ATOM     18  O   UNL     1       1.696  14.778  22.287  0.00  0.00    +0.000 OA
ATOM     19  H   UNL     1       0.984  14.615  22.934  0.00  0.00    +0.000 HD
ENDBRANCH  17  18
ENDBRANCH  12  16
ENDBRANCH   4   7
BRANCH   1  21
ATOM     20  C   UNL     1      -4.252  14.851  24.062  0.00  0.00    +0.000 C 
ATOM     21  O   UNL     1      -4.825  13.808  23.271  0.00  0.00    +0.000 OA
ENDBRANCH   1  21
BRANCH   3  22
ATOM     22  C   UNL     1      -0.852  11.156  23.109  0.00  0.00    +0.000 C 
ATOM     23  N   UNL     1      -0.656   9.870  23.133  0.00  0.00    +0.000 NA
BRANCH  23  24
ATOM     24  O   UNL     1       0.407   9.573  23.982  0.00  0.00    +0.000 OA
ATOM     25  H   UNL     1       1.160   9.535  23.363  0.00  0.00    +0.000 HD
ENDBRANCH  23  24
ENDBRANCH   3  22
BRANCH   5  26
ATOM     26  O   UNL     1      -3.089  12.449  18.935  0.00  0.00    +0.000 OA
ATOM     27  C   UNL     1      -3.985  11.624  18.214  0.00  0.00    +0.000 C 
ENDBRANCH   5  26
BRANCH   6  28
ATOM     28  O   UNL     1      -4.713  14.196  20.410  0.00  0.00    +0.000 OA
ATOM     29  C   UNL     1      -6.081  13.976  20.108  0.00  0.00    +0.000 C 
ENDBRANCH   6  28
TORSDOF 8
ENDMDL
MODEL 6
REMARK VINA RESULT:      -5.9      5.488      8.324
REMARK  Name = 
REMARK  11 active torsions:
REMARK  status: ('A' for Active; 'I' for Inactive)
REMARK    1  A    between atoms: C_1  and  O_2
REMARK    2  A    between atoms: O_2  and  C_3
REMARK    3  A    between atoms: C_5  and  C_6
REMARK    4  A    between atoms: N_7  and  O_8
REMARK    5  A    between atoms: C_9  and  C_10
REMARK    6  A    between atoms: C_15  and  C_16
REMARK    7  A    between atoms: N_17  and  O_18
REMARK    8  A    between atoms: C_22  and  O_23
REMARK    9  A    between atoms: O_23  and  C_24
REMARK   10  A    between atoms: C_25  and  O_26
REMARK   11  A    between atoms: O_26  and  C_27
REMARK                            x       y       z     vdW  Elec       q    Type
REMARK                         _______ _______ _______ _____ _____    ______ ____
ROOT
ATOM      1  C   UNL     1      -2.168  13.140  20.118  0.00  0.00    +0.000 A 
ATOM      2  C   UNL     1      -2.363  12.292  19.028  0.00  0.00    +0.000 A 
ATOM      3  C   UNL     1      -1.476  11.238  18.760  0.00  0.00    +0.000 A 
ATOM      4  C   UNL     1      -0.260  11.106  19.470  0.00  0.00    +0.000 A 
ATOM      5  C   UNL     1       0.046  12.184  20.369  0.00  0.00    +0.000 A 
ATOM      6  C   UNL     1      -0.947  13.095  20.801  0.00  0.00    +0.000 A 
ENDROOT
BRANCH   4   7
ATOM      7  C   UNL     1       0.684   9.918  19.372  0.00  0.00    +0.000 A 
ATOM      8  C   UNL     1       1.462   9.675  18.216  0.00  0.00    +0.000 A 
ATOM      9  C   UNL     1       2.242   8.527  18.149  0.00  0.00    +0.000 A 
ATOM     10  C   UNL     1       2.452   7.727  19.248  0.00  0.00    +0.000 A 
ATOM     11  C   UNL     1       1.818   7.956  20.431  0.00  0.00    +0.000 A 
ATOM     12  C   UNL     1       0.838   8.960  20.444  0.00  0.00    +0.000 A 
ATOM     13  O   UNL     1       3.225   6.643  18.968  0.00  0.00    +0.000 OA
ATOM     14  C   UNL     1       3.128   6.670  17.533  0.00  0.00    +0.000 C 
ATOM     15  O   UNL     1       2.815   7.993  17.035  0.00  0.00    +0.000 OA
BRANCH  12  16
ATOM     16  C   UNL     1      -0.130   8.844  21.566  0.00  0.00    +0.000 C 
ATOM     17  N   UNL     1      -0.015   9.554  22.646  0.00  0.00    +0.000 NA
BRANCH  17  18
ATOM     18  O   UNL     1      -1.040   9.207  23.530  0.00  0.00    +0.000 OA
ATOM     19  H   UNL     1      -0.712   8.366  23.900  0.00  0.00    +0.000 HD
ENDBRANCH  17  18
ENDBRANCH  12  16
ENDBRANCH   4   7
BRANCH   1  21
ATOM     20  C   UNL     1      -4.465  13.423  20.624  0.00  0.00    +0.000 C 
ATOM     21  O   UNL     1      -3.158  13.993  20.527  0.00  0.00    +0.000 OA
ENDBRANCH   1  21
BRANCH   3  22
ATOM     22  C   UNL     1      -2.000  10.258  17.779  0.00  0.00    +0.000 C 
ATOM     23  N   UNL     1      -2.251  10.598  16.549  0.00  0.00    +0.000 NA
BRANCH  23  24
ATOM     24  O   UNL     1      -2.737   9.497  15.847  0.00  0.00    +0.000 OA
ATOM     25  H   UNL     1      -3.683   9.500  16.090  0.00  0.00    +0.000 HD
ENDBRANCH  23  24
ENDBRANCH   3  22
BRANCH   5  26
ATOM     26  O   UNL     1       1.339  12.165  20.830  0.00  0.00    +0.000 OA
ATOM     27  C   UNL     1       2.331  13.111  20.476  0.00  0.00    +0.000 C 
ENDBRANCH   5  26
BRANCH   6  28
ATOM     28  O   UNL     1      -0.691  13.705  22.002  0.00  0.00    +0.000 OA
ATOM     29  C   UNL     1      -1.195  13.165  23.213  0.00  0.00    +0.000 C 
ENDBRANCH   6  28
TORSDOF 8
ENDMDL
MODEL 7
REMARK VINA RESULT:      -5.8      2.423      3.989
REMARK  Name = 
REMARK  11 active torsions:
REMARK  status: ('A' for Active; 'I' for Inactive)
REMARK    1  A    between atoms: C_1  and  O_2
REMARK    2  A    between atoms: O_2  and  C_3
REMARK    3  A    between atoms: C_5  and  C_6
REMARK    4  A    between atoms: N_7  and  O_8
REMARK    5  A    between atoms: C_9  and  C_10
REMARK    6  A    between atoms: C_15  and  C_16
REMARK    7  A    between atoms: N_17  and  O_18
REMARK    8  A    between atoms: C_22  and  O_23
REMARK    9  A    between atoms: O_23  and  C_24
REMARK   10  A    between atoms: C_25  and  O_26
REMARK   11  A    between atoms: O_26  and  C_27
REMARK                            x       y       z     vdW  Elec       q    Type
REMARK                         _______ _______ _______ _____ _____    ______ ____
ROOT
ATOM      1  C   UNL     1       1.220   8.034  21.225  0.00  0.00    +0.000 A 
ATOM      2  C   UNL     1       1.452   6.678  21.454  0.00  0.00    +0.000 A 
ATOM      3  C   UNL     1       2.143   5.891  20.519  0.00  0.00    +0.000 A 
ATOM      4  C   UNL     1       2.472   6.395  19.239  0.00  0.00    +0.000 A 
ATOM      5  C   UNL     1       1.936   7.693  18.933  0.00  0.00    +0.000 A 
ATOM      6  C   UNL     1       1.460   8.557  19.948  0.00  0.00    +0.000 A 
ENDROOT
BRANCH   4   7
ATOM      7  C   UNL     1       3.356   5.688  18.223  0.00  0.00    +0.000 A 
ATOM      8  C   UNL     1       4.549   6.272  17.737  0.00  0.00    +0.000 A 
ATOM      9  C   UNL     1       5.272   5.618  16.746  0.00  0.00    +0.000 A 
ATOM     10  C   UNL     1       4.986   4.326  16.373  0.00  0.00    +0.000 A 
ATOM     11  C   UNL     1       3.912   3.656  16.875  0.00  0.00    +0.000 A 
ATOM     12  C   UNL     1       3.030   4.386  17.686  0.00  0.00    +0.000 A 
ATOM     13  O   UNL     1       5.794   3.878  15.374  0.00  0.00    +0.000 OA
ATOM     14  C   UNL     1       6.316   5.142  14.932  0.00  0.00    +0.000 C 
ATOM     15  O   UNL     1       6.258   6.147  15.971  0.00  0.00    +0.000 OA
BRANCH  12  16
ATOM     16  C   UNL     1       1.675   3.784  17.799  0.00  0.00    +0.000 C 
ATOM     17  N   UNL     1       1.495   2.586  18.262  0.00  0.00    +0.000 NA
BRANCH  17  18
ATOM     18  O   UNL     1       0.133   2.280  18.217  0.00  0.00    +0.000 OA
ATOM     19  H   UNL     1      -0.178   2.614  19.079  0.00  0.00    +0.000 HD
ENDBRANCH  17  18
ENDBRANCH  12  16
ENDBRANCH   4   7
BRANCH   1  21
ATOM     20  C   UNL     1      -0.634   8.900  22.420  0.00  0.00    +0.000 C 
ATOM     21  O   UNL     1       0.782   8.849  22.234  0.00  0.00    +0.000 OA
ENDBRANCH   1  21
BRANCH   3  22
ATOM     22  C   UNL     1       2.576   4.580  21.055  0.00  0.00    +0.000 C 
ATOM     23  N   UNL     1       1.717   3.719  21.518  0.00  0.00    +0.000 NA
BRANCH  23  24
ATOM     24  O   UNL     1       2.386   2.580  21.962  0.00  0.00    +0.000 OA
ATOM     25  H   UNL     1       2.503   2.770  22.912  0.00  0.00    +0.000 HD
ENDBRANCH  23  24
ENDBRANCH   3  22
BRANCH   5  26
ATOM     26  O   UNL     1       2.038   8.032  17.607  0.00  0.00    +0.000 OA
ATOM     27  C   UNL     1       2.781   9.131  17.115  0.00  0.00    +0.000 C 
ENDBRANCH   5  26
BRANCH   6  28
ATOM     28  O   UNL     1       1.482   9.891  19.632  0.00  0.00    +0.000 OA
ATOM     29  C   UNL     1       0.291  10.571  19.273  0.00  0.00    +0.000 C 
ENDBRANCH   6  28
TORSDOF 8
ENDMDL
MODEL 8
REMARK VINA RESULT:      -5.8      8.587     12.338
REMARK  Name = 
REMARK  11 active torsions:
REMARK  status: ('A' for Active; 'I' for Inactive)
REMARK    1  A    between atoms: C_1  and  O_2
REMARK    2  A    between atoms: O_2  and  C_3
REMARK    3  A    between atoms: C_5  and  C_6
REMARK    4  A    between atoms: N_7  and  O_8
REMARK    5  A    between atoms: C_9  and  C_10
REMARK    6  A    between atoms: C_15  and  C_16
REMARK    7  A    between atoms: N_17  and  O_18
REMARK    8  A    between atoms: C_22  and  O_23
REMARK    9  A    between atoms: O_23  and  C_24
REMARK   10  A    between atoms: C_25  and  O_26
REMARK   11  A    between atoms: O_26  and  C_27
REMARK                            x       y       z     vdW  Elec       q    Type
REMARK                         _______ _______ _______ _____ _____    ______ ____
ROOT
ATOM      1  C   UNL     1      -4.927  15.247  23.690  0.00  0.00    +0.000 A 
ATOM      2  C   UNL     1      -5.282  14.391  22.648  0.00  0.00    +0.000 A 
ATOM      3  C   UNL     1      -4.379  13.437  22.151  0.00  0.00    +0.000 A 
ATOM      4  C   UNL     1      -3.026  13.427  22.561  0.00  0.00    +0.000 A 
ATOM      5  C   UNL     1      -2.630  14.525  23.400  0.00  0.00    +0.000 A 
ATOM      6  C   UNL     1      -3.583  15.324  24.076  0.00  0.00    +0.000 A 
ENDROOT
BRANCH   4   7
ATOM      7  C   UNL     1      -2.016  12.345  22.213  0.00  0.00    +0.000 A 
ATOM      8  C   UNL     1      -1.590  11.387  23.162  0.00  0.00    +0.000 A 
ATOM      9  C   UNL     1      -0.602  10.475  22.813  0.00  0.00    +0.000 A 
ATOM     10  C   UNL     1      -0.174  10.331  21.514  0.00  0.00    +0.000 A 
ATOM     11  C   UNL     1      -0.615  11.150  20.520  0.00  0.00    +0.000 A 
ATOM     12  C   UNL     1      -1.423  12.233  20.900  0.00  0.00    +0.000 A 
ATOM     13  O   UNL     1       0.813   9.404  21.386  0.00  0.00    +0.000 OA
ATOM     14  C   UNL     1       1.193   9.297  22.769  0.00  0.00    +0.000 C 
ATOM     15  O   UNL     1       0.121   9.690  23.658  0.00  0.00    +0.000 OA
BRANCH  12  16
ATOM     16  C   UNL     1      -1.469  13.332  19.898  0.00  0.00    +0.000 C 
ATOM     17  N   UNL     1      -0.428  14.058  19.630  0.00  0.00    +0.000 NA
BRANCH  17  18
ATOM     18  O   UNL     1      -0.778  15.024  18.684  0.00  0.00    +0.000 OA
ATOM     19  H   UNL     1      -0.556  15.853  19.149  0.00  0.00    +0.000 HD
ENDBRANCH  17  18
ENDBRANCH  12  16
ENDBRANCH   4   7
BRANCH   1  21
ATOM     20  C   UNL     1      -7.190  15.941  23.780  0.00  0.00    +0.000 C 
ATOM     21  O   UNL     1      -5.877  15.988  24.341  0.00  0.00    +0.000 OA
ENDBRANCH   1  21
BRANCH   3  22
ATOM     22  C   UNL     1      -5.014  12.416  21.285  0.00  0.00    +0.000 C 
ATOM     23  N   UNL     1      -6.237  12.020  21.488  0.00  0.00    +0.000 NA
BRANCH  23  24
ATOM     24  O   UNL     1      -6.582  11.057  20.542  0.00  0.00    +0.000 OA
ATOM     25  H   UNL     1      -5.709  10.774  20.211  0.00  0.00    +0.000 HD
ENDBRANCH  23  24
ENDBRANCH   3  22
BRANCH   5  26
ATOM     26  O   UNL     1      -1.271  14.638  23.554  0.00  0.00    +0.000 OA
ATOM     27  C   UNL     1      -0.468  15.606  22.905  0.00  0.00    +0.000 C 
ENDBRANCH   5  26
BRANCH   6  28
ATOM     28  O   UNL     1      -3.120  15.948  25.205  0.00  0.00    +0.000 OA
ATOM     29  C   UNL     1      -2.848  17.340  25.204  0.00  0.00    +0.000 C 
ENDBRANCH   6  28
TORSDOF 8
ENDMDL
MODEL 9
REMARK VINA RESULT:      -5.8      7.604     12.105
REMARK  Name = 
REMARK  11 active torsions:
REMARK  status: ('A' for Active; 'I' for Inactive)
REMARK    1  A    between atoms: C_1  and  O_2
REMARK    2  A    between atoms: O_2  and  C_3
REMARK    3  A    between atoms: C_5  and  C_6
REMARK    4  A    between atoms: N_7  and  O_8
REMARK    5  A    between atoms: C_9  and  C_10
REMARK    6  A    between atoms: C_15  and  C_16
REMARK    7  A    between atoms: N_17  and  O_18
REMARK    8  A    between atoms: C_22  and  O_23
REMARK    9  A    between atoms: O_23  and  C_24
REMARK   10  A    between atoms: C_25  and  O_26
REMARK   11  A    between atoms: O_26  and  C_27
REMARK                            x       y       z     vdW  Elec       q    Type
REMARK                         _______ _______ _______ _____ _____    ______ ____
ROOT
ATOM      1  C   UNL     1      -0.455  10.564  19.140  0.00  0.00    +0.000 A 
ATOM      2  C   UNL     1      -0.188  10.249  20.472  0.00  0.00    +0.000 A 
ATOM      3  C   UNL     1      -0.564  11.113  21.513  0.00  0.00    +0.000 A 
ATOM      4  C   UNL     1      -1.063  12.408  21.244  0.00  0.00    +0.000 A 
ATOM      5  C   UNL     1      -1.026  12.806  19.863  0.00  0.00    +0.000 A 
ATOM      6  C   UNL     1      -0.878  11.860  18.822  0.00  0.00    +0.000 A 
ENDROOT
BRANCH   4   7
ATOM      7  C   UNL     1      -1.648  13.351  22.283  0.00  0.00    +0.000 A 
ATOM      8  C   UNL     1      -0.829  14.087  23.171  0.00  0.00    +0.000 A 
ATOM      9  C   UNL     1      -1.422  14.867  24.156  0.00  0.00    +0.000 A 
ATOM     10  C   UNL     1      -2.773  15.119  24.167  0.00  0.00    +0.000 A 
ATOM     11  C   UNL     1      -3.618  14.529  23.277  0.00  0.00    +0.000 A 
ATOM     12  C   UNL     1      -3.072  13.548  22.435  0.00  0.00    +0.000 A 
ATOM     13  O   UNL     1      -3.156  15.884  25.224  0.00  0.00    +0.000 OA
ATOM     14  C   UNL     1      -1.981  15.734  26.039  0.00  0.00    +0.000 C 
ATOM     15  O   UNL     1      -0.814  15.399  25.252  0.00  0.00    +0.000 OA
BRANCH  12  16
ATOM     16  C   UNL     1      -4.081  12.622  21.854  0.00  0.00    +0.000 C 
ATOM     17  N   UNL     1      -5.334  12.684  22.180  0.00  0.00    +0.000 NA
BRANCH  17  18
ATOM     18  O   UNL     1      -6.030  11.677  21.508  0.00  0.00    +0.000 OA
ATOM     19  H   UNL     1      -5.420  10.920  21.590  0.00  0.00    +0.000 HD
ENDBRANCH  17  18
ENDBRANCH  12  16
ENDBRANCH   4   7
BRANCH   1  21
ATOM     20  C   UNL     1       1.015   9.259  17.817  0.00  0.00    +0.000 C 
ATOM     21  O   UNL     1      -0.326   9.618  18.158  0.00  0.00    +0.000 OA
ENDBRANCH   1  21
BRANCH   3  22
ATOM     22  C   UNL     1      -0.498  10.487  22.854  0.00  0.00    +0.000 C 
ATOM     23  N   UNL     1       0.504   9.734  23.203  0.00  0.00    +0.000 NA
BRANCH  23  24
ATOM     24  O   UNL     1       0.315   9.271  24.503  0.00  0.00    +0.000 OA
ATOM     25  H   UNL     1       0.176   8.316  24.362  0.00  0.00    +0.000 HD
ENDBRANCH  23  24
ENDBRANCH   3  22
BRANCH   5  26
ATOM     26  O   UNL     1      -1.255  14.146  19.671  0.00  0.00    +0.000 OA
ATOM     27  C   UNL     1      -0.250  15.095  19.366  0.00  0.00    +0.000 C 
ENDBRANCH   5  26
BRANCH   6  28
ATOM     28  O   UNL     1      -1.376  12.253  17.606  0.00  0.00    +0.000 OA
ATOM     29  C   UNL     1      -2.491  11.592  17.032  0.00  0.00    +0.000 C 
ENDBRANCH   6  28
TORSDOF 8
ENDMDL
