MODEL 1
REMARK VINA RESULT:      -6.7      0.000      0.000
REMARK  Name = 
REMARK  10 active torsions:
REMARK  status: ('A' for Active; 'I' for Inactive)
REMARK    1  A    between atoms: C_2  and  C_3
REMARK    2  A    between atoms: C_2  and  C_12
REMARK    3  A    between atoms: C_6  and  O_7
REMARK    4  A    between atoms: O_7  and  C_8
REMARK    5  A    between atoms: C_14  and  O_15
REMARK    6  A    between atoms: O_15  and  C_16
REMARK    7  A    between atoms: C_17  and  O_18
REMARK    8  A    between atoms: O_18  and  C_19
REMARK    9  A    between atoms: C_20  and  SE_21
REMARK   10  A    between atoms: SE_21  and  C_22
REMARK                            x       y       z     vdW  Elec       q    Type
REMARK                         _______ _______ _______ _____ _____    ______ ____
ROOT
ATOM      1  C   UNL     1       2.984   6.252  18.687  0.00  0.00    +0.000 A 
ATOM      2  C   UNL     1       4.361   5.970  18.683  0.00  0.00    +0.000 A 
ATOM      3  C   UNL     1       4.865   4.681  18.912  0.00  0.00    +0.000 A 
ATOM      4  C   UNL     1       3.957   3.616  19.154  0.00  0.00    +0.000 A 
ATOM      5  C   UNL     1       2.573   3.884  19.161  0.00  0.00    +0.000 A 
ATOM      6  C   UNL     1       2.094   5.185  18.930  0.00  0.00    +0.000 A 
ENDROOT
BRANCH   1   8
ATOM      7  C   UNL     1       2.845   8.378  17.352  0.00  0.00    +0.000 C 
ATOM      8  C   UNL     1       2.537   7.676  18.456  0.00  0.00    +0.000 C 
BRANCH   8   9
ATOM      9  C   UNL     1       1.699   8.338  19.483  0.00  0.00    +0.000 A 
ATOM     10  C   UNL     1       1.654   7.839  20.791  0.00  0.00    +0.000 A 
ATOM     11  C   UNL     1       0.808   8.423  21.737  0.00  0.00    +0.000 A 
ATOM     12  C   UNL     1      -0.008   9.512  21.399  0.00  0.00    +0.000 A 
ATOM     13  C   UNL     1       0.038  10.012  20.076  0.00  0.00    +0.000 A 
ATOM     14  F   UNL     1      -0.736  11.053  19.677  0.00  0.00    +0.000 F 
ATOM     15  C   UNL     1       0.888   9.424  19.132  0.00  0.00    +0.000 A 
BRANCH  12  16
ATOM     16  O   UNL     1      -0.814  10.020  22.369  0.00  0.00    +0.000 OA
ATOM     17  C   UNL     1      -0.872  11.332  22.794  0.00  0.00    +0.000 C 
ENDBRANCH  12  16
ENDBRANCH   8   9
ENDBRANCH   1   8
BRANCH   3  18
ATOM     18  O   UNL     1       6.207   4.457  18.910  0.00  0.00    +0.000 OA
ATOM     19  C   UNL     1       7.089   4.770  17.893  0.00  0.00    +0.000 C 
ENDBRANCH   3  18
BRANCH   4  20
ATOM     20  O   UNL     1       4.356   2.335  19.399  0.00  0.00    +0.000 OA
ATOM     21  C   UNL     1       4.808   1.808  20.591  0.00  0.00    +0.000 C 
ENDBRANCH   4  20
BRANCH   5  22
ATOM     22 SE   UNL     1       1.305   2.475  19.562  0.00  0.00    +0.000 Se
ATOM     23  C   UNL     1       1.347   2.708  21.498  0.00  0.00    +0.000 C 
ENDBRANCH   5  22
TORSDOF 6
ENDMDL
MODEL 2
REMARK VINA RESULT:      -6.6      4.313      7.721
REMARK  Name = 
REMARK  10 active torsions:
REMARK  status: ('A' for Active; 'I' for Inactive)
REMARK    1  A    between atoms: C_2  and  C_3
REMARK    2  A    between atoms: C_2  and  C_12
REMARK    3  A    between atoms: C_6  and  O_7
REMARK    4  A    between atoms: O_7  and  C_8
REMARK    5  A    between atoms: C_14  and  O_15
REMARK    6  A    between atoms: O_15  and  C_16
REMARK    7  A    between atoms: C_17  and  O_18
REMARK    8  A    between atoms: O_18  and  C_19
REMARK    9  A    between atoms: C_20  and  SE_21
REMARK   10  A    between atoms: SE_21  and  C_22
REMARK                            x       y       z     vdW  Elec       q    Type
REMARK                         _______ _______ _______ _____ _____    ______ ____
ROOT
ATOM      1  C   UNL     1       5.269   5.539  17.861  0.00  0.00    +0.000 A 
ATOM      2  C   UNL     1       4.268   6.495  18.109  0.00  0.00    +0.000 A 
ATOM      3  C   UNL     1       3.207   6.259  18.996  0.00  0.00    +0.000 A 
ATOM      4  C   UNL     1       3.137   5.014  19.675  0.00  0.00    +0.000 A 
ATOM      5  C   UNL     1       4.134   4.047  19.437  0.00  0.00    +0.000 A 
ATOM      6  C   UNL     1       5.186   4.307  18.543  0.00  0.00    +0.000 A 
ENDROOT
BRANCH   1   8
ATOM      7  C   UNL     1       7.390   6.689  17.151  0.00  0.00    +0.000 C 
ATOM      8  C   UNL     1       6.358   5.874  16.870  0.00  0.00    +0.000 C 
BRANCH   8   9
ATOM      9  C   UNL     1       6.308   5.264  15.520  0.00  0.00    +0.000 A 
ATOM     10  C   UNL     1       5.288   4.365  15.186  0.00  0.00    +0.000 A 
ATOM     11  C   UNL     1       5.285   3.738  13.937  0.00  0.00    +0.000 A 
ATOM     12  C   UNL     1       6.297   3.993  13.001  0.00  0.00    +0.000 A 
ATOM     13  C   UNL     1       7.328   4.901  13.343  0.00  0.00    +0.000 A 
ATOM     14  F   UNL     1       8.346   5.182  12.490  0.00  0.00    +0.000 F 
ATOM     15  C   UNL     1       7.325   5.526  14.595  0.00  0.00    +0.000 A 
BRANCH  12  16
ATOM     16  O   UNL     1       6.235   3.337  11.812  0.00  0.00    +0.000 OA
ATOM     17  C   UNL     1       6.025   1.987  11.621  0.00  0.00    +0.000 C 
ENDBRANCH  12  16
ENDBRANCH   8   9
ENDBRANCH   1   8
BRANCH   3  18
ATOM     18  O   UNL     1       2.253   7.209  19.195  0.00  0.00    +0.000 OA
ATOM     19  C   UNL     1       2.052   8.342  18.429  0.00  0.00    +0.000 C 
ENDBRANCH   3  18
BRANCH   4  20
ATOM     20  O   UNL     1       2.137   4.692  20.545  0.00  0.00    +0.000 OA
ATOM     21  C   UNL     1       0.934   4.082  20.255  0.00  0.00    +0.000 C 
ENDBRANCH   4  20
BRANCH   5  22
ATOM     22 SE   UNL     1       4.034   2.307  20.286  0.00  0.00    +0.000 Se
ATOM     23  C   UNL     1       3.522   1.326  18.680  0.00  0.00    +0.000 C 
ENDBRANCH   5  22
TORSDOF 6
ENDMDL
MODEL 3
REMARK VINA RESULT:      -6.5      1.003      1.427
REMARK  Name = 
REMARK  10 active torsions:
REMARK  status: ('A' for Active; 'I' for Inactive)
REMARK    1  A    between atoms: C_2  and  C_3
REMARK    2  A    between atoms: C_2  and  C_12
REMARK    3  A    between atoms: C_6  and  O_7
REMARK    4  A    between atoms: O_7  and  C_8
REMARK    5  A    between atoms: C_14  and  O_15
REMARK    6  A    between atoms: O_15  and  C_16
REMARK    7  A    between atoms: C_17  and  O_18
REMARK    8  A    between atoms: O_18  and  C_19
REMARK    9  A    between atoms: C_20  and  SE_21
REMARK   10  A    between atoms: SE_21  and  C_22
REMARK                            x       y       z     vdW  Elec       q    Type
REMARK                         _______ _______ _______ _____ _____    ______ ____
ROOT
ATOM      1  C   UNL     1       3.177   6.198  18.367  0.00  0.00    +0.000 A 
ATOM      2  C   UNL     1       4.531   5.827  18.436  0.00  0.00    +0.000 A 
ATOM      3  C   UNL     1       4.937   4.522  18.754  0.00  0.00    +0.000 A 
ATOM      4  C   UNL     1       3.950   3.534  19.013  0.00  0.00    +0.000 A 
ATOM      5  C   UNL     1       2.589   3.892  18.945  0.00  0.00    +0.000 A 
ATOM      6  C   UNL     1       2.208   5.206  18.626  0.00  0.00    +0.000 A 
ENDROOT
BRANCH   1   8
ATOM      7  C   UNL     1       3.368   8.304  17.005  0.00  0.00    +0.000 C 
ATOM      8  C   UNL     1       2.836   7.633  18.041  0.00  0.00    +0.000 C 
BRANCH   8   9
ATOM      9  C   UNL     1       1.852   8.345  18.891  0.00  0.00    +0.000 A 
ATOM     10  C   UNL     1       1.031   9.339  18.343  0.00  0.00    +0.000 A 
ATOM     11  C   UNL     1       0.155  10.056  19.162  0.00  0.00    +0.000 A 
ATOM     12  C   UNL     1       0.081   9.798  20.539  0.00  0.00    +0.000 A 
ATOM     13  C   UNL     1       0.914   8.793  21.088  0.00  0.00    +0.000 A 
ATOM     14  F   UNL     1       0.904   8.503  22.414  0.00  0.00    +0.000 F 
ATOM     15  C   UNL     1       1.789   8.078  20.263  0.00  0.00    +0.000 A 
BRANCH  12  16
ATOM     16  O   UNL     1      -0.786  10.544  21.274  0.00  0.00    +0.000 OA
ATOM     17  C   UNL     1      -0.464  11.467  22.247  0.00  0.00    +0.000 C 
ENDBRANCH  12  16
ENDBRANCH   8   9
ENDBRANCH   1   8
BRANCH   3  18
ATOM     18  O   UNL     1       6.260   4.211  18.823  0.00  0.00    +0.000 OA
ATOM     19  C   UNL     1       7.273   4.768  18.064  0.00  0.00    +0.000 C 
ENDBRANCH   3  18
BRANCH   4  20
ATOM     20  O   UNL     1       4.251   2.245  19.341  0.00  0.00    +0.000 OA
ATOM     21  C   UNL     1       4.749   1.777  20.540  0.00  0.00    +0.000 C 
ENDBRANCH   4  20
BRANCH   5  22
ATOM     22 SE   UNL     1       1.213   2.593  19.365  0.00  0.00    +0.000 Se
ATOM     23  C   UNL     1       1.286   2.835  21.299  0.00  0.00    +0.000 C 
ENDBRANCH   5  22
TORSDOF 6
ENDMDL
MODEL 4
REMARK VINA RESULT:      -6.5      4.321      8.362
REMARK  Name = 
REMARK  10 active torsions:
REMARK  status: ('A' for Active; 'I' for Inactive)
REMARK    1  A    between atoms: C_2  and  C_3
REMARK    2  A    between atoms: C_2  and  C_12
REMARK    3  A    between atoms: C_6  and  O_7
REMARK    4  A    between atoms: O_7  and  C_8
REMARK    5  A    between atoms: C_14  and  O_15
REMARK    6  A    between atoms: O_15  and  C_16
REMARK    7  A    between atoms: C_17  and  O_18
REMARK    8  A    between atoms: O_18  and  C_19
REMARK    9  A    between atoms: C_20  and  SE_21
REMARK   10  A    between atoms: SE_21  and  C_22
REMARK                            x       y       z     vdW  Elec       q    Type
REMARK                         _______ _______ _______ _____ _____    ______ ____
ROOT
ATOM      1  C   UNL     1      -0.766  11.161  18.607  0.00  0.00    +0.000 A 
ATOM      2  C   UNL     1      -1.321  10.462  17.521  0.00  0.00    +0.000 A 
ATOM      3  C   UNL     1      -2.697  10.471  17.247  0.00  0.00    +0.000 A 
ATOM      4  C   UNL     1      -3.566  11.213  18.089  0.00  0.00    +0.000 A 
ATOM      5  C   UNL     1      -3.023  11.919  19.181  0.00  0.00    +0.000 A 
ATOM      6  C   UNL     1      -1.642  11.894  19.435  0.00  0.00    +0.000 A 
ENDROOT
BRANCH   1   8
ATOM      7  C   UNL     1       1.518  12.149  18.970  0.00  0.00    +0.000 C 
ATOM      8  C   UNL     1       0.724  11.073  18.838  0.00  0.00    +0.000 C 
BRANCH   8   9
ATOM      9  C   UNL     1       1.352   9.735  18.945  0.00  0.00    +0.000 A 
ATOM     10  C   UNL     1       2.077   9.204  17.869  0.00  0.00    +0.000 A 
ATOM     11  C   UNL     1       2.607   7.914  17.949  0.00  0.00    +0.000 A 
ATOM     12  C   UNL     1       2.425   7.129  19.096  0.00  0.00    +0.000 A 
ATOM     13  C   UNL     1       1.690   7.668  20.180  0.00  0.00    +0.000 A 
ATOM     14  F   UNL     1       1.463   6.958  21.314  0.00  0.00    +0.000 F 
ATOM     15  C   UNL     1       1.162   8.961  20.096  0.00  0.00    +0.000 A 
BRANCH  12  16
ATOM     16  O   UNL     1       2.959   5.879  19.096  0.00  0.00    +0.000 OA
ATOM     17  C   UNL     1       4.279   5.542  19.319  0.00  0.00    +0.000 C 
ENDBRANCH  12  16
ENDBRANCH   8   9
ENDBRANCH   1   8
BRANCH   3  18
ATOM     18  O   UNL     1      -3.192   9.768  16.191  0.00  0.00    +0.000 OA
ATOM     19  C   UNL     1      -3.227  10.185  14.874  0.00  0.00    +0.000 C 
ENDBRANCH   3  18
BRANCH   4  20
ATOM     20  O   UNL     1      -4.917  11.268  17.907  0.00  0.00    +0.000 OA
ATOM     21  C   UNL     1      -5.626  12.174  17.147  0.00  0.00    +0.000 C 
ENDBRANCH   4  20
BRANCH   5  22
ATOM     22 SE   UNL     1      -4.184  12.883  20.399  0.00  0.00    +0.000 Se
ATOM     23  C   UNL     1      -3.044  12.683  21.968  0.00  0.00    +0.000 C 
ENDBRANCH   5  22
TORSDOF 6
ENDMDL
MODEL 5
REMARK VINA RESULT:      -6.5      2.044      3.292
REMARK  Name = 
REMARK  10 active torsions:
REMARK  status: ('A' for Active; 'I' for Inactive)
REMARK    1  A    between atoms: C_2  and  C_3
REMARK    2  A    between atoms: C_2  and  C_12
REMARK    3  A    between atoms: C_6  and  O_7
REMARK    4  A    between atoms: O_7  and  C_8
REMARK    5  A    between atoms: C_14  and  O_15
REMARK    6  A    between atoms: O_15  and  C_16
REMARK    7  A    between atoms: C_17  and  O_18
REMARK    8  A    between atoms: O_18  and  C_19
REMARK    9  A    between atoms: C_20  and  SE_21
REMARK   10  A    between atoms: SE_21  and  C_22
REMARK                            x       y       z     vdW  Elec       q    Type
REMARK                         _______ _______ _______ _____ _____    ______ ____
ROOT
ATOM      1  C   UNL     1       2.474   7.102  19.104  0.00  0.00    +0.000 A 
ATOM      2  C   UNL     1       2.020   6.239  20.117  0.00  0.00    +0.000 A 
ATOM      3  C   UNL     1       2.597   4.981  20.346  0.00  0.00    +0.000 A 
ATOM      4  C   UNL     1       3.681   4.558  19.533  0.00  0.00    +0.000 A 
ATOM      5  C   UNL     1       4.148   5.414  18.515  0.00  0.00    +0.000 A 
ATOM      6  C   UNL     1       3.552   6.668  18.305  0.00  0.00    +0.000 A 
ENDROOT
BRANCH   1   8
ATOM      7  C   UNL     1       1.756   9.096  17.751  0.00  0.00    +0.000 C 
ATOM      8  C   UNL     1       1.774   8.427  18.916  0.00  0.00    +0.000 C 
BRANCH   8   9
ATOM      9  C   UNL     1       1.050   9.022  20.065  0.00  0.00    +0.000 A 
ATOM     10  C   UNL     1      -0.031   9.886  19.850  0.00  0.00    +0.000 A 
ATOM     11  C   UNL     1      -0.665  10.500  20.933  0.00  0.00    +0.000 A 
ATOM     12  C   UNL     1      -0.234  10.268  22.247  0.00  0.00    +0.000 A 
ATOM     13  C   UNL     1       0.861   9.395  22.460  0.00  0.00    +0.000 A 
ATOM     14  F   UNL     1       1.339   9.138  23.704  0.00  0.00    +0.000 F 
ATOM     15  C   UNL     1       1.491   8.782  21.371  0.00  0.00    +0.000 A 
BRANCH  12  16
ATOM     16  O   UNL     1      -0.892  10.910  23.249  0.00  0.00    +0.000 OA
ATOM     17  C   UNL     1      -1.947  11.788  23.116  0.00  0.00    +0.000 C 
ENDBRANCH  12  16
ENDBRANCH   8   9
ENDBRANCH   1   8
BRANCH   3  18
ATOM     18  O   UNL     1       2.116   4.173  21.330  0.00  0.00    +0.000 OA
ATOM     19  C   UNL     1       1.212   3.138  21.173  0.00  0.00    +0.000 C 
ENDBRANCH   3  18
BRANCH   4  20
ATOM     20  O   UNL     1       4.295   3.348  19.675  0.00  0.00    +0.000 OA
ATOM     21  C   UNL     1       3.915   2.143  19.123  0.00  0.00    +0.000 C 
ENDBRANCH   4  20
BRANCH   5  22
ATOM     22 SE   UNL     1       5.576   4.844  17.335  0.00  0.00    +0.000 Se
ATOM     23  C   UNL     1       5.228   6.162  15.941  0.00  0.00    +0.000 C 
ENDBRANCH   5  22
TORSDOF 6
ENDMDL
MODEL 6
REMARK VINA RESULT:      -6.5      4.120      7.684
REMARK  Name = 
REMARK  10 active torsions:
REMARK  status: ('A' for Active; 'I' for Inactive)
REMARK    1  A    between atoms: C_2  and  C_3
REMARK    2  A    between atoms: C_2  and  C_12
REMARK    3  A    between atoms: C_6  and  O_7
REMARK    4  A    between atoms: O_7  and  C_8
REMARK    5  A    between atoms: C_14  and  O_15
REMARK    6  A    between atoms: O_15  and  C_16
REMARK    7  A    between atoms: C_17  and  O_18
REMARK    8  A    between atoms: O_18  and  C_19
REMARK    9  A    between atoms: C_20  and  SE_21
REMARK   10  A    between atoms: SE_21  and  C_22
REMARK                            x       y       z     vdW  Elec       q    Type
REMARK                         _______ _______ _______ _____ _____    ______ ____
ROOT
ATOM      1  C   UNL     1       5.212   5.351  18.148  0.00  0.00    +0.000 A 
ATOM      2  C   UNL     1       5.032   4.082  18.725  0.00  0.00    +0.000 A 
ATOM      3  C   UNL     1       3.957   3.790  19.579  0.00  0.00    +0.000 A 
ATOM      4  C   UNL     1       3.010   4.807  19.871  0.00  0.00    +0.000 A 
ATOM      5  C   UNL     1       3.178   6.084  19.298  0.00  0.00    +0.000 A 
ATOM      6  C   UNL     1       4.263   6.351  18.448  0.00  0.00    +0.000 A 
ENDROOT
BRANCH   1   8
ATOM      7  C   UNL     1       7.529   6.205  17.673  0.00  0.00    +0.000 C 
ATOM      8  C   UNL     1       6.414   5.578  17.261  0.00  0.00    +0.000 C 
BRANCH   8   9
ATOM      9  C   UNL     1       6.380   5.072  15.869  0.00  0.00    +0.000 A 
ATOM     10  C   UNL     1       5.426   4.122  15.482  0.00  0.00    +0.000 A 
ATOM     11  C   UNL     1       5.443   3.596  14.188  0.00  0.00    +0.000 A 
ATOM     12  C   UNL     1       6.410   4.003  13.258  0.00  0.00    +0.000 A 
ATOM     13  C   UNL     1       7.374   4.961  13.653  0.00  0.00    +0.000 A 
ATOM     14  F   UNL     1       8.347   5.388  12.808  0.00  0.00    +0.000 F 
ATOM     15  C   UNL     1       7.352   5.486  14.950  0.00  0.00    +0.000 A 
BRANCH  12  16
ATOM     16  O   UNL     1       6.371   3.438  12.021  0.00  0.00    +0.000 OA
ATOM     17  C   UNL     1       5.546   2.413  11.605  0.00  0.00    +0.000 C 
ENDBRANCH  12  16
ENDBRANCH   8   9
ENDBRANCH   1   8
BRANCH   3  18
ATOM     18  O   UNL     1       3.830   2.550  20.125  0.00  0.00    +0.000 OA
ATOM     19  C   UNL     1       4.861   1.728  20.540  0.00  0.00    +0.000 C 
ENDBRANCH   3  18
BRANCH   4  20
ATOM     20  O   UNL     1       1.943   4.618  20.698  0.00  0.00    +0.000 OA
ATOM     21  C   UNL     1       0.780   3.927  20.427  0.00  0.00    +0.000 C 
ENDBRANCH   4  20
BRANCH   5  22
ATOM     22 SE   UNL     1       1.950   7.520  19.732  0.00  0.00    +0.000 Se
ATOM     23  C   UNL     1       2.154   8.479  18.045  0.00  0.00    +0.000 C 
ENDBRANCH   5  22
TORSDOF 6
ENDMDL
MODEL 7
REMARK VINA RESULT:      -6.4      1.076      1.077
REMARK  Name = 
REMARK  10 active torsions:
REMARK  status: ('A' for Active; 'I' for Inactive)
REMARK    1  A    between atoms: C_2  and  C_3
REMARK    2  A    between atoms: C_2  and  C_12
REMARK    3  A    between atoms: C_6  and  O_7
REMARK    4  A    between atoms: O_7  and  C_8
REMARK    5  A    between atoms: C_14  and  O_15
REMARK    6  A    between atoms: O_15  and  C_16
REMARK    7  A    between atoms: C_17  and  O_18
REMARK    8  A    between atoms: O_18  and  C_19
REMARK    9  A    between atoms: C_20  and  SE_21
REMARK   10  A    between atoms: SE_21  and  C_22
REMARK                            x       y       z     vdW  Elec       q    Type
REMARK                         _______ _______ _______ _____ _____    ______ ____
ROOT
ATOM      1  C   UNL     1       2.588   6.733  19.150  0.00  0.00    +0.000 A 
ATOM      2  C   UNL     1       3.934   6.463  18.849  0.00  0.00    +0.000 A 
ATOM      3  C   UNL     1       4.527   5.218  19.107  0.00  0.00    +0.000 A 
ATOM      4  C   UNL     1       3.745   4.187  19.691  0.00  0.00    +0.000 A 
ATOM      5  C   UNL     1       2.394   4.443  19.998  0.00  0.00    +0.000 A 
ATOM      6  C   UNL     1       1.824   5.699  19.731  0.00  0.00    +0.000 A 
ENDROOT
BRANCH   1   8
ATOM      7  C   UNL     1       2.054   8.667  17.635  0.00  0.00    +0.000 C 
ATOM      8  C   UNL     1       2.045   8.111  18.859  0.00  0.00    +0.000 C 
BRANCH   8   9
ATOM      9  C   UNL     1       1.451   8.895  19.968  0.00  0.00    +0.000 A 
ATOM     10  C   UNL     1       1.448   8.386  21.273  0.00  0.00    +0.000 A 
ATOM     11  C   UNL     1       0.824   9.096  22.302  0.00  0.00    +0.000 A 
ATOM     12  C   UNL     1       0.191  10.322  22.051  0.00  0.00    +0.000 A 
ATOM     13  C   UNL     1       0.195  10.832  20.731  0.00  0.00    +0.000 A 
ATOM     14  F   UNL     1      -0.411  12.005  20.415  0.00  0.00    +0.000 F 
ATOM     15  C   UNL     1       0.822  10.117  19.704  0.00  0.00    +0.000 A 
BRANCH  12  16
ATOM     16  O   UNL     1      -0.405  10.949  23.100  0.00  0.00    +0.000 OA
ATOM     17  C   UNL     1      -1.725  11.339  23.189  0.00  0.00    +0.000 C 
ENDBRANCH  12  16
ENDBRANCH   8   9
ENDBRANCH   1   8
BRANCH   3  18
ATOM     18  O   UNL     1       5.838   5.005  18.810  0.00  0.00    +0.000 OA
ATOM     19  C   UNL     1       6.358   4.709  17.563  0.00  0.00    +0.000 C 
ENDBRANCH   3  18
BRANCH   4  20
ATOM     20  O   UNL     1       4.240   2.951  19.989  0.00  0.00    +0.000 OA
ATOM     21  C   UNL     1       4.283   1.843  19.170  0.00  0.00    +0.000 C 
ENDBRANCH   4  20
BRANCH   5  22
ATOM     22 SE   UNL     1       1.312   3.088  20.865  0.00  0.00    +0.000 Se
ATOM     23  C   UNL     1       0.573   2.336  19.224  0.00  0.00    +0.000 C 
ENDBRANCH   5  22
TORSDOF 6
ENDMDL
MODEL 8
REMARK VINA RESULT:      -6.4      1.620      2.848
REMARK  Name = 
REMARK  10 active torsions:
REMARK  status: ('A' for Active; 'I' for Inactive)
REMARK    1  A    between atoms: C_2  and  C_3
REMARK    2  A    between atoms: C_2  and  C_12
REMARK    3  A    between atoms: C_6  and  O_7
REMARK    4  A    between atoms: O_7  and  C_8
REMARK    5  A    between atoms: C_14  and  O_15
REMARK    6  A    between atoms: O_15  and  C_16
REMARK    7  A    between atoms: C_17  and  O_18
REMARK    8  A    between atoms: O_18  and  C_19
REMARK    9  A    between atoms: C_20  and  SE_21
REMARK   10  A    between atoms: SE_21  and  C_22
REMARK                            x       y       z     vdW  Elec       q    Type
REMARK                         _______ _______ _______ _____ _____    ______ ____
ROOT
ATOM      1  C   UNL     1       2.627   6.753  18.915  0.00  0.00    +0.000 A 
ATOM      2  C   UNL     1       1.804   5.797  19.535  0.00  0.00    +0.000 A 
ATOM      3  C   UNL     1       2.208   4.465  19.721  0.00  0.00    +0.000 A 
ATOM      4  C   UNL     1       3.494   4.063  19.274  0.00  0.00    +0.000 A 
ATOM      5  C   UNL     1       4.330   5.012  18.652  0.00  0.00    +0.000 A 
ATOM      6  C   UNL     1       3.902   6.338  18.476  0.00  0.00    +0.000 A 
ENDROOT
BRANCH   1   8
ATOM      7  C   UNL     1       2.279   8.879  17.618  0.00  0.00    +0.000 C 
ATOM      8  C   UNL     1       2.097   8.156  18.736  0.00  0.00    +0.000 C 
BRANCH   8   9
ATOM      9  C   UNL     1       1.319   8.771  19.837  0.00  0.00    +0.000 A 
ATOM     10  C   UNL     1       1.524   8.368  21.163  0.00  0.00    +0.000 A 
ATOM     11  C   UNL     1       0.739   8.900  22.189  0.00  0.00    +0.000 A 
ATOM     12  C   UNL     1      -0.265   9.839  21.914  0.00  0.00    +0.000 A 
ATOM     13  C   UNL     1      -0.471  10.243  20.573  0.00  0.00    +0.000 A 
ATOM     14  F   UNL     1      -1.435  11.137  20.235  0.00  0.00    +0.000 F 
ATOM     15  C   UNL     1       0.319   9.708  19.550  0.00  0.00    +0.000 A 
BRANCH  12  16
ATOM     16  O   UNL     1      -0.997  10.303  22.962  0.00  0.00    +0.000 OA
ATOM     17  C   UNL     1      -1.456  11.591  23.145  0.00  0.00    +0.000 C 
ENDBRANCH  12  16
ENDBRANCH   8   9
ENDBRANCH   1   8
BRANCH   3  18
ATOM     18  O   UNL     1       1.372   3.570  20.315  0.00  0.00    +0.000 OA
ATOM     19  C   UNL     1       1.532   3.004  21.566  0.00  0.00    +0.000 C 
ENDBRANCH   3  18
BRANCH   4  20
ATOM     20  O   UNL     1       3.965   2.790  19.401  0.00  0.00    +0.000 OA
ATOM     21  C   UNL     1       3.625   1.688  18.644  0.00  0.00    +0.000 C 
ENDBRANCH   4  20
BRANCH   5  22
ATOM     22 SE   UNL     1       6.063   4.486  17.960  0.00  0.00    +0.000 Se
ATOM     23  C   UNL     1       5.439   4.038  16.168  0.00  0.00    +0.000 C 
ENDBRANCH   5  22
TORSDOF 6
ENDMDL
MODEL 9
REMARK VINA RESULT:      -6.4      1.735      2.128
REMARK  Name = 
REMARK  10 active torsions:
REMARK  status: ('A' for Active; 'I' for Inactive)
REMARK    1  A    between atoms: C_2  and  C_3
REMARK    2  A    between atoms: C_2  and  C_12
REMARK    3  A    between atoms: C_6  and  O_7
REMARK    4  A    between atoms: O_7  and  C_8
REMARK    5  A    between atoms: C_14  and  O_15
REMARK    6  A    between atoms: O_15  and  C_16
REMARK    7  A    between atoms: C_17  and  O_18
REMARK    8  A    between atoms: O_18  and  C_19
REMARK    9  A    between atoms: C_20  and  SE_21
REMARK   10  A    between atoms: SE_21  and  C_22
REMARK                            x       y       z     vdW  Elec       q    Type
REMARK                         _______ _______ _______ _____ _____    ______ ____
ROOT
ATOM      1  C   UNL     1       2.433   7.434  18.956  0.00  0.00    +0.000 A 
ATOM      2  C   UNL     1       3.513   7.133  18.108  0.00  0.00    +0.000 A 
ATOM      3  C   UNL     1       4.190   5.905  18.160  0.00  0.00    +0.000 A 
ATOM      4  C   UNL     1       3.772   4.924  19.098  0.00  0.00    +0.000 A 
ATOM      5  C   UNL     1       2.689   5.212  19.953  0.00  0.00    +0.000 A 
ATOM      6  C   UNL     1       2.029   6.450  19.882  0.00  0.00    +0.000 A 
ENDROOT
BRANCH   1   8
ATOM      7  C   UNL     1       1.885   9.574  17.755  0.00  0.00    +0.000 C 
ATOM      8  C   UNL     1       1.783   8.792  18.843  0.00  0.00    +0.000 C 
BRANCH   8   9
ATOM      9  C   UNL     1       0.972   9.293  19.979  0.00  0.00    +0.000 A 
ATOM     10  C   UNL     1      -0.115  10.147  19.751  0.00  0.00    +0.000 A 
ATOM     11  C   UNL     1      -0.832  10.673  20.829  0.00  0.00    +0.000 A 
ATOM     12  C   UNL     1      -0.480  10.360  22.150  0.00  0.00    +0.000 A 
ATOM     13  C   UNL     1       0.619   9.497  22.375  0.00  0.00    +0.000 A 
ATOM     14  F   UNL     1       1.023   9.165  23.628  0.00  0.00    +0.000 F 
ATOM     15  C   UNL     1       1.334   8.973  21.292  0.00  0.00    +0.000 A 
BRANCH  12  16
ATOM     16  O   UNL     1      -1.217  10.919  23.147  0.00  0.00    +0.000 OA
ATOM     17  C   UNL     1      -2.083  11.987  23.037  0.00  0.00    +0.000 C 
ENDBRANCH  12  16
ENDBRANCH   8   9
ENDBRANCH   1   8
BRANCH   3  18
ATOM     18  O   UNL     1       5.239   5.662  17.328  0.00  0.00    +0.000 OA
ATOM     19  C   UNL     1       5.180   5.522  15.954  0.00  0.00    +0.000 C 
ENDBRANCH   3  18
BRANCH   4  20
ATOM     20  O   UNL     1       4.377   3.709  19.228  0.00  0.00    +0.000 OA
ATOM     21  C   UNL     1       4.181   2.584  18.455  0.00  0.00    +0.000 C 
ENDBRANCH   4  20
BRANCH   5  22
ATOM     22 SE   UNL     1       2.137   3.930  21.298  0.00  0.00    +0.000 Se
ATOM     23  C   UNL     1       0.912   2.941  20.146  0.00  0.00    +0.000 C 
ENDBRANCH   5  22
TORSDOF 6
ENDMDL
