MODEL 1
REMARK VINA RESULT:      -7.6      0.000      0.000
REMARK  Name = 
REMARK  5 active torsions:
REMARK  status: ('A' for Active; 'I' for Inactive)
REMARK    1  A    between atoms: C_1  and  C_2
REMARK    2  A    between atoms: C_8  and  C_9
REMARK    3  A    between atoms: C_9  and  C_10
REMARK    4  A    between atoms: C_10  and  C_11
REMARK    5  A    between atoms: C_13  and  C_14
REMARK                            x       y       z     vdW  Elec       q    Type
REMARK                         _______ _______ _______ _____ _____    ______ ____
ROOT
ATOM      1  C   UNL     1       7.805   5.880  18.371  0.00  0.00    +0.000 C 
ENDROOT
BRANCH   1   2
ATOM      2  C   UNL     1       8.000   7.355  18.237  0.00  0.00    +0.000 A 
ATOM      3  N   UNL     1       8.793   8.132  18.946  0.00  0.00    +0.000 NA
ATOM      4  C   UNL     1       8.617   9.403  18.454  0.00  0.00    +0.000 A 
ATOM      5  C   UNL     1       7.704   9.399  17.426  0.00  0.00    +0.000 A 
ATOM      6  N   UNL     1       7.322   8.092  17.295  0.00  0.00    +0.000 N 
ATOM      7  H   UNL     1       6.658   7.726  16.626  0.00  0.00    +0.000 HD
BRANCH   4   8
ATOM      8  C   UNL     1       9.353  10.536  19.018  0.00  0.00    +0.000 A 
ATOM      9  C   UNL     1       9.428  10.776  20.425  0.00  0.00    +0.000 A 
ATOM     10  C   UNL     1      10.174  11.894  20.724  0.00  0.00    +0.000 A 
ATOM     11  S   UNL     1      10.780  12.657  19.318  0.00  0.00    +0.000 S 
ATOM     12  C   UNL     1      10.047  11.488  18.303  0.00  0.00    +0.000 A 
ENDBRANCH   4   8
ENDBRANCH   1   2
BRANCH   1  13
ATOM     13  C   UNL     1       6.909   5.516  19.553  0.00  0.00    +0.000 C 
BRANCH  13  21
ATOM     14  C   UNL     1       3.677   1.234  18.614  0.00  0.00    +0.000 C 
ATOM     15  C   UNL     1       3.145   2.614  18.384  0.00  0.00    +0.000 A 
ATOM     16  C   UNL     1       1.886   2.856  17.962  0.00  0.00    +0.000 A 
ATOM     17  C   UNL     1       1.446   4.229  17.766  0.00  0.00    +0.000 A 
ATOM     18  C   UNL     1       2.266   5.270  17.993  0.00  0.00    +0.000 A 
ATOM     19  C   UNL     1       3.596   5.034  18.434  0.00  0.00    +0.000 A 
ATOM     20  N   UNL     1       4.581   5.855  18.722  0.00  0.00    +0.000 NA
ATOM     21  C   UNL     1       5.585   5.009  19.105  0.00  0.00    +0.000 A 
ATOM     22  N   UNL     1       5.296   3.706  19.036  0.00  0.00    +0.000 NA
ATOM     23  N   UNL     1       4.001   3.707  18.619  0.00  0.00    +0.000 N 
ENDBRANCH  13  21
ENDBRANCH   1  13
TORSDOF 4
ENDMDL
MODEL 2
REMARK VINA RESULT:      -7.5      3.287      9.159
REMARK  Name = 
REMARK  5 active torsions:
REMARK  status: ('A' for Active; 'I' for Inactive)
REMARK    1  A    between atoms: C_1  and  C_2
REMARK    2  A    between atoms: C_8  and  C_9
REMARK    3  A    between atoms: C_9  and  C_10
REMARK    4  A    between atoms: C_10  and  C_11
REMARK    5  A    between atoms: C_13  and  C_14
REMARK                            x       y       z     vdW  Elec       q    Type
REMARK                         _______ _______ _______ _____ _____    ______ ____
ROOT
ATOM      1  C   UNL     1       8.284   7.637  18.338  0.00  0.00    +0.000 C 
ENDROOT
BRANCH   1   2
ATOM      2  C   UNL     1       7.386   6.570  17.803  0.00  0.00    +0.000 A 
ATOM      3  N   UNL     1       6.465   5.889  18.454  0.00  0.00    +0.000 NA
ATOM      4  C   UNL     1       5.916   5.023  17.539  0.00  0.00    +0.000 A 
ATOM      5  C   UNL     1       6.511   5.182  16.309  0.00  0.00    +0.000 A 
ATOM      6  N   UNL     1       7.440   6.170  16.489  0.00  0.00    +0.000 N 
ATOM      7  H   UNL     1       8.061   6.544  15.784  0.00  0.00    +0.000 HD
BRANCH   4   8
ATOM      8  C   UNL     1       4.848   4.100  17.925  0.00  0.00    +0.000 A 
ATOM      9  C   UNL     1       3.801   3.723  17.029  0.00  0.00    +0.000 A 
ATOM     10  C   UNL     1       2.910   2.845  17.607  0.00  0.00    +0.000 A 
ATOM     11  S   UNL     1       3.331   2.477  19.224  0.00  0.00    +0.000 S 
ATOM     12  C   UNL     1       4.709   3.492  19.154  0.00  0.00    +0.000 A 
ENDBRANCH   4   8
ENDBRANCH   1   2
BRANCH   1  13
ATOM     13  C   UNL     1       7.913   9.025  17.820  0.00  0.00    +0.000 C 
BRANCH  13  21
ATOM     14  C   UNL     1      11.224  13.217  16.757  0.00  0.00    +0.000 C 
ATOM     15  C   UNL     1      11.009  12.799  18.178  0.00  0.00    +0.000 A 
ATOM     16  C   UNL     1      11.591  13.422  19.224  0.00  0.00    +0.000 A 
ATOM     17  C   UNL     1      11.326  12.955  20.576  0.00  0.00    +0.000 A 
ATOM     18  C   UNL     1      10.514  11.910  20.813  0.00  0.00    +0.000 A 
ATOM     19  C   UNL     1       9.896  11.239  19.724  0.00  0.00    +0.000 A 
ATOM     20  N   UNL     1       9.077  10.212  19.680  0.00  0.00    +0.000 NA
ATOM     21  C   UNL     1       8.831  10.071  18.342  0.00  0.00    +0.000 A 
ATOM     22  N   UNL     1       9.479  10.927  17.546  0.00  0.00    +0.000 NA
ATOM     23  N   UNL     1      10.161  11.704  18.431  0.00  0.00    +0.000 N 
ENDBRANCH  13  21
ENDBRANCH   1  13
TORSDOF 4
ENDMDL
MODEL 3
REMARK VINA RESULT:      -7.4      4.037      5.763
REMARK  Name = 
REMARK  5 active torsions:
REMARK  status: ('A' for Active; 'I' for Inactive)
REMARK    1  A    between atoms: C_1  and  C_2
REMARK    2  A    between atoms: C_8  and  C_9
REMARK    3  A    between atoms: C_9  and  C_10
REMARK    4  A    between atoms: C_10  and  C_11
REMARK    5  A    between atoms: C_13  and  C_14
REMARK                            x       y       z     vdW  Elec       q    Type
REMARK                         _______ _______ _______ _____ _____    ______ ____
ROOT
ATOM      1  C   UNL     1       7.692   6.645  18.258  0.00  0.00    +0.000 C 
ENDROOT
BRANCH   1   2
ATOM      2  C   UNL     1       6.927   6.274  17.031  0.00  0.00    +0.000 A 
ATOM      3  N   UNL     1       7.320   5.503  16.036  0.00  0.00    +0.000 NA
ATOM      4  C   UNL     1       6.274   5.471  15.146  0.00  0.00    +0.000 A 
ATOM      5  C   UNL     1       5.226   6.232  15.607  0.00  0.00    +0.000 A 
ATOM      6  N   UNL     1       5.651   6.734  16.806  0.00  0.00    +0.000 N 
ATOM      7  H   UNL     1       5.125   7.337  17.424  0.00  0.00    +0.000 HD
BRANCH   4   8
ATOM      8  C   UNL     1       6.367   4.699  13.906  0.00  0.00    +0.000 A 
ATOM      9  C   UNL     1       7.411   4.904  12.953  0.00  0.00    +0.000 A 
ATOM     10  C   UNL     1       7.299   4.065  11.866  0.00  0.00    +0.000 A 
ATOM     11  S   UNL     1       5.939   3.035  11.989  0.00  0.00    +0.000 S 
ATOM     12  C   UNL     1       5.498   3.709  13.502  0.00  0.00    +0.000 A 
ENDBRANCH   4   8
ENDBRANCH   1   2
BRANCH   1  13
ATOM     13  C   UNL     1       7.392   5.718  19.434  0.00  0.00    +0.000 C 
BRANCH  13  21
ATOM     14  C   UNL     1       2.011   6.078  20.190  0.00  0.00    +0.000 C 
ATOM     15  C   UNL     1       2.577   4.846  19.558  0.00  0.00    +0.000 A 
ATOM     16  C   UNL     1       1.814   3.810  19.150  0.00  0.00    +0.000 A 
ATOM     17  C   UNL     1       2.444   2.649  18.542  0.00  0.00    +0.000 A 
ATOM     18  C   UNL     1       3.777   2.577  18.377  0.00  0.00    +0.000 A 
ATOM     19  C   UNL     1       4.597   3.656  18.804  0.00  0.00    +0.000 A 
ATOM     20  N   UNL     1       5.898   3.837  18.761  0.00  0.00    +0.000 NA
ATOM     21  C   UNL     1       6.055   5.081  19.306  0.00  0.00    +0.000 A 
ATOM     22  N   UNL     1       4.930   5.672  19.721  0.00  0.00    +0.000 NA
ATOM     23  N   UNL     1       3.973   4.766  19.385  0.00  0.00    +0.000 N 
ENDBRANCH  13  21
ENDBRANCH   1  13
TORSDOF 4
ENDMDL
MODEL 4
REMARK VINA RESULT:      -7.4      5.292      6.665
REMARK  Name = 
REMARK  5 active torsions:
REMARK  status: ('A' for Active; 'I' for Inactive)
REMARK    1  A    between atoms: C_1  and  C_2
REMARK    2  A    between atoms: C_8  and  C_9
REMARK    3  A    between atoms: C_9  and  C_10
REMARK    4  A    between atoms: C_10  and  C_11
REMARK    5  A    between atoms: C_13  and  C_14
REMARK                            x       y       z     vdW  Elec       q    Type
REMARK                         _______ _______ _______ _____ _____    ______ ____
ROOT
ATOM      1  C   UNL     1       2.233   8.365  17.399  0.00  0.00    +0.000 C 
ENDROOT
BRANCH   1   2
ATOM      2  C   UNL     1       1.711   9.459  18.271  0.00  0.00    +0.000 A 
ATOM      3  N   UNL     1       1.028   9.341  19.392  0.00  0.00    +0.000 NA
ATOM      4  C   UNL     1       0.771  10.624  19.816  0.00  0.00    +0.000 A 
ATOM      5  C   UNL     1       1.310  11.537  18.939  0.00  0.00    +0.000 A 
ATOM      6  N   UNL     1       1.907  10.785  17.965  0.00  0.00    +0.000 N 
ATOM      7  H   UNL     1       2.405  11.136  17.158  0.00  0.00    +0.000 HD
BRANCH   4   8
ATOM      8  C   UNL     1       0.020  10.871  21.047  0.00  0.00    +0.000 A 
ATOM      9  C   UNL     1      -0.127   9.882  22.066  0.00  0.00    +0.000 A 
ATOM     10  C   UNL     1      -0.871  10.337  23.133  0.00  0.00    +0.000 A 
ATOM     11  S   UNL     1      -1.395  11.950  22.907  0.00  0.00    +0.000 S 
ATOM     12  C   UNL     1      -0.623  12.044  21.380  0.00  0.00    +0.000 A 
ENDBRANCH   4   8
ENDBRANCH   1   2
BRANCH   1  13
ATOM     13  C   UNL     1       3.367   7.584  18.060  0.00  0.00    +0.000 C 
BRANCH  13  21
ATOM     14  C   UNL     1       2.674   2.226  17.373  0.00  0.00    +0.000 C 
ATOM     15  C   UNL     1       2.270   2.853  18.670  0.00  0.00    +0.000 A 
ATOM     16  C   UNL     1       1.747   2.149  19.696  0.00  0.00    +0.000 A 
ATOM     17  C   UNL     1       1.383   2.835  20.926  0.00  0.00    +0.000 A 
ATOM     18  C   UNL     1       1.552   4.162  21.068  0.00  0.00    +0.000 A 
ATOM     19  C   UNL     1       2.098   4.920  19.997  0.00  0.00    +0.000 A 
ATOM     20  N   UNL     1       2.361   6.202  19.877  0.00  0.00    +0.000 NA
ATOM     21  C   UNL     1       2.891   6.291  18.620  0.00  0.00    +0.000 A 
ATOM     22  N   UNL     1       2.938   5.145  17.934  0.00  0.00    +0.000 NA
ATOM     23  N   UNL     1       2.444   4.242  18.823  0.00  0.00    +0.000 N 
ENDBRANCH  13  21
ENDBRANCH   1  13
TORSDOF 4
ENDMDL
MODEL 5
REMARK VINA RESULT:      -7.4      1.121      1.470
REMARK  Name = 
REMARK  5 active torsions:
REMARK  status: ('A' for Active; 'I' for Inactive)
REMARK    1  A    between atoms: C_1  and  C_2
REMARK    2  A    between atoms: C_8  and  C_9
REMARK    3  A    between atoms: C_9  and  C_10
REMARK    4  A    between atoms: C_10  and  C_11
REMARK    5  A    between atoms: C_13  and  C_14
REMARK                            x       y       z     vdW  Elec       q    Type
REMARK                         _______ _______ _______ _____ _____    ______ ____
ROOT
ATOM      1  C   UNL     1       7.614   5.616  18.493  0.00  0.00    +0.000 C 
ENDROOT
BRANCH   1   2
ATOM      2  C   UNL     1       7.839   7.077  18.283  0.00  0.00    +0.000 A 
ATOM      3  N   UNL     1       8.644   7.875  18.955  0.00  0.00    +0.000 NA
ATOM      4  C   UNL     1       8.496   9.122  18.395  0.00  0.00    +0.000 A 
ATOM      5  C   UNL     1       7.589   9.081  17.362  0.00  0.00    +0.000 A 
ATOM      6  N   UNL     1       7.181   7.777  17.298  0.00  0.00    +0.000 N 
ATOM      7  H   UNL     1       6.514   7.389  16.645  0.00  0.00    +0.000 HD
BRANCH   4   8
ATOM      8  C   UNL     1       9.251  10.268  18.904  0.00  0.00    +0.000 A 
ATOM      9  C   UNL     1       9.955  11.165  18.044  0.00  0.00    +0.000 A 
ATOM     10  C   UNL     1      10.590  12.168  18.742  0.00  0.00    +0.000 A 
ATOM     11  S   UNL     1      10.342  12.031  20.430  0.00  0.00    +0.000 S 
ATOM     12  C   UNL     1       9.380  10.627  20.229  0.00  0.00    +0.000 A 
ENDBRANCH   4   8
ENDBRANCH   1   2
BRANCH   1  13
ATOM     13  C   UNL     1       6.601   5.035  17.509  0.00  0.00    +0.000 C 
BRANCH  13  21
ATOM     14  C   UNL     1       2.217   1.855  18.083  0.00  0.00    +0.000 C 
ATOM     15  C   UNL     1       2.304   3.125  18.869  0.00  0.00    +0.000 A 
ATOM     16  C   UNL     1       1.346   3.524  19.731  0.00  0.00    +0.000 A 
ATOM     17  C   UNL     1       1.509   4.772  20.459  0.00  0.00    +0.000 A 
ATOM     18  C   UNL     1       2.596   5.548  20.292  0.00  0.00    +0.000 A 
ATOM     19  C   UNL     1       3.613   5.146  19.385  0.00  0.00    +0.000 A 
ATOM     20  N   UNL     1       4.750   5.707  19.042  0.00  0.00    +0.000 NA
ATOM     21  C   UNL     1       5.276   4.816  18.148  0.00  0.00    +0.000 A 
ATOM     22  N   UNL     1       4.515   3.749  17.885  0.00  0.00    +0.000 NA
ATOM     23  N   UNL     1       3.439   3.941  18.695  0.00  0.00    +0.000 N 
ENDBRANCH  13  21
ENDBRANCH   1  13
TORSDOF 4
ENDMDL
MODEL 6
REMARK VINA RESULT:      -7.4      1.642      2.020
REMARK  Name = 
REMARK  5 active torsions:
REMARK  status: ('A' for Active; 'I' for Inactive)
REMARK    1  A    between atoms: C_1  and  C_2
REMARK    2  A    between atoms: C_8  and  C_9
REMARK    3  A    between atoms: C_9  and  C_10
REMARK    4  A    between atoms: C_10  and  C_11
REMARK    5  A    between atoms: C_13  and  C_14
REMARK                            x       y       z     vdW  Elec       q    Type
REMARK                         _______ _______ _______ _____ _____    ______ ____
ROOT
ATOM      1  C   UNL     1       6.177   6.044  16.443  0.00  0.00    +0.000 C 
ENDROOT
BRANCH   1   2
ATOM      2  C   UNL     1       7.054   6.881  17.315  0.00  0.00    +0.000 A 
ATOM      3  N   UNL     1       7.305   8.170  17.207  0.00  0.00    +0.000 NA
ATOM      4  C   UNL     1       8.170   8.474  18.232  0.00  0.00    +0.000 A 
ATOM      5  C   UNL     1       8.447   7.352  18.977  0.00  0.00    +0.000 A 
ATOM      6  N   UNL     1       7.730   6.347  18.387  0.00  0.00    +0.000 N 
ATOM      7  H   UNL     1       7.698   5.381  18.681  0.00  0.00    +0.000 HD
BRANCH   4   8
ATOM      8  C   UNL     1       8.666   9.838  18.415  0.00  0.00    +0.000 A 
ATOM      9  C   UNL     1       9.526  10.202  19.496  0.00  0.00    +0.000 A 
ATOM     10  C   UNL     1       9.868  11.536  19.466  0.00  0.00    +0.000 A 
ATOM     11  S   UNL     1       9.154  12.351  18.143  0.00  0.00    +0.000 S 
ATOM     12  C   UNL     1       8.386  10.917  17.604  0.00  0.00    +0.000 A 
ENDBRANCH   4   8
ENDBRANCH   1   2
BRANCH   1  13
ATOM     13  C   UNL     1       4.710   6.465  16.516  0.00  0.00    +0.000 C 
BRANCH  13  21
ATOM     14  C   UNL     1       3.273   1.586  18.465  0.00  0.00    +0.000 C 
ATOM     15  C   UNL     1       2.804   2.820  19.170  0.00  0.00    +0.000 A 
ATOM     16  C   UNL     1       2.043   2.787  20.284  0.00  0.00    +0.000 A 
ATOM     17  C   UNL     1       1.632   4.034  20.910  0.00  0.00    +0.000 A 
ATOM     18  C   UNL     1       1.989   5.228  20.403  0.00  0.00    +0.000 A 
ATOM     19  C   UNL     1       2.786   5.282  19.229  0.00  0.00    +0.000 A 
ATOM     20  N   UNL     1       3.263   6.295  18.541  0.00  0.00    +0.000 NA
ATOM     21  C   UNL     1       3.964   5.685  17.539  0.00  0.00    +0.000 A 
ATOM     22  N   UNL     1       3.921   4.349  17.538  0.00  0.00    +0.000 NA
ATOM     23  N   UNL     1       3.174   4.072  18.642  0.00  0.00    +0.000 N 
ENDBRANCH  13  21
ENDBRANCH   1  13
TORSDOF 4
ENDMDL
MODEL 7
REMARK VINA RESULT:      -7.4      1.104      2.007
REMARK  Name = 
REMARK  5 active torsions:
REMARK  status: ('A' for Active; 'I' for Inactive)
REMARK    1  A    between atoms: C_1  and  C_2
REMARK    2  A    between atoms: C_8  and  C_9
REMARK    3  A    between atoms: C_9  and  C_10
REMARK    4  A    between atoms: C_10  and  C_11
REMARK    5  A    between atoms: C_13  and  C_14
REMARK                            x       y       z     vdW  Elec       q    Type
REMARK                         _______ _______ _______ _____ _____    ______ ____
ROOT
ATOM      1  C   UNL     1       7.504   5.595  18.380  0.00  0.00    +0.000 C 
ENDROOT
BRANCH   1   2
ATOM      2  C   UNL     1       7.764   7.055  18.208  0.00  0.00    +0.000 A 
ATOM      3  N   UNL     1       8.581   7.817  18.906  0.00  0.00    +0.000 NA
ATOM      4  C   UNL     1       8.466   9.080  18.376  0.00  0.00    +0.000 A 
ATOM      5  C   UNL     1       7.567   9.086  17.336  0.00  0.00    +0.000 A 
ATOM      6  N   UNL     1       7.130   7.794  17.236  0.00  0.00    +0.000 N 
ATOM      7  H   UNL     1       6.459   7.438  16.569  0.00  0.00    +0.000 HD
BRANCH   4   8
ATOM      8  C   UNL     1       9.243  10.196  18.920  0.00  0.00    +0.000 A 
ATOM      9  C   UNL     1      10.018  11.065  18.093  0.00  0.00    +0.000 A 
ATOM     10  C   UNL     1      10.661  12.042  18.820  0.00  0.00    +0.000 A 
ATOM     11  S   UNL     1      10.336  11.914  20.495  0.00  0.00    +0.000 S 
ATOM     12  C   UNL     1       9.329  10.549  20.250  0.00  0.00    +0.000 A 
ENDBRANCH   4   8
ENDBRANCH   1   2
BRANCH   1  13
ATOM     13  C   UNL     1       6.705   5.004  17.220  0.00  0.00    +0.000 C 
BRANCH  13  21
ATOM     14  C   UNL     1       2.260   5.939  20.225  0.00  0.00    +0.000 C 
ATOM     15  C   UNL     1       2.315   4.715  19.366  0.00  0.00    +0.000 A 
ATOM     16  C   UNL     1       1.303   3.825  19.287  0.00  0.00    +0.000 A 
ATOM     17  C   UNL     1       1.436   2.662  18.424  0.00  0.00    +0.000 A 
ATOM     18  C   UNL     1       2.549   2.445  17.700  0.00  0.00    +0.000 A 
ATOM     19  C   UNL     1       3.626   3.369  17.774  0.00  0.00    +0.000 A 
ATOM     20  N   UNL     1       4.800   3.394  17.184  0.00  0.00    +0.000 NA
ATOM     21  C   UNL     1       5.357   4.550  17.654  0.00  0.00    +0.000 A 
ATOM     22  N   UNL     1       4.615   5.229  18.534  0.00  0.00    +0.000 NA
ATOM     23  N   UNL     1       3.479   4.484  18.608  0.00  0.00    +0.000 N 
ENDBRANCH  13  21
ENDBRANCH   1  13
TORSDOF 4
ENDMDL
MODEL 8
REMARK VINA RESULT:      -7.4      1.630      2.642
REMARK  Name = 
REMARK  5 active torsions:
REMARK  status: ('A' for Active; 'I' for Inactive)
REMARK    1  A    between atoms: C_1  and  C_2
REMARK    2  A    between atoms: C_8  and  C_9
REMARK    3  A    between atoms: C_9  and  C_10
REMARK    4  A    between atoms: C_10  and  C_11
REMARK    5  A    between atoms: C_13  and  C_14
REMARK                            x       y       z     vdW  Elec       q    Type
REMARK                         _______ _______ _______ _____ _____    ______ ____
ROOT
ATOM      1  C   UNL     1       6.501   5.661  16.206  0.00  0.00    +0.000 C 
ENDROOT
BRANCH   1   2
ATOM      2  C   UNL     1       7.221   6.541  17.174  0.00  0.00    +0.000 A 
ATOM      3  N   UNL     1       7.465   7.831  17.064  0.00  0.00    +0.000 NA
ATOM      4  C   UNL     1       8.158   8.183  18.198  0.00  0.00    +0.000 A 
ATOM      5  C   UNL     1       8.335   7.089  19.012  0.00  0.00    +0.000 A 
ATOM      6  N   UNL     1       7.732   6.053  18.353  0.00  0.00    +0.000 N 
ATOM      7  H   UNL     1       7.671   5.096  18.671  0.00  0.00    +0.000 HD
BRANCH   4   8
ATOM      8  C   UNL     1       8.599   9.562  18.411  0.00  0.00    +0.000 A 
ATOM      9  C   UNL     1       8.261  10.621  17.514  0.00  0.00    +0.000 A 
ATOM     10  C   UNL     1       8.783  11.832  17.915  0.00  0.00    +0.000 A 
ATOM     11  S   UNL     1       9.679  11.695  19.366  0.00  0.00    +0.000 S 
ATOM     12  C   UNL     1       9.369  10.012  19.462  0.00  0.00    +0.000 A 
ENDBRANCH   4   8
ENDBRANCH   1   2
BRANCH   1  13
ATOM     13  C   UNL     1       5.023   6.025  16.075  0.00  0.00    +0.000 C 
BRANCH  13  21
ATOM     14  C   UNL     1       1.887   5.693  20.516  0.00  0.00    +0.000 C 
ATOM     15  C   UNL     1       2.071   4.479  19.661  0.00  0.00    +0.000 A 
ATOM     16  C   UNL     1       1.485   3.294  19.929  0.00  0.00    +0.000 A 
ATOM     17  C   UNL     1       1.713   2.162  19.045  0.00  0.00    +0.000 A 
ATOM     18  C   UNL     1       2.502   2.265  17.960  0.00  0.00    +0.000 A 
ATOM     19  C   UNL     1       3.131   3.504  17.663  0.00  0.00    +0.000 A 
ATOM     20  N   UNL     1       3.934   3.866  16.688  0.00  0.00    +0.000 NA
ATOM     21  C   UNL     1       4.169   5.185  16.956  0.00  0.00    +0.000 A 
ATOM     22  N   UNL     1       3.591   5.658  18.065  0.00  0.00    +0.000 NA
ATOM     23  N   UNL     1       2.898   4.582  18.525  0.00  0.00    +0.000 N 
ENDBRANCH  13  21
ENDBRANCH   1  13
TORSDOF 4
ENDMDL
MODEL 9
REMARK VINA RESULT:      -7.4      2.516      3.695
REMARK  Name = 
REMARK  5 active torsions:
REMARK  status: ('A' for Active; 'I' for Inactive)
REMARK    1  A    between atoms: C_1  and  C_2
REMARK    2  A    between atoms: C_8  and  C_9
REMARK    3  A    between atoms: C_9  and  C_10
REMARK    4  A    between atoms: C_10  and  C_11
REMARK    5  A    between atoms: C_13  and  C_14
REMARK                            x       y       z     vdW  Elec       q    Type
REMARK                         _______ _______ _______ _____ _____    ______ ____
ROOT
ATOM      1  C   UNL     1       8.139   9.189  17.869  0.00  0.00    +0.000 C 
ENDROOT
BRANCH   1   2
ATOM      2  C   UNL     1       9.016  10.210  18.515  0.00  0.00    +0.000 A 
ATOM      3  N   UNL     1       9.576  11.264  17.955  0.00  0.00    +0.000 NA
ATOM      4  C   UNL     1      10.290  11.887  18.951  0.00  0.00    +0.000 A 
ATOM      5  C   UNL     1      10.160  11.202  20.137  0.00  0.00    +0.000 A 
ATOM      6  N   UNL     1       9.346  10.142  19.848  0.00  0.00    +0.000 N 
ATOM      7  H   UNL     1       9.038   9.429  20.495  0.00  0.00    +0.000 HD
BRANCH   4   8
ATOM      8  C   UNL     1      11.050  13.107  18.678  0.00  0.00    +0.000 A 
ATOM      9  C   UNL     1      11.471  13.995  19.715  0.00  0.00    +0.000 A 
ATOM     10  C   UNL     1      12.172  15.075  19.226  0.00  0.00    +0.000 A 
ATOM     11  S   UNL     1      12.323  15.023  17.522  0.00  0.00    +0.000 S 
ATOM     12  C   UNL     1      11.450  13.551  17.436  0.00  0.00    +0.000 A 
ENDBRANCH   4   8
ENDBRANCH   1   2
BRANCH   1  13
ATOM     13  C   UNL     1       8.329   7.796  18.464  0.00  0.00    +0.000 C 
BRANCH  13  21
ATOM     14  C   UNL     1       7.081   4.931  14.004  0.00  0.00    +0.000 C 
ATOM     15  C   UNL     1       6.275   4.730  15.249  0.00  0.00    +0.000 A 
ATOM     16  C   UNL     1       5.248   3.858  15.328  0.00  0.00    +0.000 A 
ATOM     17  C   UNL     1       4.517   3.721  16.578  0.00  0.00    +0.000 A 
ATOM     18  C   UNL     1       4.836   4.449  17.663  0.00  0.00    +0.000 A 
ATOM     19  C   UNL     1       5.911   5.375  17.597  0.00  0.00    +0.000 A 
ATOM     20  N   UNL     1       6.418   6.193  18.492  0.00  0.00    +0.000 NA
ATOM     21  C   UNL     1       7.443   6.794  17.816  0.00  0.00    +0.000 A 
ATOM     22  N   UNL     1       7.581   6.426  16.538  0.00  0.00    +0.000 NA
ATOM     23  N   UNL     1       6.604   5.491  16.387  0.00  0.00    +0.000 N 
ENDBRANCH  13  21
ENDBRANCH   1  13
TORSDOF 4
ENDMDL
