MODEL 1
REMARK VINA RESULT:      -8.4      0.000      0.000
REMARK  Name = 
REMARK  12 active torsions:
REMARK  status: ('A' for Active; 'I' for Inactive)
REMARK    1  A    between atoms: C_1  and  C_2
REMARK    2  A    between atoms: C_2  and  O_3
REMARK    3  A    between atoms: O_3  and  C_4
REMARK    4  A    between atoms: C_7  and  C_8
REMARK    5  A    between atoms: C_8  and  C_9
REMARK    6  A    between atoms: C_9  and  N_10
REMARK    7  A    between atoms: C_11  and  C_13
REMARK    8  A    between atoms: N_18  and  C_19
REMARK    9  A    between atoms: N_27  and  C_28
REMARK   10  A    between atoms: C_30  and  O_31
REMARK   11  A    between atoms: O_31  and  C_32
REMARK   12  A    between atoms: C_32  and  C_33
REMARK                            x       y       z     vdW  Elec       q    Type
REMARK                         _______ _______ _______ _____ _____    ______ ____
ROOT
ATOM      1  N   UNL     1       2.336   6.766  20.099  0.00  0.00    +0.000 N 
ATOM      2  C   UNL     1       2.769   5.459  20.122  0.00  0.00    +0.000 C 
ATOM      3  O   UNL     1       2.268   4.675  20.932  0.00  0.00    +0.000 OA
ATOM      4  H   UNL     1       2.917   7.467  19.667  0.00  0.00    +0.000 HD
ENDROOT
BRANCH   2   5
ATOM      5  C   UNL     1       3.797   5.000  19.192  0.00  0.00    +0.000 A 
ATOM      6  C   UNL     1       5.124   5.328  19.422  0.00  0.00    +0.000 A 
ATOM      7  C   UNL     1       5.905   4.736  18.428  0.00  0.00    +0.000 A 
ATOM      8  C   UNL     1       7.279   5.014  18.102  0.00  0.00    +0.000 A 
ATOM      9  O   UNL     1       8.218   4.412  18.606  0.00  0.00    +0.000 OA
ATOM     10  N   UNL     1       7.342   5.797  16.950  0.00  0.00    +0.000 N 
ATOM     11  C   UNL     1       6.716   7.134  17.043  0.00  0.00    +0.000 C 
ATOM     12  C   UNL     1       6.790   5.092  15.834  0.00  0.00    +0.000 A 
ATOM     13  C   UNL     1       7.473   5.309  14.630  0.00  0.00    +0.000 A 
ATOM     14  C   UNL     1       6.986   4.712  13.495  0.00  0.00    +0.000 A 
ATOM     15  C   UNL     1       5.836   3.908  13.595  0.00  0.00    +0.000 A 
ATOM     16  C   UNL     1       5.140   3.682  14.826  0.00  0.00    +0.000 A 
ATOM     17  C   UNL     1       5.597   4.269  16.003  0.00  0.00    +0.000 A 
ATOM     18  C   UNL     1       5.054   4.222  17.429  0.00  0.00    +0.000 A 
ATOM     19  N   UNL     1       3.853   4.005  18.162  0.00  0.00    +0.000 N 
ATOM     20  C   UNL     1       3.503   2.662  18.662  0.00  0.00    +0.000 C 
ENDBRANCH   2   5
BRANCH   1  21
ATOM     21  C   UNL     1       1.281   7.158  21.030  0.00  0.00    +0.000 C 
BRANCH  21  22
ATOM     22  C   UNL     1       1.331   8.624  21.457  0.00  0.00    +0.000 C 
BRANCH  22  26
ATOM     23  C   UNL     1      -1.051  11.224  18.919  0.00  0.00    +0.000 A 
ATOM     24  C   UNL     1      -0.079  10.368  18.370  0.00  0.00    +0.000 A 
ATOM     25  C   UNL     1       0.721   9.559  19.182  0.00  0.00    +0.000 A 
ATOM     26  C   UNL     1       0.576   9.592  20.560  0.00  0.00    +0.000 A 
ATOM     27  C   UNL     1      -0.348  10.482  21.119  0.00  0.00    +0.000 A 
ATOM     28  C   UNL     1      -1.138  11.321  20.317  0.00  0.00    +0.000 A 
BRANCH  23  29
ATOM     29  O   UNL     1      -1.911  11.958  18.132  0.00  0.00    +0.000 OA
BRANCH  29  31
ATOM     30  C   UNL     1      -2.815  11.149  16.030  0.00  0.00    +0.000 C 
ATOM     31  C   UNL     1      -2.988  11.222  17.538  0.00  0.00    +0.000 C 
ENDBRANCH  29  31
ENDBRANCH  23  29
BRANCH  28  32
ATOM     32  O   UNL     1      -1.961  12.122  21.068  0.00  0.00    +0.000 OA
BRANCH  32  33
ATOM     33  C   UNL     1      -1.606  12.338  22.431  0.00  0.00    +0.000 C 
ATOM     34  C   UNL     1      -2.850  12.134  23.283  0.00  0.00    +0.000 C 
ENDBRANCH  32  33
ENDBRANCH  28  32
ENDBRANCH  22  26
ENDBRANCH  21  22
ENDBRANCH   1  21
TORSDOF 8
ENDMDL
MODEL 2
REMARK VINA RESULT:      -8.2      0.913      2.450
REMARK  Name = 
REMARK  12 active torsions:
REMARK  status: ('A' for Active; 'I' for Inactive)
REMARK    1  A    between atoms: C_1  and  C_2
REMARK    2  A    between atoms: C_2  and  O_3
REMARK    3  A    between atoms: O_3  and  C_4
REMARK    4  A    between atoms: C_7  and  C_8
REMARK    5  A    between atoms: C_8  and  C_9
REMARK    6  A    between atoms: C_9  and  N_10
REMARK    7  A    between atoms: C_11  and  C_13
REMARK    8  A    between atoms: N_18  and  C_19
REMARK    9  A    between atoms: N_27  and  C_28
REMARK   10  A    between atoms: C_30  and  O_31
REMARK   11  A    between atoms: O_31  and  C_32
REMARK   12  A    between atoms: C_32  and  C_33
REMARK                            x       y       z     vdW  Elec       q    Type
REMARK                         _______ _______ _______ _____ _____    ______ ____
ROOT
ATOM      1  N   UNL     1       2.286   6.857  20.016  0.00  0.00    +0.000 N 
ATOM      2  C   UNL     1       2.680   5.537  20.033  0.00  0.00    +0.000 C 
ATOM      3  O   UNL     1       2.124   4.755  20.808  0.00  0.00    +0.000 OA
ATOM      4  H   UNL     1       2.904   7.549  19.621  0.00  0.00    +0.000 HD
ENDROOT
BRANCH   2   5
ATOM      5  C   UNL     1       3.731   5.065  19.137  0.00  0.00    +0.000 A 
ATOM      6  C   UNL     1       5.052   5.397  19.396  0.00  0.00    +0.000 A 
ATOM      7  C   UNL     1       5.858   4.790  18.431  0.00  0.00    +0.000 A 
ATOM      8  C   UNL     1       7.240   5.063  18.136  0.00  0.00    +0.000 A 
ATOM      9  O   UNL     1       8.166   4.470  18.673  0.00  0.00    +0.000 OA
ATOM     10  N   UNL     1       7.332   5.829  16.973  0.00  0.00    +0.000 N 
ATOM     11  C   UNL     1       6.704   7.166  17.030  0.00  0.00    +0.000 C 
ATOM     12  C   UNL     1       6.809   5.106  15.855  0.00  0.00    +0.000 A 
ATOM     13  C   UNL     1       7.522   5.304  14.666  0.00  0.00    +0.000 A 
ATOM     14  C   UNL     1       7.065   4.689  13.529  0.00  0.00    +0.000 A 
ATOM     15  C   UNL     1       5.912   3.886  13.612  0.00  0.00    +0.000 A 
ATOM     16  C   UNL     1       5.186   3.679  14.828  0.00  0.00    +0.000 A 
ATOM     17  C   UNL     1       5.612   4.285  16.007  0.00  0.00    +0.000 A 
ATOM     18  C   UNL     1       5.033   4.260  17.419  0.00  0.00    +0.000 A 
ATOM     19  N   UNL     1       3.814   4.053  18.125  0.00  0.00    +0.000 N 
ATOM     20  C   UNL     1       3.452   2.718  18.637  0.00  0.00    +0.000 C 
ENDBRANCH   2   5
BRANCH   1  21
ATOM     21  C   UNL     1       1.205   7.264  20.912  0.00  0.00    +0.000 C 
BRANCH  21  22
ATOM     22  C   UNL     1       1.492   8.537  21.707  0.00  0.00    +0.000 C 
BRANCH  22  26
ATOM     23  C   UNL     1      -1.412  11.763  21.519  0.00  0.00    +0.000 A 
ATOM     24  C   UNL     1      -1.077  11.160  22.745  0.00  0.00    +0.000 A 
ATOM     25  C   UNL     1      -0.176  10.093  22.810  0.00  0.00    +0.000 A 
ATOM     26  C   UNL     1       0.405   9.599  21.653  0.00  0.00    +0.000 A 
ATOM     27  C   UNL     1       0.035  10.154  20.423  0.00  0.00    +0.000 A 
ATOM     28  C   UNL     1      -0.890  11.206  20.340  0.00  0.00    +0.000 A 
BRANCH  23  29
ATOM     29  O   UNL     1      -2.225  12.873  21.445  0.00  0.00    +0.000 OA
BRANCH  29  31
ATOM     30  C   UNL     1      -2.162  15.208  22.102  0.00  0.00    +0.000 C 
ATOM     31  C   UNL     1      -1.552  14.121  21.233  0.00  0.00    +0.000 C 
ENDBRANCH  29  31
ENDBRANCH  23  29
BRANCH  28  32
ATOM     32  O   UNL     1      -1.120  11.587  19.041  0.00  0.00    +0.000 OA
BRANCH  32  33
ATOM     33  C   UNL     1      -2.305  11.107  18.414  0.00  0.00    +0.000 C 
ATOM     34  C   UNL     1      -1.901  10.143  17.308  0.00  0.00    +0.000 C 
ENDBRANCH  32  33
ENDBRANCH  28  32
ENDBRANCH  22  26
ENDBRANCH  21  22
ENDBRANCH   1  21
TORSDOF 8
ENDMDL
MODEL 3
REMARK VINA RESULT:      -8.1      2.906     10.884
REMARK  Name = 
REMARK  12 active torsions:
REMARK  status: ('A' for Active; 'I' for Inactive)
REMARK    1  A    between atoms: C_1  and  C_2
REMARK    2  A    between atoms: C_2  and  O_3
REMARK    3  A    between atoms: O_3  and  C_4
REMARK    4  A    between atoms: C_7  and  C_8
REMARK    5  A    between atoms: C_8  and  C_9
REMARK    6  A    between atoms: C_9  and  N_10
REMARK    7  A    between atoms: C_11  and  C_13
REMARK    8  A    between atoms: N_18  and  C_19
REMARK    9  A    between atoms: N_27  and  C_28
REMARK   10  A    between atoms: C_30  and  O_31
REMARK   11  A    between atoms: O_31  and  C_32
REMARK   12  A    between atoms: C_32  and  C_33
REMARK                            x       y       z     vdW  Elec       q    Type
REMARK                         _______ _______ _______ _____ _____    ______ ____
ROOT
ATOM      1  N   UNL     1       1.039   9.506  18.561  0.00  0.00    +0.000 N 
ATOM      2  C   UNL     1       1.258  10.854  18.738  0.00  0.00    +0.000 C 
ATOM      3  O   UNL     1       2.269  11.367  18.250  0.00  0.00    +0.000 OA
ATOM      4  H   UNL     1       0.400   9.028  19.177  0.00  0.00    +0.000 HD
ENDROOT
BRANCH   2   5
ATOM      5  C   UNL     1       0.303  11.671  19.480  0.00  0.00    +0.000 A 
ATOM      6  C   UNL     1       0.611  12.087  20.766  0.00  0.00    +0.000 A 
ATOM      7  C   UNL     1      -0.434  12.886  21.235  0.00  0.00    +0.000 A 
ATOM      8  C   UNL     1      -0.682  13.311  22.587  0.00  0.00    +0.000 A 
ATOM      9  O   UNL     1      -0.240  14.355  23.049  0.00  0.00    +0.000 OA
ATOM     10  N   UNL     1      -1.714  12.553  23.139  0.00  0.00    +0.000 N 
ATOM     11  C   UNL     1      -1.456  11.102  23.259  0.00  0.00    +0.000 C 
ATOM     12  C   UNL     1      -2.930  12.759  22.415  0.00  0.00    +0.000 A 
ATOM     13  C   UNL     1      -4.074  12.795  23.223  0.00  0.00    +0.000 A 
ATOM     14  C   UNL     1      -5.292  12.940  22.610  0.00  0.00    +0.000 A 
ATOM     15  C   UNL     1      -5.334  13.056  21.208  0.00  0.00    +0.000 A 
ATOM     16  C   UNL     1      -4.165  13.024  20.382  0.00  0.00    +0.000 A 
ATOM     17  C   UNL     1      -2.907  12.877  20.960  0.00  0.00    +0.000 A 
ATOM     18  C   UNL     1      -1.516  12.790  20.338  0.00  0.00    +0.000 A 
ATOM     19  N   UNL     1      -0.852  12.444  19.127  0.00  0.00    +0.000 N 
ATOM     20  C   UNL     1      -0.549  13.468  18.109  0.00  0.00    +0.000 C 
ENDBRANCH   2   5
BRANCH   1  21
ATOM     21  C   UNL     1       2.013   8.747  17.779  0.00  0.00    +0.000 C 
BRANCH  21  22
ATOM     22  C   UNL     1       2.718   7.639  18.559  0.00  0.00    +0.000 C 
BRANCH  22  26
ATOM     23  C   UNL     1       4.947   4.615  16.376  0.00  0.00    +0.000 A 
ATOM     24  C   UNL     1       5.318   5.971  16.319  0.00  0.00    +0.000 A 
ATOM     25  C   UNL     1       4.583   6.956  16.984  0.00  0.00    +0.000 A 
ATOM     26  C   UNL     1       3.455   6.612  17.713  0.00  0.00    +0.000 A 
ATOM     27  C   UNL     1       3.044   5.275  17.728  0.00  0.00    +0.000 A 
ATOM     28  C   UNL     1       3.757   4.280  17.041  0.00  0.00    +0.000 A 
BRANCH  23  29
ATOM     29  O   UNL     1       5.710   3.620  15.804  0.00  0.00    +0.000 OA
BRANCH  29  31
ATOM     30  C   UNL     1       6.051   3.714  13.403  0.00  0.00    +0.000 C 
ATOM     31  C   UNL     1       6.612   4.047  14.775  0.00  0.00    +0.000 C 
ENDBRANCH  29  31
ENDBRANCH  23  29
BRANCH  28  32
ATOM     32  O   UNL     1       3.172   3.045  17.175  0.00  0.00    +0.000 OA
BRANCH  32  33
ATOM     33  C   UNL     1       3.516   2.274  18.322  0.00  0.00    +0.000 C 
ATOM     34  C   UNL     1       2.259   2.075  19.156  0.00  0.00    +0.000 C 
ENDBRANCH  32  33
ENDBRANCH  28  32
ENDBRANCH  22  26
ENDBRANCH  21  22
ENDBRANCH   1  21
TORSDOF 8
ENDMDL
MODEL 4
REMARK VINA RESULT:      -8.1      0.997      1.191
REMARK  Name = 
REMARK  12 active torsions:
REMARK  status: ('A' for Active; 'I' for Inactive)
REMARK    1  A    between atoms: C_1  and  C_2
REMARK    2  A    between atoms: C_2  and  O_3
REMARK    3  A    between atoms: O_3  and  C_4
REMARK    4  A    between atoms: C_7  and  C_8
REMARK    5  A    between atoms: C_8  and  C_9
REMARK    6  A    between atoms: C_9  and  N_10
REMARK    7  A    between atoms: C_11  and  C_13
REMARK    8  A    between atoms: N_18  and  C_19
REMARK    9  A    between atoms: N_27  and  C_28
REMARK   10  A    between atoms: C_30  and  O_31
REMARK   11  A    between atoms: O_31  and  C_32
REMARK   12  A    between atoms: C_32  and  C_33
REMARK                            x       y       z     vdW  Elec       q    Type
REMARK                         _______ _______ _______ _____ _____    ______ ____
ROOT
ATOM      1  N   UNL     1       2.495   6.390  20.138  0.00  0.00    +0.000 N 
ATOM      2  C   UNL     1       2.452   5.191  19.461  0.00  0.00    +0.000 C 
ATOM      3  O   UNL     1       1.453   4.477  19.568  0.00  0.00    +0.000 OA
ATOM      4  H   UNL     1       3.386   6.832  20.297  0.00  0.00    +0.000 HD
ENDROOT
BRANCH   2   5
ATOM      5  C   UNL     1       3.568   4.776  18.616  0.00  0.00    +0.000 A 
ATOM      6  C   UNL     1       4.861   5.137  18.962  0.00  0.00    +0.000 A 
ATOM      7  C   UNL     1       5.740   4.582  18.030  0.00  0.00    +0.000 A 
ATOM      8  C   UNL     1       7.128   4.903  17.826  0.00  0.00    +0.000 A 
ATOM      9  O   UNL     1       8.039   4.320  18.400  0.00  0.00    +0.000 OA
ATOM     10  N   UNL     1       7.266   5.706  16.694  0.00  0.00    +0.000 N 
ATOM     11  C   UNL     1       6.597   7.023  16.751  0.00  0.00    +0.000 C 
ATOM     12  C   UNL     1       6.831   5.004  15.526  0.00  0.00    +0.000 A 
ATOM     13  C   UNL     1       7.608   5.258  14.388  0.00  0.00    +0.000 A 
ATOM     14  C   UNL     1       7.236   4.666  13.208  0.00  0.00    +0.000 A 
ATOM     15  C   UNL     1       6.106   3.828  13.199  0.00  0.00    +0.000 A 
ATOM     16  C   UNL     1       5.315   3.565  14.363  0.00  0.00    +0.000 A 
ATOM     17  C   UNL     1       5.653   4.145  15.583  0.00  0.00    +0.000 A 
ATOM     18  C   UNL     1       4.993   4.061  16.956  0.00  0.00    +0.000 A 
ATOM     19  N   UNL     1       3.741   3.799  17.581  0.00  0.00    +0.000 N 
ATOM     20  C   UNL     1       3.389   2.439  18.032  0.00  0.00    +0.000 C 
ENDBRANCH   2   5
BRANCH   1  21
ATOM     21  C   UNL     1       1.334   6.767  20.941  0.00  0.00    +0.000 C 
BRANCH  21  22
ATOM     22  C   UNL     1       1.437   8.149  21.584  0.00  0.00    +0.000 C 
BRANCH  22  26
ATOM     23  C   UNL     1      -0.545  11.245  19.267  0.00  0.00    +0.000 A 
ATOM     24  C   UNL     1       0.483  10.466  18.706  0.00  0.00    +0.000 A 
ATOM     25  C   UNL     1       1.155   9.497  19.455  0.00  0.00    +0.000 A 
ATOM     26  C   UNL     1       0.822   9.289  20.785  0.00  0.00    +0.000 A 
ATOM     27  C   UNL     1      -0.158  10.098  21.369  0.00  0.00    +0.000 A 
ATOM     28  C   UNL     1      -0.821  11.094  20.635  0.00  0.00    +0.000 A 
BRANCH  23  29
ATOM     29  O   UNL     1      -1.281  12.139  18.520  0.00  0.00    +0.000 OA
BRANCH  29  31
ATOM     30  C   UNL     1      -0.139  14.184  19.157  0.00  0.00    +0.000 C 
ATOM     31  C   UNL     1      -0.555  13.269  18.017  0.00  0.00    +0.000 C 
ENDBRANCH  29  31
ENDBRANCH  23  29
BRANCH  28  32
ATOM     32  O   UNL     1      -1.730  11.778  21.404  0.00  0.00    +0.000 OA
BRANCH  32  33
ATOM     33  C   UNL     1      -1.481  11.859  22.804  0.00  0.00    +0.000 C 
ATOM     34  C   UNL     1      -2.807  12.102  23.509  0.00  0.00    +0.000 C 
ENDBRANCH  32  33
ENDBRANCH  28  32
ENDBRANCH  22  26
ENDBRANCH  21  22
ENDBRANCH   1  21
TORSDOF 8
ENDMDL
MODEL 5
REMARK VINA RESULT:      -8.1      1.443      2.619
REMARK  Name = 
REMARK  12 active torsions:
REMARK  status: ('A' for Active; 'I' for Inactive)
REMARK    1  A    between atoms: C_1  and  C_2
REMARK    2  A    between atoms: C_2  and  O_3
REMARK    3  A    between atoms: O_3  and  C_4
REMARK    4  A    between atoms: C_7  and  C_8
REMARK    5  A    between atoms: C_8  and  C_9
REMARK    6  A    between atoms: C_9  and  N_10
REMARK    7  A    between atoms: C_11  and  C_13
REMARK    8  A    between atoms: N_18  and  C_19
REMARK    9  A    between atoms: N_27  and  C_28
REMARK   10  A    between atoms: C_30  and  O_31
REMARK   11  A    between atoms: O_31  and  C_32
REMARK   12  A    between atoms: C_32  and  C_33
REMARK                            x       y       z     vdW  Elec       q    Type
REMARK                         _______ _______ _______ _____ _____    ______ ____
ROOT
ATOM      1  N   UNL     1       2.275   6.996  19.952  0.00  0.00    +0.000 N 
ATOM      2  C   UNL     1       2.739   5.705  20.075  0.00  0.00    +0.000 C 
ATOM      3  O   UNL     1       2.266   4.979  20.953  0.00  0.00    +0.000 OA
ATOM      4  H   UNL     1       2.834   7.673  19.457  0.00  0.00    +0.000 HD
ENDROOT
BRANCH   2   5
ATOM      5  C   UNL     1       3.766   5.196  19.172  0.00  0.00    +0.000 A 
ATOM      6  C   UNL     1       5.099   5.489  19.416  0.00  0.00    +0.000 A 
ATOM      7  C   UNL     1       5.877   4.852  18.447  0.00  0.00    +0.000 A 
ATOM      8  C   UNL     1       7.263   5.081  18.137  0.00  0.00    +0.000 A 
ATOM      9  O   UNL     1       8.176   4.462  18.668  0.00  0.00    +0.000 OA
ATOM     10  N   UNL     1       7.368   5.838  16.970  0.00  0.00    +0.000 N 
ATOM     11  C   UNL     1       6.782   7.194  17.025  0.00  0.00    +0.000 C 
ATOM     12  C   UNL     1       6.812   5.126  15.860  0.00  0.00    +0.000 A 
ATOM     13  C   UNL     1       7.520   5.296  14.664  0.00  0.00    +0.000 A 
ATOM     14  C   UNL     1       7.033   4.691  13.534  0.00  0.00    +0.000 A 
ATOM     15  C   UNL     1       5.857   3.923  13.632  0.00  0.00    +0.000 A 
ATOM     16  C   UNL     1       5.136   3.745  14.856  0.00  0.00    +0.000 A 
ATOM     17  C   UNL     1       5.592   4.343  16.028  0.00  0.00    +0.000 A 
ATOM     18  C   UNL     1       5.026   4.343  17.445  0.00  0.00    +0.000 A 
ATOM     19  N   UNL     1       3.808   4.178  18.163  0.00  0.00    +0.000 N 
ATOM     20  C   UNL     1       3.410   2.857  18.686  0.00  0.00    +0.000 C 
ENDBRANCH   2   5
BRANCH   1  21
ATOM     21  C   UNL     1       1.221   7.438  20.863  0.00  0.00    +0.000 C 
BRANCH  21  22
ATOM     22  C   UNL     1       1.604   8.634  21.734  0.00  0.00    +0.000 C 
BRANCH  22  26
ATOM     23  C   UNL     1      -1.373  11.696  22.535  0.00  0.00    +0.000 A 
ATOM     24  C   UNL     1      -1.241  10.576  23.375  0.00  0.00    +0.000 A 
ATOM     25  C   UNL     1      -0.316   9.565  23.103  0.00  0.00    +0.000 A 
ATOM     26  C   UNL     1       0.493   9.644  21.980  0.00  0.00    +0.000 A 
ATOM     27  C   UNL     1       0.330  10.725  21.107  0.00  0.00    +0.000 A 
ATOM     28  C   UNL     1      -0.615  11.733  21.354  0.00  0.00    +0.000 A 
BRANCH  23  29
ATOM     29  O   UNL     1      -2.213  12.746  22.837  0.00  0.00    +0.000 OA
BRANCH  29  31
ATOM     30  C   UNL     1      -4.492  13.040  23.618  0.00  0.00    +0.000 C 
ATOM     31  C   UNL     1      -3.591  12.553  22.494  0.00  0.00    +0.000 C 
ENDBRANCH  29  31
ENDBRANCH  23  29
BRANCH  28  32
ATOM     32  O   UNL     1      -0.619  12.685  20.365  0.00  0.00    +0.000 OA
BRANCH  32  33
ATOM     33  C   UNL     1       0.499  12.724  19.483  0.00  0.00    +0.000 C 
ATOM     34  C   UNL     1       0.123  13.575  18.278  0.00  0.00    +0.000 C 
ENDBRANCH  32  33
ENDBRANCH  28  32
ENDBRANCH  22  26
ENDBRANCH  21  22
ENDBRANCH   1  21
TORSDOF 8
ENDMDL
MODEL 6
REMARK VINA RESULT:      -8.0      2.326      9.025
REMARK  Name = 
REMARK  12 active torsions:
REMARK  status: ('A' for Active; 'I' for Inactive)
REMARK    1  A    between atoms: C_1  and  C_2
REMARK    2  A    between atoms: C_2  and  O_3
REMARK    3  A    between atoms: O_3  and  C_4
REMARK    4  A    between atoms: C_7  and  C_8
REMARK    5  A    between atoms: C_8  and  C_9
REMARK    6  A    between atoms: C_9  and  N_10
REMARK    7  A    between atoms: C_11  and  C_13
REMARK    8  A    between atoms: N_18  and  C_19
REMARK    9  A    between atoms: N_27  and  C_28
REMARK   10  A    between atoms: C_30  and  O_31
REMARK   11  A    between atoms: O_31  and  C_32
REMARK   12  A    between atoms: C_32  and  C_33
REMARK                            x       y       z     vdW  Elec       q    Type
REMARK                         _______ _______ _______ _____ _____    ______ ____
ROOT
ATOM      1  N   UNL     1       1.748   4.258  18.323  0.00  0.00    +0.000 N 
ATOM      2  C   UNL     1       1.820   4.787  19.593  0.00  0.00    +0.000 C 
ATOM      3  O   UNL     1       1.965   4.026  20.553  0.00  0.00    +0.000 OA
ATOM      4  H   UNL     1       1.348   4.812  17.583  0.00  0.00    +0.000 HD
ENDROOT
BRANCH   2   5
ATOM      5  C   UNL     1       1.741   6.230  19.801  0.00  0.00    +0.000 A 
ATOM      6  C   UNL     1       1.763   6.738  21.091  0.00  0.00    +0.000 A 
ATOM      7  C   UNL     1       1.724   8.132  21.018  0.00  0.00    +0.000 A 
ATOM      8  C   UNL     1       1.459   9.064  22.082  0.00  0.00    +0.000 A 
ATOM      9  O   UNL     1       2.341   9.548  22.780  0.00  0.00    +0.000 OA
ATOM     10  N   UNL     1       0.155   9.546  21.973  0.00  0.00    +0.000 N 
ATOM     11  C   UNL     1      -0.919   8.539  22.101  0.00  0.00    +0.000 C 
ATOM     12  C   UNL     1      -0.013  10.264  20.747  0.00  0.00    +0.000 A 
ATOM     13  C   UNL     1      -0.830  11.397  20.858  0.00  0.00    +0.000 A 
ATOM     14  C   UNL     1      -1.087  12.121  19.722  0.00  0.00    +0.000 A 
ATOM     15  C   UNL     1      -0.514  11.700  18.508  0.00  0.00    +0.000 A 
ATOM     16  C   UNL     1       0.325  10.545  18.395  0.00  0.00    +0.000 A 
ATOM     17  C   UNL     1       0.612   9.779  19.521  0.00  0.00    +0.000 A 
ATOM     18  C   UNL     1       1.442   8.509  19.691  0.00  0.00    +0.000 A 
ATOM     19  N   UNL     1       1.922   7.381  18.966  0.00  0.00    +0.000 N 
ATOM     20  C   UNL     1       3.250   7.402  18.323  0.00  0.00    +0.000 C 
ENDBRANCH   2   5
BRANCH   1  21
ATOM     21  C   UNL     1       1.868   2.809  18.174  0.00  0.00    +0.000 C 
BRANCH  21  22
ATOM     22  C   UNL     1       3.276   2.327  17.828  0.00  0.00    +0.000 C 
BRANCH  22  26
ATOM     23  C   UNL     1       6.435   5.257  17.270  0.00  0.00    +0.000 A 
ATOM     24  C   UNL     1       6.063   4.829  18.557  0.00  0.00    +0.000 A 
ATOM     25  C   UNL     1       5.021   3.918  18.749  0.00  0.00    +0.000 A 
ATOM     26  C   UNL     1       4.319   3.422  17.662  0.00  0.00    +0.000 A 
ATOM     27  C   UNL     1       4.642   3.887  16.383  0.00  0.00    +0.000 A 
ATOM     28  C   UNL     1       5.668   4.822  16.178  0.00  0.00    +0.000 A 
BRANCH  23  29
ATOM     29  O   UNL     1       7.518   6.081  17.055  0.00  0.00    +0.000 OA
BRANCH  29  31
ATOM     30  C   UNL     1       7.886   8.396  17.686  0.00  0.00    +0.000 C 
ATOM     31  C   UNL     1       7.863   6.947  18.144  0.00  0.00    +0.000 C 
ENDBRANCH  29  31
ENDBRANCH  23  29
BRANCH  28  32
ATOM     32  O   UNL     1       5.806   5.151  14.852  0.00  0.00    +0.000 OA
BRANCH  32  33
ATOM     33  C   UNL     1       6.733   4.396  14.079  0.00  0.00    +0.000 C 
ATOM     34  C   UNL     1       5.962   3.681  12.978  0.00  0.00    +0.000 C 
ENDBRANCH  32  33
ENDBRANCH  28  32
ENDBRANCH  22  26
ENDBRANCH  21  22
ENDBRANCH   1  21
TORSDOF 8
ENDMDL
MODEL 7
REMARK VINA RESULT:      -7.9      1.335      2.687
REMARK  Name = 
REMARK  12 active torsions:
REMARK  status: ('A' for Active; 'I' for Inactive)
REMARK    1  A    between atoms: C_1  and  C_2
REMARK    2  A    between atoms: C_2  and  O_3
REMARK    3  A    between atoms: O_3  and  C_4
REMARK    4  A    between atoms: C_7  and  C_8
REMARK    5  A    between atoms: C_8  and  C_9
REMARK    6  A    between atoms: C_9  and  N_10
REMARK    7  A    between atoms: C_11  and  C_13
REMARK    8  A    between atoms: N_18  and  C_19
REMARK    9  A    between atoms: N_27  and  C_28
REMARK   10  A    between atoms: C_30  and  O_31
REMARK   11  A    between atoms: O_31  and  C_32
REMARK   12  A    between atoms: C_32  and  C_33
REMARK                            x       y       z     vdW  Elec       q    Type
REMARK                         _______ _______ _______ _____ _____    ______ ____
ROOT
ATOM      1  N   UNL     1       2.113   7.984  19.530  0.00  0.00    +0.000 N 
ATOM      2  C   UNL     1       2.353   6.645  19.746  0.00  0.00    +0.000 C 
ATOM      3  O   UNL     1       1.697   6.049  20.603  0.00  0.00    +0.000 OA
ATOM      4  H   UNL     1       2.813   8.539  19.063  0.00  0.00    +0.000 HD
ENDROOT
BRANCH   2   5
ATOM      5  C   UNL     1       3.360   5.936  18.963  0.00  0.00    +0.000 A 
ATOM      6  C   UNL     1       4.697   6.036  19.315  0.00  0.00    +0.000 A 
ATOM      7  C   UNL     1       5.444   5.235  18.449  0.00  0.00    +0.000 A 
ATOM      8  C   UNL     1       6.870   5.233  18.257  0.00  0.00    +0.000 A 
ATOM      9  O   UNL     1       7.628   4.514  18.896  0.00  0.00    +0.000 OA
ATOM     10  N   UNL     1       7.189   5.898  17.073  0.00  0.00    +0.000 N 
ATOM     11  C   UNL     1       6.819   7.328  17.016  0.00  0.00    +0.000 C 
ATOM     12  C   UNL     1       6.623   5.217  15.949  0.00  0.00    +0.000 A 
ATOM     13  C   UNL     1       7.446   5.209  14.816  0.00  0.00    +0.000 A 
ATOM     14  C   UNL     1       6.966   4.621  13.674  0.00  0.00    +0.000 A 
ATOM     15  C   UNL     1       5.681   4.048  13.698  0.00  0.00    +0.000 A 
ATOM     16  C   UNL     1       4.842   4.051  14.857  0.00  0.00    +0.000 A 
ATOM     17  C   UNL     1       5.286   4.638  16.039  0.00  0.00    +0.000 A 
ATOM     18  C   UNL     1       4.611   4.805  17.398  0.00  0.00    +0.000 A 
ATOM     19  N   UNL     1       3.326   4.867  18.008  0.00  0.00    +0.000 N 
ATOM     20  C   UNL     1       2.685   3.654  18.549  0.00  0.00    +0.000 C 
ENDBRANCH   2   5
BRANCH   1  21
ATOM     21  C   UNL     1       1.068   8.632  20.320  0.00  0.00    +0.000 C 
BRANCH  21  22
ATOM     22  C   UNL     1       0.932  10.134  20.072  0.00  0.00    +0.000 C 
BRANCH  22  26
ATOM     23  C   UNL     1      -2.916  11.639  18.727  0.00  0.00    +0.000 A 
ATOM     24  C   UNL     1      -2.329  12.108  19.917  0.00  0.00    +0.000 A 
ATOM     25  C   UNL     1      -1.113  11.600  20.380  0.00  0.00    +0.000 A 
ATOM     26  C   UNL     1      -0.458  10.605  19.670  0.00  0.00    +0.000 A 
ATOM     27  C   UNL     1      -1.060  10.091  18.518  0.00  0.00    +0.000 A 
ATOM     28  C   UNL     1      -2.296  10.573  18.057  0.00  0.00    +0.000 A 
BRANCH  23  29
ATOM     29  O   UNL     1      -4.066  12.192  18.208  0.00  0.00    +0.000 OA
BRANCH  29  31
ATOM     30  C   UNL     1      -6.231  11.107  18.042  0.00  0.00    +0.000 C 
ATOM     31  C   UNL     1      -5.273  11.894  18.922  0.00  0.00    +0.000 C 
ENDBRANCH  29  31
ENDBRANCH  23  29
BRANCH  28  32
ATOM     32  O   UNL     1      -2.710   9.919  16.923  0.00  0.00    +0.000 OA
BRANCH  32  33
ATOM     33  C   UNL     1      -2.631  10.626  15.689  0.00  0.00    +0.000 C 
ATOM     34  C   UNL     1      -3.687  10.062  14.750  0.00  0.00    +0.000 C 
ENDBRANCH  32  33
ENDBRANCH  28  32
ENDBRANCH  22  26
ENDBRANCH  21  22
ENDBRANCH   1  21
TORSDOF 8
ENDMDL
MODEL 8
REMARK VINA RESULT:      -7.8      3.199     11.201
REMARK  Name = 
REMARK  12 active torsions:
REMARK  status: ('A' for Active; 'I' for Inactive)
REMARK    1  A    between atoms: C_1  and  C_2
REMARK    2  A    between atoms: C_2  and  O_3
REMARK    3  A    between atoms: O_3  and  C_4
REMARK    4  A    between atoms: C_7  and  C_8
REMARK    5  A    between atoms: C_8  and  C_9
REMARK    6  A    between atoms: C_9  and  N_10
REMARK    7  A    between atoms: C_11  and  C_13
REMARK    8  A    between atoms: N_18  and  C_19
REMARK    9  A    between atoms: N_27  and  C_28
REMARK   10  A    between atoms: C_30  and  O_31
REMARK   11  A    between atoms: O_31  and  C_32
REMARK   12  A    between atoms: C_32  and  C_33
REMARK                            x       y       z     vdW  Elec       q    Type
REMARK                         _______ _______ _______ _____ _____    ______ ____
ROOT
ATOM      1  N   UNL     1       0.758  10.370  18.283  0.00  0.00    +0.000 N 
ATOM      2  C   UNL     1       0.134  10.561  19.496  0.00  0.00    +0.000 C 
ATOM      3  O   UNL     1       0.645  10.088  20.514  0.00  0.00    +0.000 OA
ATOM      4  H   UNL     1       0.226  10.486  17.434  0.00  0.00    +0.000 HD
ENDROOT
BRANCH   2   5
ATOM      5  C   UNL     1      -1.108  11.324  19.581  0.00  0.00    +0.000 A 
ATOM      6  C   UNL     1      -1.162  12.458  20.375  0.00  0.00    +0.000 A 
ATOM      7  C   UNL     1      -2.430  13.028  20.247  0.00  0.00    +0.000 A 
ATOM      8  C   UNL     1      -3.030  14.042  21.074  0.00  0.00    +0.000 A 
ATOM      9  O   UNL     1      -2.933  15.239  20.837  0.00  0.00    +0.000 OA
ATOM     10  N   UNL     1      -3.955  13.459  21.941  0.00  0.00    +0.000 N 
ATOM     11  C   UNL     1      -3.408  12.482  22.907  0.00  0.00    +0.000 C 
ATOM     12  C   UNL     1      -5.018  12.849  21.202  0.00  0.00    +0.000 A 
ATOM     13  C   UNL     1      -6.277  12.990  21.798  0.00  0.00    +0.000 A 
ATOM     14  C   UNL     1      -7.351  12.396  21.186  0.00  0.00    +0.000 A 
ATOM     15  C   UNL     1      -7.139  11.686  19.990  0.00  0.00    +0.000 A 
ATOM     16  C   UNL     1      -5.853  11.546  19.378  0.00  0.00    +0.000 A 
ATOM     17  C   UNL     1      -4.734  12.131  19.964  0.00  0.00    +0.000 A 
ATOM     18  C   UNL     1      -3.263  12.128  19.554  0.00  0.00    +0.000 A 
ATOM     19  N   UNL     1      -2.313  11.378  18.805  0.00  0.00    +0.000 N 
ATOM     20  C   UNL     1      -2.051  11.688  17.387  0.00  0.00    +0.000 C 
ENDBRANCH   2   5
BRANCH   1  21
ATOM     21  C   UNL     1       2.016   9.627  18.266  0.00  0.00    +0.000 C 
BRANCH  21  22
ATOM     22  C   UNL     1       1.927   8.255  17.600  0.00  0.00    +0.000 C 
BRANCH  22  26
ATOM     23  C   UNL     1       4.436   5.026  19.069  0.00  0.00    +0.000 A 
ATOM     24  C   UNL     1       3.347   5.500  19.825  0.00  0.00    +0.000 A 
ATOM     25  C   UNL     1       2.560   6.565  19.380  0.00  0.00    +0.000 A 
ATOM     26  C   UNL     1       2.847   7.189  18.176  0.00  0.00    +0.000 A 
ATOM     27  C   UNL     1       3.961   6.764  17.445  0.00  0.00    +0.000 A 
ATOM     28  C   UNL     1       4.777   5.713  17.894  0.00  0.00    +0.000 A 
BRANCH  23  29
ATOM     29  O   UNL     1       5.165   3.919  19.446  0.00  0.00    +0.000 OA
BRANCH  29  31
ATOM     30  C   UNL     1       3.770   2.235  18.395  0.00  0.00    +0.000 C 
ATOM     31  C   UNL     1       4.403   2.729  19.685  0.00  0.00    +0.000 C 
ENDBRANCH  29  31
ENDBRANCH  23  29
BRANCH  28  32
ATOM     32  O   UNL     1       5.821   5.472  17.035  0.00  0.00    +0.000 OA
BRANCH  32  33
ATOM     33  C   UNL     1       7.141   5.688  17.525  0.00  0.00    +0.000 C 
ATOM     34  C   UNL     1       7.389   7.189  17.573  0.00  0.00    +0.000 C 
ENDBRANCH  32  33
ENDBRANCH  28  32
ENDBRANCH  22  26
ENDBRANCH  21  22
ENDBRANCH   1  21
TORSDOF 8
ENDMDL
MODEL 9
REMARK VINA RESULT:      -7.7      3.523     10.811
REMARK  Name = 
REMARK  12 active torsions:
REMARK  status: ('A' for Active; 'I' for Inactive)
REMARK    1  A    between atoms: C_1  and  C_2
REMARK    2  A    between atoms: C_2  and  O_3
REMARK    3  A    between atoms: O_3  and  C_4
REMARK    4  A    between atoms: C_7  and  C_8
REMARK    5  A    between atoms: C_8  and  C_9
REMARK    6  A    between atoms: C_9  and  N_10
REMARK    7  A    between atoms: C_11  and  C_13
REMARK    8  A    between atoms: N_18  and  C_19
REMARK    9  A    between atoms: N_27  and  C_28
REMARK   10  A    between atoms: C_30  and  O_31
REMARK   11  A    between atoms: O_31  and  C_32
REMARK   12  A    between atoms: C_32  and  C_33
REMARK                            x       y       z     vdW  Elec       q    Type
REMARK                         _______ _______ _______ _____ _____    ______ ____
ROOT
ATOM      1  N   UNL     1       1.925   9.786  18.193  0.00  0.00    +0.000 N 
ATOM      2  C   UNL     1       0.707  10.426  18.251  0.00  0.00    +0.000 C 
ATOM      3  O   UNL     1      -0.296   9.846  17.827  0.00  0.00    +0.000 OA
ATOM      4  H   UNL     1       2.770  10.333  18.256  0.00  0.00    +0.000 HD
ENDROOT
BRANCH   2   5
ATOM      5  C   UNL     1       0.598  11.766  18.818  0.00  0.00    +0.000 A 
ATOM      6  C   UNL     1       0.288  11.919  20.160  0.00  0.00    +0.000 A 
ATOM      7  C   UNL     1       0.293  13.282  20.463  0.00  0.00    +0.000 A 
ATOM      8  C   UNL     1      -0.228  13.927  21.640  0.00  0.00    +0.000 A 
ATOM      9  O   UNL     1       0.446  14.135  22.640  0.00  0.00    +0.000 OA
ATOM     10  N   UNL     1      -1.450  14.532  21.346  0.00  0.00    +0.000 N 
ATOM     11  C   UNL     1      -2.536  13.622  20.923  0.00  0.00    +0.000 C 
ATOM     12  C   UNL     1      -1.278  15.555  20.360  0.00  0.00    +0.000 A 
ATOM     13  C   UNL     1      -2.077  16.686  20.569  0.00  0.00    +0.000 A 
ATOM     14  C   UNL     1      -2.015  17.699  19.647  0.00  0.00    +0.000 A 
ATOM     15  C   UNL     1      -1.150  17.559  18.546  0.00  0.00    +0.000 A 
ATOM     16  C   UNL     1      -0.329  16.404  18.335  0.00  0.00    +0.000 A 
ATOM     17  C   UNL     1      -0.360  15.351  19.244  0.00  0.00    +0.000 A 
ATOM     18  C   UNL     1       0.376  14.013  19.262  0.00  0.00    +0.000 A 
ATOM     19  N   UNL     1       1.011  13.075  18.401  0.00  0.00    +0.000 N 
ATOM     20  C   UNL     1       2.461  13.147  18.139  0.00  0.00    +0.000 C 
ENDBRANCH   2   5
BRANCH   1  21
ATOM     21  C   UNL     1       1.966   8.432  17.646  0.00  0.00    +0.000 C 
BRANCH  21  22
ATOM     22  C   UNL     1       2.492   7.377  18.617  0.00  0.00    +0.000 C 
BRANCH  22  26
ATOM     23  C   UNL     1       5.458   4.802  16.759  0.00  0.00    +0.000 A 
ATOM     24  C   UNL     1       4.266   4.272  17.285  0.00  0.00    +0.000 A 
ATOM     25  C   UNL     1       3.325   5.086  17.922  0.00  0.00    +0.000 A 
ATOM     26  C   UNL     1       3.557   6.446  18.056  0.00  0.00    +0.000 A 
ATOM     27  C   UNL     1       4.765   6.973  17.589  0.00  0.00    +0.000 A 
ATOM     28  C   UNL     1       5.731   6.163  16.972  0.00  0.00    +0.000 A 
BRANCH  23  29
ATOM     29  O   UNL     1       6.353   4.033  16.047  0.00  0.00    +0.000 OA
BRANCH  29  31
ATOM     30  C   UNL     1       6.989   4.744  13.816  0.00  0.00    +0.000 C 
ATOM     31  C   UNL     1       6.062   3.877  14.652  0.00  0.00    +0.000 C 
ENDBRANCH  29  31
ENDBRANCH  23  29
BRANCH  28  32
ATOM     32  O   UNL     1       6.843   6.879  16.605  0.00  0.00    +0.000 OA
BRANCH  32  33
ATOM     33  C   UNL     1       7.585   7.519  17.639  0.00  0.00    +0.000 C 
ATOM     34  C   UNL     1       7.988   6.464  18.658  0.00  0.00    +0.000 C 
ENDBRANCH  32  33
ENDBRANCH  28  32
ENDBRANCH  22  26
ENDBRANCH  21  22
ENDBRANCH   1  21
TORSDOF 8
ENDMDL
