MODEL 1
REMARK VINA RESULT:      -4.7      0.000      0.000
REMARK  Name = 
REMARK  2 active torsions:
REMARK  status: ('A' for Active; 'I' for Inactive)
REMARK    1  A    between atoms: N_1  and  C_2
REMARK    2  A    between atoms: C_2  and  C_3
REMARK                            x       y       z     vdW  Elec       q    Type
REMARK                         _______ _______ _______ _____ _____    ______ ____
ROOT
ATOM      1  C   UNL     1       6.420   4.534  16.568  0.00  0.00    +0.000 A 
ATOM      2  C   UNL     1       5.194   4.142  17.111  0.00  0.00    +0.000 A 
ATOM      3  C   UNL     1       5.006   4.268  18.478  0.00  0.00    +0.000 A 
ATOM      4  N   UNL     1       5.941   4.748  19.327  0.00  0.00    +0.000 NA
ATOM      5  C   UNL     1       7.115   5.122  18.797  0.00  0.00    +0.000 A 
ATOM      6  N   UNL     1       8.085   5.574  19.688  0.00  0.00    +0.000 N 
ATOM      7  C   UNL     1       7.397   5.027  17.439  0.00  0.00    +0.000 A 
ATOM      8  H   UNL     1       7.642   5.610  20.603  0.00  0.00    +0.000 HD
ATOM      9  H   UNL     1       8.460   6.474  19.411  0.00  0.00    +0.000 HD
ENDROOT
BRANCH   1  10
ATOM     10  C   UNL     1       6.692   4.401  15.095  0.00  0.00    +0.000 C 
BRANCH  10  11
ATOM     11  N   UNL     1       7.641   5.406  14.635  0.00  0.00    +0.000 NA
ATOM     12  H   UNL     1       7.252   5.885  13.825  0.00  0.00    +0.000 HD
ATOM     13  H   UNL     1       8.486   4.937  14.309  0.00  0.00    +0.000 HD
ENDBRANCH  10  11
ENDBRANCH   1  10
TORSDOF 2
ENDMDL
MODEL 2
REMARK VINA RESULT:      -4.7      3.291      5.449
REMARK  Name = 
REMARK  2 active torsions:
REMARK  status: ('A' for Active; 'I' for Inactive)
REMARK    1  A    between atoms: N_1  and  C_2
REMARK    2  A    between atoms: C_2  and  C_3
REMARK                            x       y       z     vdW  Elec       q    Type
REMARK                         _______ _______ _______ _____ _____    ______ ____
ROOT
ATOM      1  C   UNL     1       2.126   3.143  19.668  0.00  0.00    +0.000 A 
ATOM      2  C   UNL     1       1.630   3.173  18.362  0.00  0.00    +0.000 A 
ATOM      3  C   UNL     1       2.525   3.350  17.320  0.00  0.00    +0.000 A 
ATOM      4  N   UNL     1       3.858   3.500  17.486  0.00  0.00    +0.000 NA
ATOM      5  C   UNL     1       4.325   3.470  18.744  0.00  0.00    +0.000 A 
ATOM      6  N   UNL     1       5.693   3.669  18.904  0.00  0.00    +0.000 N 
ATOM      7  C   UNL     1       3.503   3.303  19.852  0.00  0.00    +0.000 A 
ATOM      8  H   UNL     1       6.091   3.711  17.969  0.00  0.00    +0.000 HD
ATOM      9  H   UNL     1       6.116   2.938  19.464  0.00  0.00    +0.000 HD
ENDROOT
BRANCH   1  10
ATOM     10  C   UNL     1       1.202   2.976  20.842  0.00  0.00    +0.000 C 
BRANCH  10  11
ATOM     11  N   UNL     1       1.944   2.789  22.083  0.00  0.00    +0.000 NA
ATOM     12  H   UNL     1       1.685   3.523  22.739  0.00  0.00    +0.000 HD
ATOM     13  H   UNL     1       2.938   2.913  21.894  0.00  0.00    +0.000 HD
ENDBRANCH  10  11
ENDBRANCH   1  10
TORSDOF 2
ENDMDL
MODEL 3
REMARK VINA RESULT:      -4.6      3.297      5.322
REMARK  Name = 
REMARK  2 active torsions:
REMARK  status: ('A' for Active; 'I' for Inactive)
REMARK    1  A    between atoms: N_1  and  C_2
REMARK    2  A    between atoms: C_2  and  C_3
REMARK                            x       y       z     vdW  Elec       q    Type
REMARK                         _______ _______ _______ _____ _____    ______ ____
ROOT
ATOM      1  C   UNL     1       2.617   4.234  20.033  0.00  0.00    +0.000 A 
ATOM      2  C   UNL     1       3.423   5.288  19.597  0.00  0.00    +0.000 A 
ATOM      3  C   UNL     1       4.744   5.019  19.274  0.00  0.00    +0.000 A 
ATOM      4  N   UNL     1       5.307   3.793  19.356  0.00  0.00    +0.000 NA
ATOM      5  C   UNL     1       4.523   2.787  19.775  0.00  0.00    +0.000 A 
ATOM      6  N   UNL     1       5.127   1.538  19.896  0.00  0.00    +0.000 N 
ATOM      7  C   UNL     1       3.191   2.962  20.127  0.00  0.00    +0.000 A 
ATOM      8  H   UNL     1       6.073   1.638  19.535  0.00  0.00    +0.000 HD
ATOM      9  H   UNL     1       4.607   0.821  19.405  0.00  0.00    +0.000 HD
ENDROOT
BRANCH   1  10
ATOM     10  C   UNL     1       1.183   4.466  20.420  0.00  0.00    +0.000 C 
BRANCH  10  11
ATOM     11  N   UNL     1       0.387   3.254  20.276  0.00  0.00    +0.000 NA
ATOM     12  H   UNL     1       0.958   2.450  20.531  0.00  0.00    +0.000 HD
ATOM     13  H   UNL     1       0.146   3.132  19.293  0.00  0.00    +0.000 HD
ENDBRANCH  10  11
ENDBRANCH   1  10
TORSDOF 2
ENDMDL
MODEL 4
REMARK VINA RESULT:      -4.6      3.056      4.854
REMARK  Name = 
REMARK  2 active torsions:
REMARK  status: ('A' for Active; 'I' for Inactive)
REMARK    1  A    between atoms: N_1  and  C_2
REMARK    2  A    between atoms: C_2  and  C_3
REMARK                            x       y       z     vdW  Elec       q    Type
REMARK                         _______ _______ _______ _____ _____    ______ ____
ROOT
ATOM      1  C   UNL     1       6.252   3.653  12.613  0.00  0.00    +0.000 A 
ATOM      2  C   UNL     1       7.245   4.412  11.989  0.00  0.00    +0.000 A 
ATOM      3  C   UNL     1       7.977   5.302  12.757  0.00  0.00    +0.000 A 
ATOM      4  N   UNL     1       7.791   5.487  14.082  0.00  0.00    +0.000 NA
ATOM      5  C   UNL     1       6.835   4.754  14.674  0.00  0.00    +0.000 A 
ATOM      6  N   UNL     1       6.623   4.986  16.030  0.00  0.00    +0.000 N 
ATOM      7  C   UNL     1       6.046   3.841  13.985  0.00  0.00    +0.000 A 
ATOM      8  H   UNL     1       7.342   5.641  16.327  0.00  0.00    +0.000 HD
ATOM      9  H   UNL     1       6.648   4.126  16.566  0.00  0.00    +0.000 HD
ENDROOT
BRANCH   1  10
ATOM     10  C   UNL     1       5.408   2.687  11.830  0.00  0.00    +0.000 C 
BRANCH  10  11
ATOM     11  N   UNL     1       6.150   1.477  11.499  0.00  0.00    +0.000 NA
ATOM     12  H   UNL     1       5.519   0.679  11.540  0.00  0.00    +0.000 HD
ATOM     13  H   UNL     1       6.858   1.318  12.215  0.00  0.00    +0.000 HD
ENDBRANCH  10  11
ENDBRANCH   1  10
TORSDOF 2
ENDMDL
MODEL 5
REMARK VINA RESULT:      -4.6      1.425      3.450
REMARK  Name = 
REMARK  2 active torsions:
REMARK  status: ('A' for Active; 'I' for Inactive)
REMARK    1  A    between atoms: N_1  and  C_2
REMARK    2  A    between atoms: C_2  and  C_3
REMARK                            x       y       z     vdW  Elec       q    Type
REMARK                         _______ _______ _______ _____ _____    ______ ____
ROOT
ATOM      1  C   UNL     1       6.863   5.108  18.159  0.00  0.00    +0.000 A 
ATOM      2  C   UNL     1       5.619   4.803  18.716  0.00  0.00    +0.000 A 
ATOM      3  C   UNL     1       4.697   4.121  17.938  0.00  0.00    +0.000 A 
ATOM      4  N   UNL     1       4.925   3.729  16.665  0.00  0.00    +0.000 NA
ATOM      5  C   UNL     1       6.124   4.027  16.139  0.00  0.00    +0.000 A 
ATOM      6  N   UNL     1       6.330   3.657  14.813  0.00  0.00    +0.000 N 
ATOM      7  C   UNL     1       7.108   4.713  16.840  0.00  0.00    +0.000 A 
ATOM      8  H   UNL     1       5.510   3.127  14.529  0.00  0.00    +0.000 HD
ATOM      9  H   UNL     1       7.184   3.123  14.700  0.00  0.00    +0.000 HD
ENDROOT
BRANCH   1  10
ATOM     10  C   UNL     1       7.897   5.866  18.945  0.00  0.00    +0.000 C 
BRANCH  10  11
ATOM     11  N   UNL     1       7.944   5.423  20.332  0.00  0.00    +0.000 NA
ATOM     12  H   UNL     1       7.040   5.594  20.767  0.00  0.00    +0.000 HD
ATOM     13  H   UNL     1       8.617   5.997  20.839  0.00  0.00    +0.000 HD
ENDBRANCH  10  11
ENDBRANCH   1  10
TORSDOF 2
ENDMDL
MODEL 6
REMARK VINA RESULT:      -4.5      3.265      4.786
REMARK  Name = 
REMARK  2 active torsions:
REMARK  status: ('A' for Active; 'I' for Inactive)
REMARK    1  A    between atoms: N_1  and  C_2
REMARK    2  A    between atoms: C_2  and  C_3
REMARK                            x       y       z     vdW  Elec       q    Type
REMARK                         _______ _______ _______ _____ _____    ______ ____
ROOT
ATOM      1  C   UNL     1       6.064   3.642  12.798  0.00  0.00    +0.000 A 
ATOM      2  C   UNL     1       5.648   3.708  14.130  0.00  0.00    +0.000 A 
ATOM      3  C   UNL     1       6.333   4.545  14.995  0.00  0.00    +0.000 A 
ATOM      4  N   UNL     1       7.389   5.306  14.632  0.00  0.00    +0.000 NA
ATOM      5  C   UNL     1       7.781   5.236  13.351  0.00  0.00    +0.000 A 
ATOM      6  N   UNL     1       8.897   5.992  13.000  0.00  0.00    +0.000 N 
ATOM      7  C   UNL     1       7.160   4.421  12.412  0.00  0.00    +0.000 A 
ATOM      8  H   UNL     1       9.143   6.541  13.819  0.00  0.00    +0.000 HD
ATOM      9  H   UNL     1       8.716   6.575  12.191  0.00  0.00    +0.000 HD
ENDROOT
BRANCH   1  10
ATOM     10  C   UNL     1       5.375   2.735  11.816  0.00  0.00    +0.000 C 
BRANCH  10  11
ATOM     11  N   UNL     1       6.184   1.561  11.515  0.00  0.00    +0.000 NA
ATOM     12  H   UNL     1       7.057   1.617  12.033  0.00  0.00    +0.000 HD
ATOM     13  H   UNL     1       6.437   1.580  10.527  0.00  0.00    +0.000 HD
ENDBRANCH  10  11
ENDBRANCH   1  10
TORSDOF 2
ENDMDL
MODEL 7
REMARK VINA RESULT:      -4.5      4.279      4.732
REMARK  Name = 
REMARK  2 active torsions:
REMARK  status: ('A' for Active; 'I' for Inactive)
REMARK    1  A    between atoms: N_1  and  C_2
REMARK    2  A    between atoms: C_2  and  C_3
REMARK                            x       y       z     vdW  Elec       q    Type
REMARK                         _______ _______ _______ _____ _____    ______ ____
ROOT
ATOM      1  C   UNL     1       2.818   4.426  18.652  0.00  0.00    +0.000 A 
ATOM      2  C   UNL     1       2.138   3.615  17.739  0.00  0.00    +0.000 A 
ATOM      3  C   UNL     1       2.458   2.268  17.686  0.00  0.00    +0.000 A 
ATOM      4  N   UNL     1       3.394   1.683  18.465  0.00  0.00    +0.000 NA
ATOM      5  C   UNL     1       4.042   2.469  19.338  0.00  0.00    +0.000 A 
ATOM      6  N   UNL     1       5.034   1.863  20.104  0.00  0.00    +0.000 N 
ATOM      7  C   UNL     1       3.794   3.831  19.459  0.00  0.00    +0.000 A 
ATOM      8  H   UNL     1       4.998   0.869  19.889  0.00  0.00    +0.000 HD
ATOM      9  H   UNL     1       4.908   2.043  21.093  0.00  0.00    +0.000 HD
ENDROOT
BRANCH   1  10
ATOM     10  C   UNL     1       2.532   5.899  18.741  0.00  0.00    +0.000 C 
BRANCH  10  11
ATOM     11  N   UNL     1       2.719   6.398  20.098  0.00  0.00    +0.000 NA
ATOM     12  H   UNL     1       2.491   5.659  20.758  0.00  0.00    +0.000 HD
ATOM     13  H   UNL     1       2.050   7.149  20.268  0.00  0.00    +0.000 HD
ENDBRANCH  10  11
ENDBRANCH   1  10
TORSDOF 2
ENDMDL
MODEL 8
REMARK VINA RESULT:      -4.5      1.889      3.309
REMARK  Name = 
REMARK  2 active torsions:
REMARK  status: ('A' for Active; 'I' for Inactive)
REMARK    1  A    between atoms: N_1  and  C_2
REMARK    2  A    between atoms: C_2  and  C_3
REMARK                            x       y       z     vdW  Elec       q    Type
REMARK                         _______ _______ _______ _____ _____    ______ ____
ROOT
ATOM      1  C   UNL     1       5.201   4.433  16.821  0.00  0.00    +0.000 A 
ATOM      2  C   UNL     1       5.742   3.874  15.660  0.00  0.00    +0.000 A 
ATOM      3  C   UNL     1       6.832   4.496  15.074  0.00  0.00    +0.000 A 
ATOM      4  N   UNL     1       7.411   5.618  15.556  0.00  0.00    +0.000 NA
ATOM      5  C   UNL     1       6.885   6.147  16.672  0.00  0.00    +0.000 A 
ATOM      6  N   UNL     1       7.463   7.326  17.133  0.00  0.00    +0.000 N 
ATOM      7  C   UNL     1       5.789   5.598  17.325  0.00  0.00    +0.000 A 
ATOM      8  H   UNL     1       8.270   7.505  16.540  0.00  0.00    +0.000 HD
ATOM      9  H   UNL     1       7.718   7.262  18.112  0.00  0.00    +0.000 HD
ENDROOT
BRANCH   1  10
ATOM     10  C   UNL     1       4.003   3.818  17.490  0.00  0.00    +0.000 C 
BRANCH  10  11
ATOM     11  N   UNL     1       4.210   2.400  17.758  0.00  0.00    +0.000 NA
ATOM     12  H   UNL     1       3.719   1.854  17.053  0.00  0.00    +0.000 HD
ATOM     13  H   UNL     1       3.779   2.167  18.651  0.00  0.00    +0.000 HD
ENDBRANCH  10  11
ENDBRANCH   1  10
TORSDOF 2
ENDMDL
MODEL 9
REMARK VINA RESULT:      -4.5      3.500      4.921
REMARK  Name = 
REMARK  2 active torsions:
REMARK  status: ('A' for Active; 'I' for Inactive)
REMARK    1  A    between atoms: N_1  and  C_2
REMARK    2  A    between atoms: C_2  and  C_3
REMARK                            x       y       z     vdW  Elec       q    Type
REMARK                         _______ _______ _______ _____ _____    ______ ____
ROOT
ATOM      1  C   UNL     1       3.293   3.410  18.611  0.00  0.00    +0.000 A 
ATOM      2  C   UNL     1       2.114   3.086  17.935  0.00  0.00    +0.000 A 
ATOM      3  C   UNL     1       0.995   2.754  18.681  0.00  0.00    +0.000 A 
ATOM      4  N   UNL     1       0.970   2.721  20.032  0.00  0.00    +0.000 NA
ATOM      5  C   UNL     1       2.107   3.034  20.673  0.00  0.00    +0.000 A 
ATOM      6  N   UNL     1       2.080   2.955  22.062  0.00  0.00    +0.000 N 
ATOM      7  C   UNL     1       3.280   3.374  20.010  0.00  0.00    +0.000 A 
ATOM      8  H   UNL     1       1.118   2.747  22.322  0.00  0.00    +0.000 HD
ATOM      9  H   UNL     1       2.414   3.808  22.494  0.00  0.00    +0.000 HD
ENDROOT
BRANCH   1  10
ATOM     10  C   UNL     1       4.546   3.757  17.858  0.00  0.00    +0.000 C 
BRANCH  10  11
ATOM     11  N   UNL     1       5.713   3.753  18.731  0.00  0.00    +0.000 NA
ATOM     12  H   UNL     1       5.942   2.792  18.975  0.00  0.00    +0.000 HD
ATOM     13  H   UNL     1       5.472   4.219  19.605  0.00  0.00    +0.000 HD
ENDBRANCH  10  11
ENDBRANCH   1  10
TORSDOF 2
ENDMDL
