MODEL 1
REMARK VINA RESULT:      -7.0      0.000      0.000
REMARK  Name = 
REMARK  5 active torsions:
REMARK  status: ('A' for Active; 'I' for Inactive)
REMARK    1  A    between atoms: C_1  and  C_2
REMARK    2  A    between atoms: C_2  and  O_3
REMARK    3  A    between atoms: O_3  and  C_4
REMARK    4  A    between atoms: C_9  and  N_10
REMARK    5  A    between atoms: N_16  and  C_17
REMARK                            x       y       z     vdW  Elec       q    Type
REMARK                         _______ _______ _______ _____ _____    ______ ____
ROOT
ATOM      1  N   UNL     1       1.092   9.513  19.385  0.00  0.00    +0.000 N 
ATOM      2  C   UNL     1       1.455   8.755  20.590  0.00  0.00    +0.000 C 
ATOM      3  C   UNL     1       1.585   7.267  20.220  0.00  0.00    +0.000 C 
ATOM      4  N   UNL     1       2.510   7.039  19.100  0.00  0.00    +0.000 N 
ATOM      5  C   UNL     1       3.287   5.898  19.144  0.00  0.00    +0.000 C 
ATOM      6  O   UNL     1       3.363   5.181  20.140  0.00  0.00    +0.000 OA
ATOM      7  N   UNL     1       3.971   5.602  17.999  0.00  0.00    +0.000 N 
ATOM      8  C   UNL     1       2.243   7.887  17.922  0.00  0.00    +0.000 C 
ATOM      9  C   UNL     1       2.077   9.375  18.297  0.00  0.00    +0.000 C 
ATOM     10  H   UNL     1       4.106   6.350  17.348  0.00  0.00    +0.000 HD
ENDROOT
BRANCH   1  16
ATOM     11  C   UNL     1      -0.880  10.787  18.529  0.00  0.00    +0.000 A 
ATOM     12  C   UNL     1      -1.698  11.930  18.655  0.00  0.00    +0.000 A 
ATOM     13  C   UNL     1      -1.396  12.936  19.565  0.00  0.00    +0.000 A 
ATOM     14  C   UNL     1      -0.292  12.798  20.387  0.00  0.00    +0.000 A 
ATOM     15  C   UNL     1       0.486  11.641  20.310  0.00  0.00    +0.000 A 
ATOM     16  C   UNL     1       0.218  10.593  19.401  0.00  0.00    +0.000 A 
BRANCH  11  17
ATOM     17  O   UNL     1      -1.167   9.822  17.585  0.00  0.00    +0.000 OA
BRANCH  17  19
ATOM     18  C   UNL     1      -2.599  10.055  15.664  0.00  0.00    +0.000 C 
ATOM     19  C   UNL     1      -2.533   9.778  17.155  0.00  0.00    +0.000 C 
ENDBRANCH  17  19
ENDBRANCH  11  17
ENDBRANCH   1  16
BRANCH   7  20
ATOM     20  C   UNL     1       4.970   4.539  17.938  0.00  0.00    +0.000 C 
ATOM     21  C   UNL     1       4.967   3.897  16.546  0.00  0.00    +0.000 C 
ATOM     22  C   UNL     1       5.481   4.850  15.461  0.00  0.00    +0.000 C 
ATOM     23  C   UNL     1       6.852   5.421  15.812  0.00  0.00    +0.000 C 
ATOM     24  C   UNL     1       6.887   6.043  17.203  0.00  0.00    +0.000 C 
ATOM     25  C   UNL     1       6.368   5.081  18.274  0.00  0.00    +0.000 C 
ENDBRANCH   7  20
TORSDOF 4
ENDMDL
MODEL 2
REMARK VINA RESULT:      -6.9      1.298      2.322
REMARK  Name = 
REMARK  5 active torsions:
REMARK  status: ('A' for Active; 'I' for Inactive)
REMARK    1  A    between atoms: C_1  and  C_2
REMARK    2  A    between atoms: C_2  and  O_3
REMARK    3  A    between atoms: O_3  and  C_4
REMARK    4  A    between atoms: C_9  and  N_10
REMARK    5  A    between atoms: N_16  and  C_17
REMARK                            x       y       z     vdW  Elec       q    Type
REMARK                         _______ _______ _______ _____ _____    ______ ____
ROOT
ATOM      1  N   UNL     1       1.094   9.434  19.159  0.00  0.00    +0.000 N 
ATOM      2  C   UNL     1       1.480   8.737  20.394  0.00  0.00    +0.000 C 
ATOM      3  C   UNL     1       1.682   7.245  20.082  0.00  0.00    +0.000 C 
ATOM      4  N   UNL     1       2.627   7.019  18.978  0.00  0.00    +0.000 N 
ATOM      5  C   UNL     1       3.457   5.918  19.071  0.00  0.00    +0.000 C 
ATOM      6  O   UNL     1       3.555   5.243  20.094  0.00  0.00    +0.000 OA
ATOM      7  N   UNL     1       4.165   5.612  17.943  0.00  0.00    +0.000 N 
ATOM      8  C   UNL     1       2.333   7.810  17.767  0.00  0.00    +0.000 C 
ATOM      9  C   UNL     1       2.095   9.301  18.085  0.00  0.00    +0.000 C 
ATOM     10  H   UNL     1       4.271   6.342  17.266  0.00  0.00    +0.000 HD
ENDROOT
BRANCH   1  16
ATOM     11  C   UNL     1       0.366  11.775  19.645  0.00  0.00    +0.000 A 
ATOM     12  C   UNL     1      -0.655  12.743  19.544  0.00  0.00    +0.000 A 
ATOM     13  C   UNL     1      -1.905  12.422  19.028  0.00  0.00    +0.000 A 
ATOM     14  C   UNL     1      -2.141  11.138  18.572  0.00  0.00    +0.000 A 
ATOM     15  C   UNL     1      -1.115  10.191  18.612  0.00  0.00    +0.000 A 
ATOM     16  C   UNL     1       0.170  10.471  19.128  0.00  0.00    +0.000 A 
BRANCH  11  17
ATOM     17  O   UNL     1       1.584  12.098  20.206  0.00  0.00    +0.000 OA
BRANCH  17  19
ATOM     18  C   UNL     1       2.691  12.997  18.267  0.00  0.00    +0.000 C 
ATOM     19  C   UNL     1       2.205  13.277  19.678  0.00  0.00    +0.000 C 
ENDBRANCH  17  19
ENDBRANCH  11  17
ENDBRANCH   1  16
BRANCH   7  20
ATOM     20  C   UNL     1       5.212   4.596  17.931  0.00  0.00    +0.000 C 
ATOM     21  C   UNL     1       5.098   3.742  16.663  0.00  0.00    +0.000 C 
ATOM     22  C   UNL     1       5.435   4.532  15.393  0.00  0.00    +0.000 C 
ATOM     23  C   UNL     1       6.799   5.208  15.493  0.00  0.00    +0.000 C 
ATOM     24  C   UNL     1       6.947   6.043  16.759  0.00  0.00    +0.000 C 
ATOM     25  C   UNL     1       6.604   5.242  18.017  0.00  0.00    +0.000 C 
ENDBRANCH   7  20
TORSDOF 4
ENDMDL
MODEL 3
REMARK VINA RESULT:      -6.8      2.263      3.447
REMARK  Name = 
REMARK  5 active torsions:
REMARK  status: ('A' for Active; 'I' for Inactive)
REMARK    1  A    between atoms: C_1  and  C_2
REMARK    2  A    between atoms: C_2  and  O_3
REMARK    3  A    between atoms: O_3  and  C_4
REMARK    4  A    between atoms: C_9  and  N_10
REMARK    5  A    between atoms: N_16  and  C_17
REMARK                            x       y       z     vdW  Elec       q    Type
REMARK                         _______ _______ _______ _____ _____    ______ ____
ROOT
ATOM      1  N   UNL     1       0.966  10.146  19.245  0.00  0.00    +0.000 N 
ATOM      2  C   UNL     1       1.279   9.660  17.894  0.00  0.00    +0.000 C 
ATOM      3  C   UNL     1       2.475   8.697  17.976  0.00  0.00    +0.000 C 
ATOM      4  N   UNL     1       2.261   7.608  18.941  0.00  0.00    +0.000 N 
ATOM      5  C   UNL     1       2.773   6.366  18.617  0.00  0.00    +0.000 C 
ATOM      6  O   UNL     1       3.230   6.103  17.506  0.00  0.00    +0.000 OA
ATOM      7  N   UNL     1       2.751   5.436  19.617  0.00  0.00    +0.000 N 
ATOM      8  C   UNL     1       1.819   8.066  20.272  0.00  0.00    +0.000 C 
ATOM      9  C   UNL     1       0.642   9.061  20.188  0.00  0.00    +0.000 C 
ATOM     10  H   UNL     1       2.119   5.604  20.375  0.00  0.00    +0.000 HD
ENDROOT
BRANCH   1  16
ATOM     11  C   UNL     1      -0.752  11.959  19.314  0.00  0.00    +0.000 A 
ATOM     12  C   UNL     1      -1.045  13.304  19.628  0.00  0.00    +0.000 A 
ATOM     13  C   UNL     1      -0.049  14.181  20.041  0.00  0.00    +0.000 A 
ATOM     14  C   UNL     1       1.247  13.718  20.181  0.00  0.00    +0.000 A 
ATOM     15  C   UNL     1       1.532  12.374  19.931  0.00  0.00    +0.000 A 
ATOM     16  C   UNL     1       0.553  11.447  19.509  0.00  0.00    +0.000 A 
BRANCH  11  17
ATOM     17  O   UNL     1      -1.744  11.116  18.857  0.00  0.00    +0.000 OA
BRANCH  17  19
ATOM     18  C   UNL     1      -2.213  10.108  16.723  0.00  0.00    +0.000 C 
ATOM     19  C   UNL     1      -2.215  11.391  17.532  0.00  0.00    +0.000 C 
ENDBRANCH  17  19
ENDBRANCH  11  17
ENDBRANCH   1  16
BRANCH   7  20
ATOM     20  C   UNL     1       3.085   4.034  19.387  0.00  0.00    +0.000 C 
ATOM     21  C   UNL     1       3.513   3.376  20.704  0.00  0.00    +0.000 C 
ATOM     22  C   UNL     1       2.354   3.245  21.697  0.00  0.00    +0.000 C 
ATOM     23  C   UNL     1       1.156   2.532  21.078  0.00  0.00    +0.000 C 
ATOM     24  C   UNL     1       0.726   3.153  19.754  0.00  0.00    +0.000 C 
ATOM     25  C   UNL     1       1.896   3.279  18.774  0.00  0.00    +0.000 C 
ENDBRANCH   7  20
TORSDOF 4
ENDMDL
MODEL 4
REMARK VINA RESULT:      -6.7      1.339      2.487
REMARK  Name = 
REMARK  5 active torsions:
REMARK  status: ('A' for Active; 'I' for Inactive)
REMARK    1  A    between atoms: C_1  and  C_2
REMARK    2  A    between atoms: C_2  and  O_3
REMARK    3  A    between atoms: O_3  and  C_4
REMARK    4  A    between atoms: C_9  and  N_10
REMARK    5  A    between atoms: N_16  and  C_17
REMARK                            x       y       z     vdW  Elec       q    Type
REMARK                         _______ _______ _______ _____ _____    ______ ____
ROOT
ATOM      1  N   UNL     1       0.986   9.207  19.220  0.00  0.00    +0.000 N 
ATOM      2  C   UNL     1       1.445   8.537  20.445  0.00  0.00    +0.000 C 
ATOM      3  C   UNL     1       1.707   7.054  20.133  0.00  0.00    +0.000 C 
ATOM      4  N   UNL     1       2.626   6.866  19.001  0.00  0.00    +0.000 N 
ATOM      5  C   UNL     1       3.510   5.806  19.071  0.00  0.00    +0.000 C 
ATOM      6  O   UNL     1       3.673   5.143  20.093  0.00  0.00    +0.000 OA
ATOM      7  N   UNL     1       4.195   5.528  17.922  0.00  0.00    +0.000 N 
ATOM      8  C   UNL     1       2.256   7.635  17.796  0.00  0.00    +0.000 C 
ATOM      9  C   UNL     1       1.958   9.115  18.115  0.00  0.00    +0.000 C 
ATOM     10  H   UNL     1       4.244   6.257  17.239  0.00  0.00    +0.000 HD
ENDROOT
BRANCH   1  16
ATOM     11  C   UNL     1      -0.348  11.015  20.314  0.00  0.00    +0.000 A 
ATOM     12  C   UNL     1      -1.353  11.995  20.174  0.00  0.00    +0.000 A 
ATOM     13  C   UNL     1      -2.078  12.122  18.995  0.00  0.00    +0.000 A 
ATOM     14  C   UNL     1      -1.784  11.295  17.926  0.00  0.00    +0.000 A 
ATOM     15  C   UNL     1      -0.748  10.364  18.036  0.00  0.00    +0.000 A 
ATOM     16  C   UNL     1       0.014  10.199  19.215  0.00  0.00    +0.000 A 
BRANCH  11  17
ATOM     17  O   UNL     1       0.326  10.869  21.509  0.00  0.00    +0.000 OA
BRANCH  17  19
ATOM     18  C   UNL     1      -0.199   9.511  23.425  0.00  0.00    +0.000 C 
ATOM     19  C   UNL     1      -0.506  10.793  22.672  0.00  0.00    +0.000 C 
ENDBRANCH  17  19
ENDBRANCH  11  17
ENDBRANCH   1  16
BRANCH   7  20
ATOM     20  C   UNL     1       5.288   4.562  17.880  0.00  0.00    +0.000 C 
ATOM     21  C   UNL     1       5.242   3.776  16.564  0.00  0.00    +0.000 C 
ATOM     22  C   UNL     1       5.570   4.650  15.349  0.00  0.00    +0.000 C 
ATOM     23  C   UNL     1       6.899   5.380  15.519  0.00  0.00    +0.000 C 
ATOM     24  C   UNL     1       6.979   6.149  16.832  0.00  0.00    +0.000 C 
ATOM     25  C   UNL     1       6.646   5.264  18.036  0.00  0.00    +0.000 C 
ENDBRANCH   7  20
TORSDOF 4
ENDMDL
MODEL 5
REMARK VINA RESULT:      -6.6      0.771      1.104
REMARK  Name = 
REMARK  5 active torsions:
REMARK  status: ('A' for Active; 'I' for Inactive)
REMARK    1  A    between atoms: C_1  and  C_2
REMARK    2  A    between atoms: C_2  and  O_3
REMARK    3  A    between atoms: O_3  and  C_4
REMARK    4  A    between atoms: C_9  and  N_10
REMARK    5  A    between atoms: N_16  and  C_17
REMARK                            x       y       z     vdW  Elec       q    Type
REMARK                         _______ _______ _______ _____ _____    ______ ____
ROOT
ATOM      1  N   UNL     1       0.601   9.634  19.466  0.00  0.00    +0.000 N 
ATOM      2  C   UNL     1       1.058   8.848  20.621  0.00  0.00    +0.000 C 
ATOM      3  C   UNL     1       1.488   7.454  20.134  0.00  0.00    +0.000 C 
ATOM      4  N   UNL     1       2.483   7.512  19.052  0.00  0.00    +0.000 N 
ATOM      5  C   UNL     1       3.465   6.541  19.043  0.00  0.00    +0.000 C 
ATOM      6  O   UNL     1       3.640   5.761  19.977  0.00  0.00    +0.000 OA
ATOM      7  N   UNL     1       4.237   6.489  17.917  0.00  0.00    +0.000 N 
ATOM      8  C   UNL     1       2.102   8.401  17.937  0.00  0.00    +0.000 C 
ATOM      9  C   UNL     1       1.635   9.788  18.427  0.00  0.00    +0.000 C 
ATOM     10  H   UNL     1       4.249   7.308  17.340  0.00  0.00    +0.000 HD
ENDROOT
BRANCH   1  16
ATOM     11  C   UNL     1      -1.474  10.676  18.541  0.00  0.00    +0.000 A 
ATOM     12  C   UNL     1      -2.512  11.615  18.725  0.00  0.00    +0.000 A 
ATOM     13  C   UNL     1      -2.522  12.473  19.819  0.00  0.00    +0.000 A 
ATOM     14  C   UNL     1      -1.515  12.383  20.762  0.00  0.00    +0.000 A 
ATOM     15  C   UNL     1      -0.518  11.415  20.618  0.00  0.00    +0.000 A 
ATOM     16  C   UNL     1      -0.467  10.522  19.524  0.00  0.00    +0.000 A 
BRANCH  11  17
ATOM     17  O   UNL     1      -1.453   9.867  17.425  0.00  0.00    +0.000 OA
BRANCH  17  19
ATOM     18  C   UNL     1      -2.686  10.290  15.401  0.00  0.00    +0.000 C 
ATOM     19  C   UNL     1      -2.722   9.674  16.788  0.00  0.00    +0.000 C 
ENDBRANCH  17  19
ENDBRANCH  11  17
ENDBRANCH   1  16
BRANCH   7  20
ATOM     20  C   UNL     1       5.425   5.647  17.823  0.00  0.00    +0.000 C 
ATOM     21  C   UNL     1       5.014   4.174  17.707  0.00  0.00    +0.000 C 
ATOM     22  C   UNL     1       4.323   3.863  16.375  0.00  0.00    +0.000 C 
ATOM     23  C   UNL     1       5.167   4.305  15.183  0.00  0.00    +0.000 C 
ATOM     24  C   UNL     1       5.609   5.759  15.287  0.00  0.00    +0.000 C 
ATOM     25  C   UNL     1       6.294   6.055  16.624  0.00  0.00    +0.000 C 
ENDBRANCH   7  20
TORSDOF 4
ENDMDL
MODEL 6
REMARK VINA RESULT:      -6.6      2.016      8.533
REMARK  Name = 
REMARK  5 active torsions:
REMARK  status: ('A' for Active; 'I' for Inactive)
REMARK    1  A    between atoms: C_1  and  C_2
REMARK    2  A    between atoms: C_2  and  O_3
REMARK    3  A    between atoms: O_3  and  C_4
REMARK    4  A    between atoms: C_9  and  N_10
REMARK    5  A    between atoms: N_16  and  C_17
REMARK                            x       y       z     vdW  Elec       q    Type
REMARK                         _______ _______ _______ _____ _____    ______ ____
ROOT
ATOM      1  N   UNL     1       2.465   6.977  18.779  0.00  0.00    +0.000 N 
ATOM      2  C   UNL     1       2.898   8.099  17.935  0.00  0.00    +0.000 C 
ATOM      3  C   UNL     1       1.758   9.129  17.852  0.00  0.00    +0.000 C 
ATOM      4  N   UNL     1       1.286   9.559  19.177  0.00  0.00    +0.000 N 
ATOM      5  C   UNL     1       0.906  10.881  19.315  0.00  0.00    +0.000 C 
ATOM      6  O   UNL     1       1.112  11.726  18.447  0.00  0.00    +0.000 OA
ATOM      7  N   UNL     1       0.272  11.196  20.483  0.00  0.00    +0.000 N 
ATOM      8  C   UNL     1       0.967   8.444  20.090  0.00  0.00    +0.000 C 
ATOM      9  C   UNL     1       2.096   7.392  20.145  0.00  0.00    +0.000 C 
ATOM     10  H   UNL     1       0.396  10.563  21.249  0.00  0.00    +0.000 HD
ENDROOT
BRANCH   1  16
ATOM     11  C   UNL     1       4.071   5.063  18.734  0.00  0.00    +0.000 A 
ATOM     12  C   UNL     1       4.283   3.701  18.431  0.00  0.00    +0.000 A 
ATOM     13  C   UNL     1       3.293   2.934  17.829  0.00  0.00    +0.000 A 
ATOM     14  C   UNL     1       2.065   3.506  17.553  0.00  0.00    +0.000 A 
ATOM     15  C   UNL     1       1.827   4.837  17.906  0.00  0.00    +0.000 A 
ATOM     16  C   UNL     1       2.803   5.655  18.519  0.00  0.00    +0.000 A 
BRANCH  11  17
ATOM     17  O   UNL     1       5.082   5.823  19.286  0.00  0.00    +0.000 OA
BRANCH  17  19
ATOM     18  C   UNL     1       7.192   6.240  18.206  0.00  0.00    +0.000 C 
ATOM     19  C   UNL     1       6.404   5.303  19.102  0.00  0.00    +0.000 C 
ENDBRANCH  17  19
ENDBRANCH  11  17
ENDBRANCH   1  16
BRANCH   7  20
ATOM     20  C   UNL     1      -0.030  12.574  20.860  0.00  0.00    +0.000 C 
ATOM     21  C   UNL     1      -1.152  13.125  19.972  0.00  0.00    +0.000 C 
ATOM     22  C   UNL     1      -2.498  12.442  20.238  0.00  0.00    +0.000 C 
ATOM     23  C   UNL     1      -2.876  12.493  21.715  0.00  0.00    +0.000 C 
ATOM     24  C   UNL     1      -1.766  11.974  22.621  0.00  0.00    +0.000 C 
ATOM     25  C   UNL     1      -0.429  12.663  22.341  0.00  0.00    +0.000 C 
ENDBRANCH   7  20
TORSDOF 4
ENDMDL
MODEL 7
REMARK VINA RESULT:      -6.6      3.011      4.472
REMARK  Name = 
REMARK  5 active torsions:
REMARK  status: ('A' for Active; 'I' for Inactive)
REMARK    1  A    between atoms: C_1  and  C_2
REMARK    2  A    between atoms: C_2  and  O_3
REMARK    3  A    between atoms: O_3  and  C_4
REMARK    4  A    between atoms: C_9  and  N_10
REMARK    5  A    between atoms: N_16  and  C_17
REMARK                            x       y       z     vdW  Elec       q    Type
REMARK                         _______ _______ _______ _____ _____    ______ ____
ROOT
ATOM      1  N   UNL     1       0.011  10.475  21.185  0.00  0.00    +0.000 N 
ATOM      2  C   UNL     1       0.082  10.326  19.724  0.00  0.00    +0.000 C 
ATOM      3  C   UNL     1       1.375   9.574  19.364  0.00  0.00    +0.000 C 
ATOM      4  N   UNL     1       1.505   8.295  20.077  0.00  0.00    +0.000 N 
ATOM      5  C   UNL     1       2.080   7.243  19.390  0.00  0.00    +0.000 C 
ATOM      6  O   UNL     1       2.316   7.285  18.184  0.00  0.00    +0.000 OA
ATOM      7  N   UNL     1       2.385   6.142  20.139  0.00  0.00    +0.000 N 
ATOM      8  C   UNL     1       1.307   8.400  21.536  0.00  0.00    +0.000 C 
ATOM      9  C   UNL     1       0.028   9.186  21.898  0.00  0.00    +0.000 C 
ATOM     10  H   UNL     1       1.914   6.050  21.018  0.00  0.00    +0.000 HD
ENDROOT
BRANCH   1  16
ATOM     11  C   UNL     1       0.138  12.880  21.853  0.00  0.00    +0.000 A 
ATOM     12  C   UNL     1      -0.482  13.959  22.520  0.00  0.00    +0.000 A 
ATOM     13  C   UNL     1      -1.666  13.786  23.227  0.00  0.00    +0.000 A 
ATOM     14  C   UNL     1      -2.267  12.541  23.249  0.00  0.00    +0.000 A 
ATOM     15  C   UNL     1      -1.692  11.483  22.541  0.00  0.00    +0.000 A 
ATOM     16  C   UNL     1      -0.490  11.612  21.809  0.00  0.00    +0.000 A 
BRANCH  11  17
ATOM     17  O   UNL     1       1.339  13.059  21.199  0.00  0.00    +0.000 OA
BRANCH  17  19
ATOM     18  C   UNL     1       0.609  13.977  19.097  0.00  0.00    +0.000 C 
ATOM     19  C   UNL     1       1.410  14.220  20.363  0.00  0.00    +0.000 C 
ENDBRANCH  17  19
ENDBRANCH  11  17
ENDBRANCH   1  16
BRANCH   7  20
ATOM     20  C   UNL     1       2.827   4.887  19.538  0.00  0.00    +0.000 C 
ATOM     21  C   UNL     1       3.479   3.998  20.604  0.00  0.00    +0.000 C 
ATOM     22  C   UNL     1       2.471   3.491  21.641  0.00  0.00    +0.000 C 
ATOM     23  C   UNL     1       1.283   2.797  20.981  0.00  0.00    +0.000 C 
ATOM     24  C   UNL     1       0.633   3.651  19.900  0.00  0.00    +0.000 C 
ATOM     25  C   UNL     1       1.653   4.152  18.875  0.00  0.00    +0.000 C 
ENDBRANCH   7  20
TORSDOF 4
ENDMDL
MODEL 8
REMARK VINA RESULT:      -6.6      1.435      2.634
REMARK  Name = 
REMARK  5 active torsions:
REMARK  status: ('A' for Active; 'I' for Inactive)
REMARK    1  A    between atoms: C_1  and  C_2
REMARK    2  A    between atoms: C_2  and  O_3
REMARK    3  A    between atoms: O_3  and  C_4
REMARK    4  A    between atoms: C_9  and  N_10
REMARK    5  A    between atoms: N_16  and  C_17
REMARK                            x       y       z     vdW  Elec       q    Type
REMARK                         _______ _______ _______ _____ _____    ______ ____
ROOT
ATOM      1  N   UNL     1       0.617   9.527  19.172  0.00  0.00    +0.000 N 
ATOM      2  C   UNL     1       1.082   8.824  20.376  0.00  0.00    +0.000 C 
ATOM      3  C   UNL     1       1.562   7.418  19.977  0.00  0.00    +0.000 C 
ATOM      4  N   UNL     1       2.568   7.445  18.906  0.00  0.00    +0.000 N 
ATOM      5  C   UNL     1       3.580   6.506  18.964  0.00  0.00    +0.000 C 
ATOM      6  O   UNL     1       3.766   5.787  19.945  0.00  0.00    +0.000 OA
ATOM      7  N   UNL     1       4.369   6.413  17.853  0.00  0.00    +0.000 N 
ATOM      8  C   UNL     1       2.176   8.255  17.736  0.00  0.00    +0.000 C 
ATOM      9  C   UNL     1       1.661   9.653  18.138  0.00  0.00    +0.000 C 
ATOM     10  H   UNL     1       4.363   7.196  17.230  0.00  0.00    +0.000 HD
ENDROOT
BRANCH   1  16
ATOM     11  C   UNL     1      -0.801  11.326  20.171  0.00  0.00    +0.000 A 
ATOM     12  C   UNL     1      -1.944  12.143  20.041  0.00  0.00    +0.000 A 
ATOM     13  C   UNL     1      -2.831  11.979  18.983  0.00  0.00    +0.000 A 
ATOM     14  C   UNL     1      -2.569  11.022  18.020  0.00  0.00    +0.000 A 
ATOM     15  C   UNL     1      -1.407  10.252  18.109  0.00  0.00    +0.000 A 
ATOM     16  C   UNL     1      -0.478  10.383  19.166  0.00  0.00    +0.000 A 
BRANCH  11  17
ATOM     17  O   UNL     1       0.041  11.469  21.254  0.00  0.00    +0.000 OA
BRANCH  17  19
ATOM     18  C   UNL     1      -0.859  10.243  23.120  0.00  0.00    +0.000 C 
ATOM     19  C   UNL     1      -0.614  11.616  22.520  0.00  0.00    +0.000 C 
ENDBRANCH  17  19
ENDBRANCH  11  17
ENDBRANCH   1  16
BRANCH   7  20
ATOM     20  C   UNL     1       5.583   5.604  17.822  0.00  0.00    +0.000 C 
ATOM     21  C   UNL     1       5.219   4.117  17.731  0.00  0.00    +0.000 C 
ATOM     22  C   UNL     1       4.585   3.752  16.385  0.00  0.00    +0.000 C 
ATOM     23  C   UNL     1       5.457   4.188  15.211  0.00  0.00    +0.000 C 
ATOM     24  C   UNL     1       5.853   5.658  15.293  0.00  0.00    +0.000 C 
ATOM     25  C   UNL     1       6.482   6.008  16.644  0.00  0.00    +0.000 C 
ENDBRANCH   7  20
TORSDOF 4
ENDMDL
MODEL 9
REMARK VINA RESULT:      -6.5      2.697      4.018
REMARK  Name = 
REMARK  5 active torsions:
REMARK  status: ('A' for Active; 'I' for Inactive)
REMARK    1  A    between atoms: C_1  and  C_2
REMARK    2  A    between atoms: C_2  and  O_3
REMARK    3  A    between atoms: O_3  and  C_4
REMARK    4  A    between atoms: C_9  and  N_10
REMARK    5  A    between atoms: N_16  and  C_17
REMARK                            x       y       z     vdW  Elec       q    Type
REMARK                         _______ _______ _______ _____ _____    ______ ____
ROOT
ATOM      1  N   UNL     1       0.418  10.340  19.627  0.00  0.00    +0.000 N 
ATOM      2  C   UNL     1       0.895   9.949  18.292  0.00  0.00    +0.000 C 
ATOM      3  C   UNL     1       2.185   9.125  18.447  0.00  0.00    +0.000 C 
ATOM      4  N   UNL     1       2.022   7.980  19.355  0.00  0.00    +0.000 N 
ATOM      5  C   UNL     1       2.701   6.819  19.038  0.00  0.00    +0.000 C 
ATOM      6  O   UNL     1       3.274   6.656  17.963  0.00  0.00    +0.000 OA
ATOM      7  N   UNL     1       2.706   5.853  20.004  0.00  0.00    +0.000 N 
ATOM      8  C   UNL     1       1.422   8.330  20.658  0.00  0.00    +0.000 C 
ATOM      9  C   UNL     1       0.147   9.187  20.504  0.00  0.00    +0.000 C 
ATOM     10  H   UNL     1       1.998   5.917  20.709  0.00  0.00    +0.000 HD
ENDROOT
BRANCH   1  16
ATOM     11  C   UNL     1       0.513  12.734  20.337  0.00  0.00    +0.000 A 
ATOM     12  C   UNL     1      -0.199  13.931  20.569  0.00  0.00    +0.000 A 
ATOM     13  C   UNL     1      -1.584  13.977  20.463  0.00  0.00    +0.000 A 
ATOM     14  C   UNL     1      -2.275  12.839  20.091  0.00  0.00    +0.000 A 
ATOM     15  C   UNL     1      -1.572  11.667  19.801  0.00  0.00    +0.000 A 
ATOM     16  C   UNL     1      -0.165  11.573  19.894  0.00  0.00    +0.000 A 
BRANCH  11  17
ATOM     17  O   UNL     1       1.883  12.694  20.495  0.00  0.00    +0.000 OA
BRANCH  17  19
ATOM     18  C   UNL     1       2.748  13.186  18.303  0.00  0.00    +0.000 C 
ATOM     19  C   UNL     1       2.612  13.667  19.737  0.00  0.00    +0.000 C 
ENDBRANCH  17  19
ENDBRANCH  11  17
ENDBRANCH   1  16
BRANCH   7  20
ATOM     20  C   UNL     1       3.219   4.509  19.760  0.00  0.00    +0.000 C 
ATOM     21  C   UNL     1       2.776   3.567  20.885  0.00  0.00    +0.000 C 
ATOM     22  C   UNL     1       1.264   3.313  20.874  0.00  0.00    +0.000 C 
ATOM     23  C   UNL     1       0.782   2.825  19.512  0.00  0.00    +0.000 C 
ATOM     24  C   UNL     1       1.232   3.732  18.373  0.00  0.00    +0.000 C 
ATOM     25  C   UNL     1       2.743   3.978  18.399  0.00  0.00    +0.000 C 
ENDBRANCH   7  20
TORSDOF 4
ENDMDL
