MODEL 1
REMARK VINA RESULT:      -6.4      0.000      0.000
REMARK  Name = 
REMARK  6 active torsions:
REMARK  status: ('A' for Active; 'I' for Inactive)
REMARK    1  A    between atoms: C_2  and  C_3
REMARK    2  A    between atoms: C_7  and  N_8
REMARK    3  A    between atoms: C_9  and  C_11
REMARK    4  A    between atoms: C_11  and  P_12
REMARK    5  A    between atoms: P_12  and  O_14
REMARK    6  A    between atoms: P_12  and  O_15
REMARK                            x       y       z     vdW  Elec       q    Type
REMARK                         _______ _______ _______ _____ _____    ______ ____
ROOT
ATOM      1  N   UNL     1       4.869   4.903  17.957  0.00  0.00    +0.000 N 
ATOM      2  C   UNL     1       6.220   4.873  18.242  0.00  0.00    +0.000 C 
ATOM      3  O   UNL     1       6.717   5.069  19.353  0.00  0.00    +0.000 OA
ATOM      4  H   UNL     1       4.567   4.645  17.014  0.00  0.00    +0.000 HD
ENDROOT
BRANCH   1   9
ATOM      5  C   UNL     1       2.345   4.364  20.611  0.00  0.00    +0.000 A 
ATOM      6  C   UNL     1       1.724   5.613  20.686  0.00  0.00    +0.000 A 
ATOM      7  C   UNL     1       2.138   6.644  19.846  0.00  0.00    +0.000 A 
ATOM      8  C   UNL     1       3.172   6.430  18.928  0.00  0.00    +0.000 A 
ATOM      9  C   UNL     1       3.810   5.192  18.847  0.00  0.00    +0.000 A 
ATOM     10  C   UNL     1       3.389   4.158  19.697  0.00  0.00    +0.000 A 
BRANCH   5  12
ATOM     11  N   UNL     1       1.554   2.434  22.155  0.00  0.00    +0.000 NA
ATOM     12  C   UNL     1       1.911   3.297  21.465  0.00  0.00    +0.000 C 
ENDBRANCH   5  12
ENDBRANCH   1   9
BRANCH   2  13
ATOM     13  C   UNL     1       7.151   4.563  17.101  0.00  0.00    +0.000 C 
BRANCH  13  14
ATOM     14  P   UNL     1       6.666   5.082  15.492  0.00  0.00    +0.000 P 
ATOM     15  O   UNL     1       7.780   5.312  14.523  0.00  0.00    +0.000 OA
BRANCH  14  16
ATOM     16  O   UNL     1       5.594   4.016  14.967  0.00  0.00    +0.000 OA
ATOM     17  H   UNL     1       4.901   3.744  15.599  0.00  0.00    +0.000 HD
ENDBRANCH  14  16
BRANCH  14  18
ATOM     18  O   UNL     1       5.723   6.359  15.685  0.00  0.00    +0.000 OA
ATOM     19  H   UNL     1       5.829   6.998  14.951  0.00  0.00    +0.000 HD
ENDBRANCH  14  18
ENDBRANCH  13  14
ENDBRANCH   2  13
TORSDOF 6
ENDMDL
MODEL 2
REMARK VINA RESULT:      -6.4      0.234      1.033
REMARK  Name = 
REMARK  6 active torsions:
REMARK  status: ('A' for Active; 'I' for Inactive)
REMARK    1  A    between atoms: C_2  and  C_3
REMARK    2  A    between atoms: C_7  and  N_8
REMARK    3  A    between atoms: C_9  and  C_11
REMARK    4  A    between atoms: C_11  and  P_12
REMARK    5  A    between atoms: P_12  and  O_14
REMARK    6  A    between atoms: P_12  and  O_15
REMARK                            x       y       z     vdW  Elec       q    Type
REMARK                         _______ _______ _______ _____ _____    ______ ____
ROOT
ATOM      1  N   UNL     1       4.967   4.832  17.951  0.00  0.00    +0.000 N 
ATOM      2  C   UNL     1       6.318   4.868  18.233  0.00  0.00    +0.000 C 
ATOM      3  O   UNL     1       6.809   5.153  19.327  0.00  0.00    +0.000 OA
ATOM      4  H   UNL     1       4.673   4.503  17.028  0.00  0.00    +0.000 HD
ENDROOT
BRANCH   1   9
ATOM      5  C   UNL     1       2.404   4.346  20.578  0.00  0.00    +0.000 A 
ATOM      6  C   UNL     1       1.794   5.601  20.631  0.00  0.00    +0.000 A 
ATOM      7  C   UNL     1       2.229   6.619  19.785  0.00  0.00    +0.000 A 
ATOM      8  C   UNL     1       3.272   6.385  18.883  0.00  0.00    +0.000 A 
ATOM      9  C   UNL     1       3.899   5.140  18.824  0.00  0.00    +0.000 A 
ATOM     10  C   UNL     1       3.458   4.120  19.680  0.00  0.00    +0.000 A 
BRANCH   5  12
ATOM     11  N   UNL     1       1.582   2.436  22.130  0.00  0.00    +0.000 NA
ATOM     12  C   UNL     1       1.950   3.293  21.438  0.00  0.00    +0.000 C 
ENDBRANCH   5  12
ENDBRANCH   1   9
BRANCH   2  13
ATOM     13  C   UNL     1       7.259   4.518  17.111  0.00  0.00    +0.000 C 
BRANCH  13  14
ATOM     14  P   UNL     1       6.699   4.789  15.466  0.00  0.00    +0.000 P 
ATOM     15  O   UNL     1       6.114   3.599  14.777  0.00  0.00    +0.000 OA
BRANCH  14  16
ATOM     16  O   UNL     1       5.694   6.034  15.519  0.00  0.00    +0.000 OA
ATOM     17  H   UNL     1       4.740   5.828  15.505  0.00  0.00    +0.000 HD
ENDBRANCH  14  16
BRANCH  14  18
ATOM     18  O   UNL     1       7.919   5.446  14.666  0.00  0.00    +0.000 OA
ATOM     19  H   UNL     1       8.331   6.173  15.175  0.00  0.00    +0.000 HD
ENDBRANCH  14  18
ENDBRANCH  13  14
ENDBRANCH   2  13
TORSDOF 6
ENDMDL
MODEL 3
REMARK VINA RESULT:      -6.4      4.012      6.271
REMARK  Name = 
REMARK  6 active torsions:
REMARK  status: ('A' for Active; 'I' for Inactive)
REMARK    1  A    between atoms: C_2  and  C_3
REMARK    2  A    between atoms: C_7  and  N_8
REMARK    3  A    between atoms: C_9  and  C_11
REMARK    4  A    between atoms: C_11  and  P_12
REMARK    5  A    between atoms: P_12  and  O_14
REMARK    6  A    between atoms: P_12  and  O_15
REMARK                            x       y       z     vdW  Elec       q    Type
REMARK                         _______ _______ _______ _____ _____    ______ ____
ROOT
ATOM      1  N   UNL     1       3.174   4.069  18.562  0.00  0.00    +0.000 N 
ATOM      2  C   UNL     1       1.846   3.701  18.471  0.00  0.00    +0.000 C 
ATOM      3  O   UNL     1       1.094   3.979  17.536  0.00  0.00    +0.000 OA
ATOM      4  H   UNL     1       3.723   3.712  19.348  0.00  0.00    +0.000 HD
ENDROOT
BRANCH   1   9
ATOM      5  C   UNL     1       5.217   4.882  15.583  0.00  0.00    +0.000 A 
ATOM      6  C   UNL     1       5.400   6.259  15.718  0.00  0.00    +0.000 A 
ATOM      7  C   UNL     1       4.850   6.928  16.808  0.00  0.00    +0.000 A 
ATOM      8  C   UNL     1       4.116   6.222  17.768  0.00  0.00    +0.000 A 
ATOM      9  C   UNL     1       3.914   4.848  17.643  0.00  0.00    +0.000 A 
ATOM     10  C   UNL     1       4.470   4.181  16.541  0.00  0.00    +0.000 A 
BRANCH   5  12
ATOM     11  N   UNL     1       6.262   3.633  13.562  0.00  0.00    +0.000 NA
ATOM     12  C   UNL     1       5.793   4.189  14.469  0.00  0.00    +0.000 C 
ENDBRANCH   5  12
ENDBRANCH   1   9
BRANCH   2  13
ATOM     13  C   UNL     1       1.285   2.886  19.605  0.00  0.00    +0.000 C 
BRANCH  13  14
ATOM     14  P   UNL     1       2.055   3.045  21.179  0.00  0.00    +0.000 P 
ATOM     15  O   UNL     1       1.313   2.440  22.326  0.00  0.00    +0.000 OA
BRANCH  14  16
ATOM     16  O   UNL     1       3.541   2.472  21.027  0.00  0.00    +0.000 OA
ATOM     17  H   UNL     1       3.627   1.568  20.668  0.00  0.00    +0.000 HD
ENDBRANCH  14  16
BRANCH  14  18
ATOM     18  O   UNL     1       2.372   4.600  21.382  0.00  0.00    +0.000 OA
ATOM     19  H   UNL     1       1.807   5.159  20.812  0.00  0.00    +0.000 HD
ENDBRANCH  14  18
ENDBRANCH  13  14
ENDBRANCH   2  13
TORSDOF 6
ENDMDL
MODEL 4
REMARK VINA RESULT:      -6.3      3.990      6.214
REMARK  Name = 
REMARK  6 active torsions:
REMARK  status: ('A' for Active; 'I' for Inactive)
REMARK    1  A    between atoms: C_2  and  C_3
REMARK    2  A    between atoms: C_7  and  N_8
REMARK    3  A    between atoms: C_9  and  C_11
REMARK    4  A    between atoms: C_11  and  P_12
REMARK    5  A    between atoms: P_12  and  O_14
REMARK    6  A    between atoms: P_12  and  O_15
REMARK                            x       y       z     vdW  Elec       q    Type
REMARK                         _______ _______ _______ _____ _____    ______ ____
ROOT
ATOM      1  N   UNL     1       3.333   3.928  18.329  0.00  0.00    +0.000 N 
ATOM      2  C   UNL     1       3.870   3.142  19.329  0.00  0.00    +0.000 C 
ATOM      3  O   UNL     1       5.069   3.061  19.603  0.00  0.00    +0.000 OA
ATOM      4  H   UNL     1       2.315   3.978  18.246  0.00  0.00    +0.000 HD
ENDROOT
BRANCH   1   9
ATOM      5  C   UNL     1       5.323   4.873  15.353  0.00  0.00    +0.000 A 
ATOM      6  C   UNL     1       5.439   6.257  15.503  0.00  0.00    +0.000 A 
ATOM      7  C   UNL     1       4.860   6.886  16.603  0.00  0.00    +0.000 A 
ATOM      8  C   UNL     1       4.165   6.134  17.556  0.00  0.00    +0.000 A 
ATOM      9  C   UNL     1       4.031   4.753  17.417  0.00  0.00    +0.000 A 
ATOM     10  C   UNL     1       4.614   4.126  16.306  0.00  0.00    +0.000 A 
BRANCH   5  12
ATOM     11  N   UNL     1       6.415   3.696  13.315  0.00  0.00    +0.000 NA
ATOM     12  C   UNL     1       5.929   4.222  14.229  0.00  0.00    +0.000 C 
ENDBRANCH   5  12
ENDBRANCH   1   9
BRANCH   2  13
ATOM     13  C   UNL     1       2.905   2.332  20.152  0.00  0.00    +0.000 C 
BRANCH  13  14
ATOM     14  P   UNL     1       1.760   3.209  21.159  0.00  0.00    +0.000 P 
ATOM     15  O   UNL     1       1.395   2.549  22.449  0.00  0.00    +0.000 OA
BRANCH  14  16
ATOM     16  O   UNL     1       2.353   4.682  21.358  0.00  0.00    +0.000 OA
ATOM     17  H   UNL     1       3.163   4.899  20.858  0.00  0.00    +0.000 HD
ENDBRANCH  14  16
BRANCH  14  18
ATOM     18  O   UNL     1       0.494   3.538  20.237  0.00  0.00    +0.000 OA
ATOM     19  H   UNL     1      -0.228   3.949  20.753  0.00  0.00    +0.000 HD
ENDBRANCH  14  18
ENDBRANCH  13  14
ENDBRANCH   2  13
TORSDOF 6
ENDMDL
MODEL 5
REMARK VINA RESULT:      -6.3      3.911      6.540
REMARK  Name = 
REMARK  6 active torsions:
REMARK  status: ('A' for Active; 'I' for Inactive)
REMARK    1  A    between atoms: C_2  and  C_3
REMARK    2  A    between atoms: C_7  and  N_8
REMARK    3  A    between atoms: C_9  and  C_11
REMARK    4  A    between atoms: C_11  and  P_12
REMARK    5  A    between atoms: P_12  and  O_14
REMARK    6  A    between atoms: P_12  and  O_15
REMARK                            x       y       z     vdW  Elec       q    Type
REMARK                         _______ _______ _______ _____ _____    ______ ____
ROOT
ATOM      1  N   UNL     1       4.846   3.411  18.468  0.00  0.00    +0.000 N 
ATOM      2  C   UNL     1       3.522   3.579  18.824  0.00  0.00    +0.000 C 
ATOM      3  O   UNL     1       2.750   4.399  18.324  0.00  0.00    +0.000 OA
ATOM      4  H   UNL     1       5.369   2.642  18.895  0.00  0.00    +0.000 HD
ENDROOT
BRANCH   1   9
ATOM      5  C   UNL     1       6.210   4.387  15.167  0.00  0.00    +0.000 A 
ATOM      6  C   UNL     1       6.965   5.519  15.483  0.00  0.00    +0.000 A 
ATOM      7  C   UNL     1       7.031   5.962  16.802  0.00  0.00    +0.000 A 
ATOM      8  C   UNL     1       6.344   5.275  17.809  0.00  0.00    +0.000 A 
ATOM      9  C   UNL     1       5.578   4.149  17.509  0.00  0.00    +0.000 A 
ATOM     10  C   UNL     1       5.514   3.709  16.179  0.00  0.00    +0.000 A 
BRANCH   5  12
ATOM     11  N   UNL     1       6.108   3.539  12.717  0.00  0.00    +0.000 NA
ATOM     12  C   UNL     1       6.151   3.921  13.813  0.00  0.00    +0.000 C 
ENDBRANCH   5  12
ENDBRANCH   1   9
BRANCH   2  13
ATOM     13  C   UNL     1       2.985   2.674  19.900  0.00  0.00    +0.000 C 
BRANCH  13  14
ATOM     14  P   UNL     1       1.861   3.369  21.060  0.00  0.00    +0.000 P 
ATOM     15  O   UNL     1       1.627   2.564  22.297  0.00  0.00    +0.000 OA
BRANCH  14  16
ATOM     16  O   UNL     1       2.375   4.853  21.370  0.00  0.00    +0.000 OA
ATOM     17  H   UNL     1       2.953   5.264  20.700  0.00  0.00    +0.000 HD
ENDBRANCH  14  16
BRANCH  14  18
ATOM     18  O   UNL     1       0.516   3.699  20.258  0.00  0.00    +0.000 OA
ATOM     19  H   UNL     1       0.132   4.553  20.538  0.00  0.00    +0.000 HD
ENDBRANCH  14  18
ENDBRANCH  13  14
ENDBRANCH   2  13
TORSDOF 6
ENDMDL
MODEL 6
REMARK VINA RESULT:      -6.2      3.817      6.443
REMARK  Name = 
REMARK  6 active torsions:
REMARK  status: ('A' for Active; 'I' for Inactive)
REMARK    1  A    between atoms: C_2  and  C_3
REMARK    2  A    between atoms: C_7  and  N_8
REMARK    3  A    between atoms: C_9  and  C_11
REMARK    4  A    between atoms: C_11  and  P_12
REMARK    5  A    between atoms: P_12  and  O_14
REMARK    6  A    between atoms: P_12  and  O_15
REMARK                            x       y       z     vdW  Elec       q    Type
REMARK                         _______ _______ _______ _____ _____    ______ ____
ROOT
ATOM      1  N   UNL     1       4.741   3.333  18.339  0.00  0.00    +0.000 N 
ATOM      2  C   UNL     1       3.461   3.564  18.805  0.00  0.00    +0.000 C 
ATOM      3  O   UNL     1       2.701   4.441  18.391  0.00  0.00    +0.000 OA
ATOM      4  H   UNL     1       5.250   2.524  18.703  0.00  0.00    +0.000 HD
ENDROOT
BRANCH   1   9
ATOM      5  C   UNL     1       6.755   6.035  16.805  0.00  0.00    +0.000 A 
ATOM      6  C   UNL     1       6.867   5.604  15.482  0.00  0.00    +0.000 A 
ATOM      7  C   UNL     1       6.266   4.411  15.088  0.00  0.00    +0.000 A 
ATOM      8  C   UNL     1       5.549   3.646  16.015  0.00  0.00    +0.000 A 
ATOM      9  C   UNL     1       5.435   4.057  17.343  0.00  0.00    +0.000 A 
ATOM     10  C   UNL     1       6.045   5.258  17.733  0.00  0.00    +0.000 A 
BRANCH   5  12
ATOM     11  N   UNL     1       7.847   8.272  17.537  0.00  0.00    +0.000 NA
ATOM     12  C   UNL     1       7.361   7.269  17.210  0.00  0.00    +0.000 C 
ENDBRANCH   5  12
ENDBRANCH   1   9
BRANCH   2  13
ATOM     13  C   UNL     1       2.960   2.659  19.899  0.00  0.00    +0.000 C 
BRANCH  13  14
ATOM     14  P   UNL     1       1.838   3.342  21.069  0.00  0.00    +0.000 P 
ATOM     15  O   UNL     1       1.617   2.530  22.303  0.00  0.00    +0.000 OA
BRANCH  14  16
ATOM     16  O   UNL     1       2.345   4.828  21.382  0.00  0.00    +0.000 OA
ATOM     17  H   UNL     1       2.182   5.500  20.694  0.00  0.00    +0.000 HD
ENDBRANCH  14  16
BRANCH  14  18
ATOM     18  O   UNL     1       0.487   3.668  20.276  0.00  0.00    +0.000 OA
ATOM     19  H   UNL     1      -0.151   2.929  20.336  0.00  0.00    +0.000 HD
ENDBRANCH  14  18
ENDBRANCH  13  14
ENDBRANCH   2  13
TORSDOF 6
ENDMDL
MODEL 7
REMARK VINA RESULT:      -6.2      0.413      1.181
REMARK  Name = 
REMARK  6 active torsions:
REMARK  status: ('A' for Active; 'I' for Inactive)
REMARK    1  A    between atoms: C_2  and  C_3
REMARK    2  A    between atoms: C_7  and  N_8
REMARK    3  A    between atoms: C_9  and  C_11
REMARK    4  A    between atoms: C_11  and  P_12
REMARK    5  A    between atoms: P_12  and  O_14
REMARK    6  A    between atoms: P_12  and  O_15
REMARK                            x       y       z     vdW  Elec       q    Type
REMARK                         _______ _______ _______ _____ _____    ______ ____
ROOT
ATOM      1  N   UNL     1       4.876   5.401  18.192  0.00  0.00    +0.000 N 
ATOM      2  C   UNL     1       6.208   5.308  18.543  0.00  0.00    +0.000 C 
ATOM      3  O   UNL     1       6.641   5.303  19.697  0.00  0.00    +0.000 OA
ATOM      4  H   UNL     1       4.627   5.313  17.204  0.00  0.00    +0.000 HD
ENDROOT
BRANCH   1   9
ATOM      5  C   UNL     1       2.322   4.483  20.712  0.00  0.00    +0.000 A 
ATOM      6  C   UNL     1       1.596   5.669  20.841  0.00  0.00    +0.000 A 
ATOM      7  C   UNL     1       1.948   6.784  20.084  0.00  0.00    +0.000 A 
ATOM      8  C   UNL     1       3.025   6.716  19.193  0.00  0.00    +0.000 A 
ATOM      9  C   UNL     1       3.767   5.542  19.059  0.00  0.00    +0.000 A 
ATOM     10  C   UNL     1       3.409   4.425  19.826  0.00  0.00    +0.000 A 
BRANCH   5  12
ATOM     11  N   UNL     1       1.658   2.400  22.109  0.00  0.00    +0.000 NA
ATOM     12  C   UNL     1       1.954   3.331  21.480  0.00  0.00    +0.000 C 
ENDBRANCH   5  12
ENDBRANCH   1   9
BRANCH   2  13
ATOM     13  C   UNL     1       7.202   5.190  17.419  0.00  0.00    +0.000 C 
BRANCH  13  14
ATOM     14  P   UNL     1       6.575   5.183  15.776  0.00  0.00    +0.000 P 
ATOM     15  O   UNL     1       5.572   6.247  15.462  0.00  0.00    +0.000 OA
BRANCH  14  16
ATOM     16  O   UNL     1       7.841   5.212  14.797  0.00  0.00    +0.000 OA
ATOM     17  H   UNL     1       7.668   5.038  13.853  0.00  0.00    +0.000 HD
ENDBRANCH  14  16
BRANCH  14  18
ATOM     18  O   UNL     1       6.035   3.704  15.494  0.00  0.00    +0.000 OA
ATOM     19  H   UNL     1       6.528   3.275  14.767  0.00  0.00    +0.000 HD
ENDBRANCH  14  18
ENDBRANCH  13  14
ENDBRANCH   2  13
TORSDOF 6
ENDMDL
MODEL 8
REMARK VINA RESULT:      -6.2      3.933      6.106
REMARK  Name = 
REMARK  6 active torsions:
REMARK  status: ('A' for Active; 'I' for Inactive)
REMARK    1  A    between atoms: C_2  and  C_3
REMARK    2  A    between atoms: C_7  and  N_8
REMARK    3  A    between atoms: C_9  and  C_11
REMARK    4  A    between atoms: C_11  and  P_12
REMARK    5  A    between atoms: P_12  and  O_14
REMARK    6  A    between atoms: P_12  and  O_15
REMARK                            x       y       z     vdW  Elec       q    Type
REMARK                         _______ _______ _______ _____ _____    ______ ____
ROOT
ATOM      1  N   UNL     1       3.576   4.038  18.450  0.00  0.00    +0.000 N 
ATOM      2  C   UNL     1       4.202   3.300  19.435  0.00  0.00    +0.000 C 
ATOM      3  O   UNL     1       5.420   3.239  19.611  0.00  0.00    +0.000 OA
ATOM      4  H   UNL     1       2.554   4.077  18.450  0.00  0.00    +0.000 HD
ENDROOT
BRANCH   1   9
ATOM      5  C   UNL     1       5.327   4.855  15.291  0.00  0.00    +0.000 A 
ATOM      6  C   UNL     1       5.420   6.247  15.357  0.00  0.00    +0.000 A 
ATOM      7  C   UNL     1       4.905   6.925  16.460  0.00  0.00    +0.000 A 
ATOM      8  C   UNL     1       4.298   6.214  17.501  0.00  0.00    +0.000 A 
ATOM      9  C   UNL     1       4.187   4.824  17.446  0.00  0.00    +0.000 A 
ATOM     10  C   UNL     1       4.706   4.148  16.332  0.00  0.00    +0.000 A 
BRANCH   5  12
ATOM     11  N   UNL     1       6.300   3.587  13.247  0.00  0.00    +0.000 NA
ATOM     12  C   UNL     1       5.868   4.155  14.164  0.00  0.00    +0.000 C 
ENDBRANCH   5  12
ENDBRANCH   1   9
BRANCH   2  13
ATOM     13  C   UNL     1       3.317   2.523  20.371  0.00  0.00    +0.000 C 
BRANCH  13  14
ATOM     14  P   UNL     1       1.848   3.306  20.940  0.00  0.00    +0.000 P 
ATOM     15  O   UNL     1       0.709   3.326  19.972  0.00  0.00    +0.000 OA
BRANCH  14  16
ATOM     16  O   UNL     1       1.469   2.621  22.335  0.00  0.00    +0.000 OA
ATOM     17  H   UNL     1       1.811   1.719  22.487  0.00  0.00    +0.000 HD
ENDBRANCH  14  16
BRANCH  14  18
ATOM     18  O   UNL     1       2.271   4.763  21.448  0.00  0.00    +0.000 OA
ATOM     19  H   UNL     1       1.886   5.465  20.885  0.00  0.00    +0.000 HD
ENDBRANCH  14  18
ENDBRANCH  13  14
ENDBRANCH   2  13
TORSDOF 6
ENDMDL
MODEL 9
REMARK VINA RESULT:      -6.2      4.026      6.328
REMARK  Name = 
REMARK  6 active torsions:
REMARK  status: ('A' for Active; 'I' for Inactive)
REMARK    1  A    between atoms: C_2  and  C_3
REMARK    2  A    between atoms: C_7  and  N_8
REMARK    3  A    between atoms: C_9  and  C_11
REMARK    4  A    between atoms: C_11  and  P_12
REMARK    5  A    between atoms: P_12  and  O_14
REMARK    6  A    between atoms: P_12  and  O_15
REMARK                            x       y       z     vdW  Elec       q    Type
REMARK                         _______ _______ _______ _____ _____    ______ ____
ROOT
ATOM      1  N   UNL     1       3.351   3.938  18.542  0.00  0.00    +0.000 N 
ATOM      2  C   UNL     1       2.052   3.475  18.491  0.00  0.00    +0.000 C 
ATOM      3  O   UNL     1       1.258   3.682  17.571  0.00  0.00    +0.000 OA
ATOM      4  H   UNL     1       3.944   3.635  19.319  0.00  0.00    +0.000 HD
ENDROOT
BRANCH   1   9
ATOM      5  C   UNL     1       5.246   4.846  15.493  0.00  0.00    +0.000 A 
ATOM      6  C   UNL     1       5.342   6.234  15.608  0.00  0.00    +0.000 A 
ATOM      7  C   UNL     1       4.781   6.879  16.707  0.00  0.00    +0.000 A 
ATOM      8  C   UNL     1       4.125   6.139  17.696  0.00  0.00    +0.000 A 
ATOM      9  C   UNL     1       4.011   4.752  17.592  0.00  0.00    +0.000 A 
ATOM     10  C   UNL     1       4.576   4.109  16.482  0.00  0.00    +0.000 A 
BRANCH   5  12
ATOM     11  N   UNL     1       6.304   3.637  13.455  0.00  0.00    +0.000 NA
ATOM     12  C   UNL     1       5.834   4.178  14.369  0.00  0.00    +0.000 C 
ENDBRANCH   5  12
ENDBRANCH   1   9
BRANCH   2  13
ATOM     13  C   UNL     1       1.579   2.641  19.652  0.00  0.00    +0.000 C 
BRANCH  13  14
ATOM     14  P   UNL     1       2.162   3.073  21.254  0.00  0.00    +0.000 P 
ATOM     15  O   UNL     1       2.295   4.537  21.521  0.00  0.00    +0.000 OA
BRANCH  14  16
ATOM     16  O   UNL     1       1.212   2.331  22.307  0.00  0.00    +0.000 OA
ATOM     17  H   UNL     1       0.317   2.094  21.998  0.00  0.00    +0.000 HD
ENDBRANCH  14  16
BRANCH  14  18
ATOM     18  O   UNL     1       3.523   2.263  21.483  0.00  0.00    +0.000 OA
ATOM     19  H   UNL     1       3.433   1.607  22.203  0.00  0.00    +0.000 HD
ENDBRANCH  14  18
ENDBRANCH  13  14
ENDBRANCH   2  13
TORSDOF 6
ENDMDL
