MODEL 1
REMARK VINA RESULT:      -6.4      0.000      0.000
REMARK  Name = 
REMARK  6 active torsions:
REMARK  status: ('A' for Active; 'I' for Inactive)
REMARK    1  A    between atoms: C_1  and  C_2
REMARK    2  A    between atoms: C_2  and  C_3
REMARK    3  A    between atoms: C_10  and  S_11
REMARK    4  A    between atoms: S_11  and  C_12
REMARK    5  A    between atoms: C_12  and  C_13
REMARK    6  A    between atoms: C_13  and  O_15
REMARK                            x       y       z     vdW  Elec       q    Type
REMARK                         _______ _______ _______ _____ _____    ______ ____
ROOT
ATOM      1  C   UNL     1       2.370   3.255  21.442  0.00  0.00    +0.000 C 
ATOM      2  C   UNL     1       2.202   4.234  20.272  0.00  0.00    +0.000 C 
ATOM      3  C   UNL     1       1.044   3.743  19.389  0.00  0.00    +0.000 C 
ATOM      4  C   UNL     1       1.937   5.652  20.845  0.00  0.00    +0.000 C 
ATOM      5  C   UNL     1       2.164   6.698  19.799  0.00  0.00    +0.000 A 
ATOM      6  C   UNL     1       2.921   6.390  18.683  0.00  0.00    +0.000 A 
ATOM      7  S   UNL     1       3.049   7.693  17.604  0.00  0.00    +0.000 S 
ATOM      8  C   UNL     1       2.097   8.684  18.612  0.00  0.00    +0.000 A 
ATOM      9  N   UNL     1       1.798   9.933  18.220  0.00  0.00    +0.000 NA
ATOM     10  C   UNL     1       1.042  10.583  19.116  0.00  0.00    +0.000 A 
ATOM     11  N   UNL     1       0.602  10.103  20.288  0.00  0.00    +0.000 NA
ATOM     12  C   UNL     1       0.896   8.839  20.636  0.00  0.00    +0.000 A 
ATOM     13  N   UNL     1       0.386   8.391  21.846  0.00  0.00    +0.000 N 
ATOM     14  C   UNL     1       1.685   8.055  19.776  0.00  0.00    +0.000 A 
ATOM     15  C   UNL     1       3.518   5.053  18.383  0.00  0.00    +0.000 C 
ATOM     16  O   UNL     1       3.457   4.222  19.556  0.00  0.00    +0.000 OA
ATOM     17  H   UNL     1       0.047   9.165  22.410  0.00  0.00    +0.000 HD
ATOM     18  H   UNL     1       0.931   7.696  22.331  0.00  0.00    +0.000 HD
ENDROOT
BRANCH  10  19
ATOM     19  S   UNL     1       0.552  12.241  18.704  0.00  0.00    +0.000 S 
BRANCH  19  20
ATOM     20  C   UNL     1      -1.247  12.105  18.900  0.00  0.00    +0.000 C 
BRANCH  20  21
ATOM     21  C   UNL     1      -1.863  11.246  17.819  0.00  0.00    +0.000 C 
ATOM     22  O   UNL     1      -2.317  10.127  18.011  0.00  0.00    +0.000 OA
BRANCH  21  23
ATOM     23  O   UNL     1      -1.884  11.821  16.595  0.00  0.00    +0.000 OA
ATOM     24  H   UNL     1      -1.560  11.220  15.887  0.00  0.00    +0.000 HD
ENDBRANCH  21  23
ENDBRANCH  20  21
ENDBRANCH  19  20
ENDBRANCH  10  19
TORSDOF 4
ENDMDL
MODEL 2
REMARK VINA RESULT:      -6.3      2.963      6.762
REMARK  Name = 
REMARK  6 active torsions:
REMARK  status: ('A' for Active; 'I' for Inactive)
REMARK    1  A    between atoms: C_1  and  C_2
REMARK    2  A    between atoms: C_2  and  C_3
REMARK    3  A    between atoms: C_10  and  S_11
REMARK    4  A    between atoms: S_11  and  C_12
REMARK    5  A    between atoms: C_12  and  C_13
REMARK    6  A    between atoms: C_13  and  O_15
REMARK                            x       y       z     vdW  Elec       q    Type
REMARK                         _______ _______ _______ _____ _____    ______ ____
ROOT
ATOM      1  C   UNL     1      -0.621   9.031  22.964  0.00  0.00    +0.000 C 
ATOM      2  C   UNL     1       0.420   9.224  21.852  0.00  0.00    +0.000 C 
ATOM      3  C   UNL     1       1.605  10.016  22.426  0.00  0.00    +0.000 C 
ATOM      4  C   UNL     1       0.852   7.828  21.329  0.00  0.00    +0.000 C 
ATOM      5  C   UNL     1       1.538   7.946  20.004  0.00  0.00    +0.000 A 
ATOM      6  C   UNL     1       1.360   9.090  19.246  0.00  0.00    +0.000 A 
ATOM      7  S   UNL     1       2.233   9.049  17.791  0.00  0.00    +0.000 S 
ATOM      8  C   UNL     1       2.858   7.506  18.154  0.00  0.00    +0.000 A 
ATOM      9  N   UNL     1       3.723   6.927  17.306  0.00  0.00    +0.000 NA
ATOM     10  C   UNL     1       4.126   5.721  17.730  0.00  0.00    +0.000 A 
ATOM     11  N   UNL     1       3.748   5.104  18.859  0.00  0.00    +0.000 NA
ATOM     12  C   UNL     1       2.903   5.724  19.698  0.00  0.00    +0.000 A 
ATOM     13  N   UNL     1       2.574   5.047  20.864  0.00  0.00    +0.000 N 
ATOM     14  C   UNL     1       2.409   6.997  19.362  0.00  0.00    +0.000 A 
ATOM     15  C   UNL     1       0.558  10.283  19.654  0.00  0.00    +0.000 C 
ATOM     16  O   UNL     1      -0.248   9.955  20.800  0.00  0.00    +0.000 OA
ATOM     17  H   UNL     1       2.844   4.070  20.809  0.00  0.00    +0.000 HD
ATOM     18  H   UNL     1       1.658   5.231  21.245  0.00  0.00    +0.000 HD
ENDROOT
BRANCH  10  19
ATOM     19  S   UNL     1       5.297   4.859  16.709  0.00  0.00    +0.000 S 
BRANCH  19  20
ATOM     20  C   UNL     1       6.820   5.749  17.140  0.00  0.00    +0.000 C 
BRANCH  20  21
ATOM     21  C   UNL     1       7.607   5.023  18.207  0.00  0.00    +0.000 C 
ATOM     22  O   UNL     1       7.571   5.308  19.395  0.00  0.00    +0.000 OA
BRANCH  21  23
ATOM     23  O   UNL     1       8.367   4.004  17.743  0.00  0.00    +0.000 OA
ATOM     24  H   UNL     1       9.306   4.263  17.606  0.00  0.00    +0.000 HD
ENDBRANCH  21  23
ENDBRANCH  20  21
ENDBRANCH  19  20
ENDBRANCH  10  19
TORSDOF 4
ENDMDL
MODEL 3
REMARK VINA RESULT:      -6.3      5.073      6.979
REMARK  Name = 
REMARK  6 active torsions:
REMARK  status: ('A' for Active; 'I' for Inactive)
REMARK    1  A    between atoms: C_1  and  C_2
REMARK    2  A    between atoms: C_2  and  C_3
REMARK    3  A    between atoms: C_10  and  S_11
REMARK    4  A    between atoms: S_11  and  C_12
REMARK    5  A    between atoms: C_12  and  C_13
REMARK    6  A    between atoms: C_13  and  O_15
REMARK                            x       y       z     vdW  Elec       q    Type
REMARK                         _______ _______ _______ _____ _____    ______ ____
ROOT
ATOM      1  C   UNL     1       7.894   8.762  17.513  0.00  0.00    +0.000 C 
ATOM      2  C   UNL     1       7.403   7.310  17.585  0.00  0.00    +0.000 C 
ATOM      3  C   UNL     1       8.132   6.606  18.741  0.00  0.00    +0.000 C 
ATOM      4  C   UNL     1       5.864   7.315  17.786  0.00  0.00    +0.000 C 
ATOM      5  C   UNL     1       5.281   5.975  17.463  0.00  0.00    +0.000 A 
ATOM      6  C   UNL     1       6.007   5.086  16.689  0.00  0.00    +0.000 A 
ATOM      7  S   UNL     1       5.193   3.617  16.451  0.00  0.00    +0.000 S 
ATOM      8  C   UNL     1       3.864   4.147  17.376  0.00  0.00    +0.000 A 
ATOM      9  N   UNL     1       2.832   3.314  17.588  0.00  0.00    +0.000 NA
ATOM     10  C   UNL     1       1.869   3.874  18.333  0.00  0.00    +0.000 A 
ATOM     11  N   UNL     1       1.869   5.115  18.840  0.00  0.00    +0.000 NA
ATOM     12  C   UNL     1       2.931   5.912  18.631  0.00  0.00    +0.000 A 
ATOM     13  N   UNL     1       2.885   7.174  19.206  0.00  0.00    +0.000 N 
ATOM     14  C   UNL     1       4.007   5.436  17.862  0.00  0.00    +0.000 A 
ATOM     15  C   UNL     1       7.385   5.323  16.163  0.00  0.00    +0.000 C 
ATOM     16  O   UNL     1       7.728   6.713  16.310  0.00  0.00    +0.000 OA
ATOM     17  H   UNL     1       1.945   7.401  19.517  0.00  0.00    +0.000 HD
ATOM     18  H   UNL     1       3.377   7.906  18.718  0.00  0.00    +0.000 HD
ENDROOT
BRANCH  10  19
ATOM     19  S   UNL     1       0.456   2.864  18.712  0.00  0.00    +0.000 S 
BRANCH  19  20
ATOM     20  C   UNL     1       1.195   1.703  19.896  0.00  0.00    +0.000 C 
BRANCH  20  21
ATOM     21  C   UNL     1       1.876   2.426  21.035  0.00  0.00    +0.000 C 
ATOM     22  O   UNL     1       1.344   2.658  22.111  0.00  0.00    +0.000 OA
BRANCH  21  23
ATOM     23  O   UNL     1       3.150   2.800  20.776  0.00  0.00    +0.000 OA
ATOM     24  H   UNL     1       3.435   3.574  21.312  0.00  0.00    +0.000 HD
ENDBRANCH  21  23
ENDBRANCH  20  21
ENDBRANCH  19  20
ENDBRANCH  10  19
TORSDOF 4
ENDMDL
MODEL 4
REMARK VINA RESULT:      -6.3      3.316      6.677
REMARK  Name = 
REMARK  6 active torsions:
REMARK  status: ('A' for Active; 'I' for Inactive)
REMARK    1  A    between atoms: C_1  and  C_2
REMARK    2  A    between atoms: C_2  and  C_3
REMARK    3  A    between atoms: C_10  and  S_11
REMARK    4  A    between atoms: S_11  and  C_12
REMARK    5  A    between atoms: C_12  and  C_13
REMARK    6  A    between atoms: C_13  and  O_15
REMARK                            x       y       z     vdW  Elec       q    Type
REMARK                         _______ _______ _______ _____ _____    ______ ____
ROOT
ATOM      1  C   UNL     1      -0.637   9.186  22.815  0.00  0.00    +0.000 C 
ATOM      2  C   UNL     1       0.439   9.254  21.724  0.00  0.00    +0.000 C 
ATOM      3  C   UNL     1       1.630  10.061  22.265  0.00  0.00    +0.000 C 
ATOM      4  C   UNL     1       0.845   7.807  21.335  0.00  0.00    +0.000 C 
ATOM      5  C   UNL     1       1.572   7.793  20.027  0.00  0.00    +0.000 A 
ATOM      6  C   UNL     1       1.449   8.872  19.169  0.00  0.00    +0.000 A 
ATOM      7  S   UNL     1       2.361   8.682  17.751  0.00  0.00    +0.000 S 
ATOM      8  C   UNL     1       2.930   7.160  18.263  0.00  0.00    +0.000 A 
ATOM      9  N   UNL     1       3.802   6.487  17.494  0.00  0.00    +0.000 NA
ATOM     10  C   UNL     1       4.157   5.312  18.032  0.00  0.00    +0.000 A 
ATOM     11  N   UNL     1       3.729   4.804  19.197  0.00  0.00    +0.000 NA
ATOM     12  C   UNL     1       2.879   5.517  19.954  0.00  0.00    +0.000 A 
ATOM     13  N   UNL     1       2.497   4.952  21.163  0.00  0.00    +0.000 N 
ATOM     14  C   UNL     1       2.432   6.769  19.495  0.00  0.00    +0.000 A 
ATOM     15  C   UNL     1       0.671  10.116  19.449  0.00  0.00    +0.000 C 
ATOM     16  O   UNL     1      -0.177   9.910  20.593  0.00  0.00    +0.000 OA
ATOM     17  H   UNL     1       2.740   3.966  21.199  0.00  0.00    +0.000 HD
ATOM     18  H   UNL     1       1.577   5.193  21.498  0.00  0.00    +0.000 HD
ENDROOT
BRANCH  10  19
ATOM     19  S   UNL     1       5.331   4.333  17.125  0.00  0.00    +0.000 S 
BRANCH  19  20
ATOM     20  C   UNL     1       5.489   5.333  15.617  0.00  0.00    +0.000 C 
BRANCH  20  21
ATOM     21  C   UNL     1       6.543   4.776  14.688  0.00  0.00    +0.000 C 
ATOM     22  O   UNL     1       6.382   3.789  13.985  0.00  0.00    +0.000 OA
BRANCH  21  23
ATOM     23  O   UNL     1       7.704   5.471  14.682  0.00  0.00    +0.000 OA
ATOM     24  H   UNL     1       8.288   5.242  15.439  0.00  0.00    +0.000 HD
ENDBRANCH  21  23
ENDBRANCH  20  21
ENDBRANCH  19  20
ENDBRANCH  10  19
TORSDOF 4
ENDMDL
MODEL 5
REMARK VINA RESULT:      -6.3      2.222      3.542
REMARK  Name = 
REMARK  6 active torsions:
REMARK  status: ('A' for Active; 'I' for Inactive)
REMARK    1  A    between atoms: C_1  and  C_2
REMARK    2  A    between atoms: C_2  and  C_3
REMARK    3  A    between atoms: C_10  and  S_11
REMARK    4  A    between atoms: S_11  and  C_12
REMARK    5  A    between atoms: C_12  and  C_13
REMARK    6  A    between atoms: C_13  and  O_15
REMARK                            x       y       z     vdW  Elec       q    Type
REMARK                         _______ _______ _______ _____ _____    ______ ____
ROOT
ATOM      1  C   UNL     1       5.494   4.140  15.894  0.00  0.00    +0.000 C 
ATOM      2  C   UNL     1       5.038   4.378  17.340  0.00  0.00    +0.000 C 
ATOM      3  C   UNL     1       6.277   4.686  18.197  0.00  0.00    +0.000 C 
ATOM      4  C   UNL     1       4.018   5.548  17.353  0.00  0.00    +0.000 C 
ATOM      5  C   UNL     1       3.245   5.565  18.635  0.00  0.00    +0.000 A 
ATOM      6  C   UNL     1       3.199   4.423  19.416  0.00  0.00    +0.000 A 
ATOM      7  S   UNL     1       2.297   4.643  20.836  0.00  0.00    +0.000 S 
ATOM      8  C   UNL     1       1.957   6.262  20.427  0.00  0.00    +0.000 A 
ATOM      9  N   UNL     1       1.246   7.023  21.275  0.00  0.00    +0.000 NA
ATOM     10  C   UNL     1       1.065   8.269  20.815  0.00  0.00    +0.000 A 
ATOM     11  N   UNL     1       1.513   8.764  19.653  0.00  0.00    +0.000 NA
ATOM     12  C   UNL     1       2.245   7.983  18.841  0.00  0.00    +0.000 A 
ATOM     13  N   UNL     1       2.705   8.563  17.667  0.00  0.00    +0.000 N 
ATOM     14  C   UNL     1       2.502   6.653  19.215  0.00  0.00    +0.000 A 
ATOM     15  C   UNL     1       3.907   3.141  19.119  0.00  0.00    +0.000 C 
ATOM     16  O   UNL     1       4.390   3.158  17.763  0.00  0.00    +0.000 OA
ATOM     17  H   UNL     1       2.226   9.438  17.478  0.00  0.00    +0.000 HD
ATOM     18  H   UNL     1       2.822   7.945  16.879  0.00  0.00    +0.000 HD
ENDROOT
BRANCH  10  19
ATOM     19  S   UNL     1       0.162   9.388  21.858  0.00  0.00    +0.000 S 
BRANCH  19  20
ATOM     20  C   UNL     1       0.311  10.920  20.896  0.00  0.00    +0.000 C 
BRANCH  20  21
ATOM     21  C   UNL     1      -0.947  11.210  20.109  0.00  0.00    +0.000 C 
ATOM     22  O   UNL     1      -1.700  12.144  20.345  0.00  0.00    +0.000 OA
BRANCH  21  23
ATOM     23  O   UNL     1      -1.181  10.346  19.095  0.00  0.00    +0.000 OA
ATOM     24  H   UNL     1      -1.123   9.405  19.376  0.00  0.00    +0.000 HD
ENDBRANCH  21  23
ENDBRANCH  20  21
ENDBRANCH  19  20
ENDBRANCH  10  19
TORSDOF 4
ENDMDL
MODEL 6
REMARK VINA RESULT:      -6.2      1.461      1.656
REMARK  Name = 
REMARK  6 active torsions:
REMARK  status: ('A' for Active; 'I' for Inactive)
REMARK    1  A    between atoms: C_1  and  C_2
REMARK    2  A    between atoms: C_2  and  C_3
REMARK    3  A    between atoms: C_10  and  S_11
REMARK    4  A    between atoms: S_11  and  C_12
REMARK    5  A    between atoms: C_12  and  C_13
REMARK    6  A    between atoms: C_13  and  O_15
REMARK                            x       y       z     vdW  Elec       q    Type
REMARK                         _______ _______ _______ _____ _____    ______ ____
ROOT
ATOM      1  C   UNL     1       4.320   2.366  19.980  0.00  0.00    +0.000 C 
ATOM      2  C   UNL     1       3.899   3.441  18.969  0.00  0.00    +0.000 C 
ATOM      3  C   UNL     1       2.789   2.861  18.076  0.00  0.00    +0.000 C 
ATOM      4  C   UNL     1       3.422   4.696  19.746  0.00  0.00    +0.000 C 
ATOM      5  C   UNL     1       3.386   5.895  18.850  0.00  0.00    +0.000 A 
ATOM      6  C   UNL     1       4.107   5.882  17.669  0.00  0.00    +0.000 A 
ATOM      7  S   UNL     1       3.923   7.316  16.780  0.00  0.00    +0.000 S 
ATOM      8  C   UNL     1       2.880   7.970  17.959  0.00  0.00    +0.000 A 
ATOM      9  N   UNL     1       2.335   9.181  17.761  0.00  0.00    +0.000 NA
ATOM     10  C   UNL     1       1.539   9.555  18.771  0.00  0.00    +0.000 A 
ATOM     11  N   UNL     1       1.273   8.852  19.881  0.00  0.00    +0.000 NA
ATOM     12  C   UNL     1       1.814   7.632  20.034  0.00  0.00    +0.000 A 
ATOM     13  N   UNL     1       1.476   6.941  21.190  0.00  0.00    +0.000 N 
ATOM     14  C   UNL     1       2.669   7.129  19.039  0.00  0.00    +0.000 A 
ATOM     15  C   UNL     1       4.912   4.732  17.158  0.00  0.00    +0.000 C 
ATOM     16  O   UNL     1       5.083   3.758  18.204  0.00  0.00    +0.000 OA
ATOM     17  H   UNL     1       1.044   7.558  21.872  0.00  0.00    +0.000 HD
ATOM     18  H   UNL     1       2.170   6.304  21.549  0.00  0.00    +0.000 HD
ENDROOT
BRANCH  10  19
ATOM     19  S   UNL     1       0.731  11.131  18.619  0.00  0.00    +0.000 S 
BRANCH  19  20
ATOM     20  C   UNL     1      -1.002  10.627  18.811  0.00  0.00    +0.000 C 
BRANCH  20  21
ATOM     21  C   UNL     1      -1.789  10.838  17.538  0.00  0.00    +0.000 C 
ATOM     22  O   UNL     1      -2.394   9.950  16.954  0.00  0.00    +0.000 OA
BRANCH  21  23
ATOM     23  O   UNL     1      -1.783  12.112  17.083  0.00  0.00    +0.000 OA
ATOM     24  H   UNL     1      -2.335  12.713  17.631  0.00  0.00    +0.000 HD
ENDBRANCH  21  23
ENDBRANCH  20  21
ENDBRANCH  19  20
ENDBRANCH  10  19
TORSDOF 4
ENDMDL
MODEL 7
REMARK VINA RESULT:      -6.1      2.858      4.063
REMARK  Name = 
REMARK  6 active torsions:
REMARK  status: ('A' for Active; 'I' for Inactive)
REMARK    1  A    between atoms: C_1  and  C_2
REMARK    2  A    between atoms: C_2  and  C_3
REMARK    3  A    between atoms: C_10  and  S_11
REMARK    4  A    between atoms: S_11  and  C_12
REMARK    5  A    between atoms: C_12  and  C_13
REMARK    6  A    between atoms: C_13  and  O_15
REMARK                            x       y       z     vdW  Elec       q    Type
REMARK                         _______ _______ _______ _____ _____    ______ ____
ROOT
ATOM      1  C   UNL     1       5.549   4.507  15.462  0.00  0.00    +0.000 C 
ATOM      2  C   UNL     1       5.114   4.581  16.932  0.00  0.00    +0.000 C 
ATOM      3  C   UNL     1       6.361   4.828  17.797  0.00  0.00    +0.000 C 
ATOM      4  C   UNL     1       4.067   5.717  17.084  0.00  0.00    +0.000 C 
ATOM      5  C   UNL     1       3.318   5.579  18.373  0.00  0.00    +0.000 A 
ATOM      6  C   UNL     1       3.312   4.361  19.030  0.00  0.00    +0.000 A 
ATOM      7  S   UNL     1       2.431   4.408  20.479  0.00  0.00    +0.000 S 
ATOM      8  C   UNL     1       2.046   6.052  20.248  0.00  0.00    +0.000 A 
ATOM      9  N   UNL     1       1.333   6.702  21.182  0.00  0.00    +0.000 NA
ATOM     10  C   UNL     1       1.115   7.984  20.859  0.00  0.00    +0.000 A 
ATOM     11  N   UNL     1       1.530   8.610  19.749  0.00  0.00    +0.000 NA
ATOM     12  C   UNL     1       2.265   7.937  18.848  0.00  0.00    +0.000 A 
ATOM     13  N   UNL     1       2.690   8.648  17.735  0.00  0.00    +0.000 N 
ATOM     14  C   UNL     1       2.560   6.581  19.076  0.00  0.00    +0.000 A 
ATOM     15  C   UNL     1       4.045   3.136  18.588  0.00  0.00    +0.000 C 
ATOM     16  O   UNL     1       4.503   3.307  17.234  0.00  0.00    +0.000 OA
ATOM     17  H   UNL     1       2.188   9.526  17.647  0.00  0.00    +0.000 HD
ATOM     18  H   UNL     1       2.807   8.119  16.884  0.00  0.00    +0.000 HD
ENDROOT
BRANCH  10  19
ATOM     19  S   UNL     1       0.205   8.965  22.029  0.00  0.00    +0.000 S 
BRANCH  19  20
ATOM     20  C   UNL     1       0.126  10.543  21.136  0.00  0.00    +0.000 C 
BRANCH  20  21
ATOM     21  C   UNL     1      -0.152  11.699  22.069  0.00  0.00    +0.000 C 
ATOM     22  O   UNL     1      -0.869  11.622  23.057  0.00  0.00    +0.000 OA
BRANCH  21  23
ATOM     23  O   UNL     1       0.471  12.851  21.731  0.00  0.00    +0.000 OA
ATOM     24  H   UNL     1       1.308  12.700  21.236  0.00  0.00    +0.000 HD
ENDBRANCH  21  23
ENDBRANCH  20  21
ENDBRANCH  19  20
ENDBRANCH  10  19
TORSDOF 4
ENDMDL
MODEL 8
REMARK VINA RESULT:      -6.1      1.907      2.270
REMARK  Name = 
REMARK  6 active torsions:
REMARK  status: ('A' for Active; 'I' for Inactive)
REMARK    1  A    between atoms: C_1  and  C_2
REMARK    2  A    between atoms: C_2  and  C_3
REMARK    3  A    between atoms: C_10  and  S_11
REMARK    4  A    between atoms: S_11  and  C_12
REMARK    5  A    between atoms: C_12  and  C_13
REMARK    6  A    between atoms: C_13  and  O_15
REMARK                            x       y       z     vdW  Elec       q    Type
REMARK                         _______ _______ _______ _____ _____    ______ ____
ROOT
ATOM      1  C   UNL     1       2.836   2.951  20.855  0.00  0.00    +0.000 C 
ATOM      2  C   UNL     1       2.541   4.024  19.798  0.00  0.00    +0.000 C 
ATOM      3  C   UNL     1       1.360   3.548  18.938  0.00  0.00    +0.000 C 
ATOM      4  C   UNL     1       2.233   5.362  20.520  0.00  0.00    +0.000 C 
ATOM      5  C   UNL     1       2.336   6.515  19.571  0.00  0.00    +0.000 A 
ATOM      6  C   UNL     1       3.039   6.360  18.389  0.00  0.00    +0.000 A 
ATOM      7  S   UNL     1       3.026   7.765  17.437  0.00  0.00    +0.000 S 
ATOM      8  C   UNL     1       2.084   8.595  18.589  0.00  0.00    +0.000 A 
ATOM      9  N   UNL     1       1.692   9.855  18.339  0.00  0.00    +0.000 NA
ATOM     10  C   UNL     1       0.958  10.370  19.336  0.00  0.00    +0.000 A 
ATOM     11  N   UNL     1       0.618   9.755  20.477  0.00  0.00    +0.000 NA
ATOM     12  C   UNL     1       1.004   8.485  20.683  0.00  0.00    +0.000 A 
ATOM     13  N   UNL     1       0.595   7.893  21.870  0.00  0.00    +0.000 N 
ATOM     14  C   UNL     1       1.781   7.835  19.707  0.00  0.00    +0.000 A 
ATOM     15  C   UNL     1       3.689   5.097  17.927  0.00  0.00    +0.000 C 
ATOM     16  O   UNL     1       3.748   4.157  19.015  0.00  0.00    +0.000 OA
ATOM     17  H   UNL     1       0.250   8.588  22.526  0.00  0.00    +0.000 HD
ATOM     18  H   UNL     1       1.208   7.191  22.254  0.00  0.00    +0.000 HD
ENDROOT
BRANCH  10  19
ATOM     19  S   UNL     1       0.351  12.025  19.116  0.00  0.00    +0.000 S 
BRANCH  19  20
ATOM     20  C   UNL     1       1.853  12.973  19.492  0.00  0.00    +0.000 C 
BRANCH  20  21
ATOM     21  C   UNL     1       2.537  13.456  18.233  0.00  0.00    +0.000 C 
ATOM     22  O   UNL     1       2.925  14.603  18.064  0.00  0.00    +0.000 OA
BRANCH  21  23
ATOM     23  O   UNL     1       2.702  12.502  17.288  0.00  0.00    +0.000 OA
ATOM     24  H   UNL     1       3.528  12.623  16.766  0.00  0.00    +0.000 HD
ENDBRANCH  21  23
ENDBRANCH  20  21
ENDBRANCH  19  20
ENDBRANCH  10  19
TORSDOF 4
ENDMDL
MODEL 9
REMARK VINA RESULT:      -6.1      2.379      6.921
REMARK  Name = 
REMARK  6 active torsions:
REMARK  status: ('A' for Active; 'I' for Inactive)
REMARK    1  A    between atoms: C_1  and  C_2
REMARK    2  A    between atoms: C_2  and  C_3
REMARK    3  A    between atoms: C_10  and  S_11
REMARK    4  A    between atoms: S_11  and  C_12
REMARK    5  A    between atoms: C_12  and  C_13
REMARK    6  A    between atoms: C_13  and  O_15
REMARK                            x       y       z     vdW  Elec       q    Type
REMARK                         _______ _______ _______ _____ _____    ______ ____
ROOT
ATOM      1  C   UNL     1      -0.279  13.431  18.259  0.00  0.00    +0.000 C 
ATOM      2  C   UNL     1      -0.551  12.131  19.027  0.00  0.00    +0.000 C 
ATOM      3  C   UNL     1      -1.888  11.549  18.540  0.00  0.00    +0.000 C 
ATOM      4  C   UNL     1       0.630  11.154  18.785  0.00  0.00    +0.000 C 
ATOM      5  C   UNL     1       0.628  10.056  19.802  0.00  0.00    +0.000 A 
ATOM      6  C   UNL     1      -0.071  10.225  20.984  0.00  0.00    +0.000 A 
ATOM      7  S   UNL     1       0.027   8.868  21.998  0.00  0.00    +0.000 S 
ATOM      8  C   UNL     1       1.002   8.038  20.873  0.00  0.00    +0.000 A 
ATOM      9  N   UNL     1       1.393   6.781  21.138  0.00  0.00    +0.000 NA
ATOM     10  C   UNL     1       2.149   6.264  20.160  0.00  0.00    +0.000 A 
ATOM     11  N   UNL     1       2.513   6.875  19.023  0.00  0.00    +0.000 NA
ATOM     12  C   UNL     1       2.081   8.124  18.778  0.00  0.00    +0.000 A 
ATOM     13  N   UNL     1       2.465   8.690  17.571  0.00  0.00    +0.000 N 
ATOM     14  C   UNL     1       1.278   8.773  19.732  0.00  0.00    +0.000 A 
ATOM     15  C   UNL     1      -0.892  11.422  21.340  0.00  0.00    +0.000 C 
ATOM     16  O   UNL     1      -0.608  12.494  20.424  0.00  0.00    +0.000 OA
ATOM     17  H   UNL     1       3.217   8.160  17.140  0.00  0.00    +0.000 HD
ATOM     18  H   UNL     1       2.571   9.693  17.562  0.00  0.00    +0.000 HD
ENDROOT
BRANCH  10  19
ATOM     19  S   UNL     1       2.710   4.592  20.374  0.00  0.00    +0.000 S 
BRANCH  19  20
ATOM     20  C   UNL     1       1.242   3.683  19.812  0.00  0.00    +0.000 C 
BRANCH  20  21
ATOM     21  C   UNL     1       1.421   3.149  18.410  0.00  0.00    +0.000 C 
ATOM     22  O   UNL     1       1.343   3.836  17.402  0.00  0.00    +0.000 OA
BRANCH  21  23
ATOM     23  O   UNL     1       1.688   1.824  18.348  0.00  0.00    +0.000 OA
ATOM     24  H   UNL     1       2.114   1.484  19.167  0.00  0.00    +0.000 HD
ENDBRANCH  21  23
ENDBRANCH  20  21
ENDBRANCH  19  20
ENDBRANCH  10  19
TORSDOF 4
ENDMDL
