MODEL 1
REMARK VINA RESULT:      -7.5      0.000      0.000
REMARK  Name = 
REMARK  8 active torsions:
REMARK  status: ('A' for Active; 'I' for Inactive)
REMARK    1  A    between atoms: C_1  and  O_2
REMARK    2  A    between atoms: O_2  and  C_3
REMARK    3  A    between atoms: C_6  and  C_7
REMARK    4  A    between atoms: N_9  and  C_10
REMARK    5  A    between atoms: C_10  and  C_11
REMARK    6  A    between atoms: C_10  and  C_12
REMARK    7  A    between atoms: C_15  and  C_16
REMARK    8  A    between atoms: C_15  and  C_17
REMARK                            x       y       z     vdW  Elec       q    Type
REMARK                         _______ _______ _______ _____ _____    ______ ____
ROOT
ATOM      1  C   UNL     1       3.121   6.173  18.624  0.00  0.00    +0.000 C 
ATOM      2  N   UNL     1       4.362   6.161  18.219  0.00  0.00    +0.000 NA
ATOM      3  N   UNL     1       4.775   4.846  18.236  0.00  0.00    +0.000 N 
ATOM      4  C   UNL     1       3.810   3.949  18.690  0.00  0.00    +0.000 C 
ATOM      5  O   UNL     1       3.912   2.739  18.835  0.00  0.00    +0.000 OA
ATOM      6  C   UNL     1       2.546   4.773  18.841  0.00  0.00    +0.000 C 
ATOM      7  C   UNL     1       1.645   4.333  17.682  0.00  0.00    +0.000 C 
ATOM      8  C   UNL     1       1.927   4.550  20.214  0.00  0.00    +0.000 C 
ENDROOT
BRANCH   1  12
ATOM      9  C   UNL     1       0.834   9.757  19.304  0.00  0.00    +0.000 A 
ATOM     10  C   UNL     1       1.323   9.463  18.033  0.00  0.00    +0.000 A 
ATOM     11  C   UNL     1       2.065   8.303  17.808  0.00  0.00    +0.000 A 
ATOM     12  C   UNL     1       2.360   7.427  18.854  0.00  0.00    +0.000 A 
ATOM     13  C   UNL     1       1.913   7.738  20.144  0.00  0.00    +0.000 A 
ATOM     14  C   UNL     1       1.151   8.895  20.363  0.00  0.00    +0.000 A 
ATOM     15 BR   UNL     1       0.535   9.239  22.129  0.00  0.00    +0.000 Br
BRANCH   9  17
ATOM     16  C   UNL     1      -1.194  10.908  18.912  0.00  0.00    +0.000 C 
ATOM     17  O   UNL     1       0.075  10.870  19.565  0.00  0.00    +0.000 OA
ENDBRANCH   9  17
ENDBRANCH   1  12
BRANCH   3  18
ATOM     18  C   UNL     1       6.009   4.410  17.593  0.00  0.00    +0.000 C 
ATOM     19  C   UNL     1       5.790   4.270  16.083  0.00  0.00    +0.000 C 
ATOM     20  C   UNL     1       7.190   5.331  17.879  0.00  0.00    +0.000 C 
ENDBRANCH   3  18
TORSDOF 3
ENDMDL
MODEL 2
REMARK VINA RESULT:      -7.2      1.572      2.738
REMARK  Name = 
REMARK  8 active torsions:
REMARK  status: ('A' for Active; 'I' for Inactive)
REMARK    1  A    between atoms: C_1  and  O_2
REMARK    2  A    between atoms: O_2  and  C_3
REMARK    3  A    between atoms: C_6  and  C_7
REMARK    4  A    between atoms: N_9  and  C_10
REMARK    5  A    between atoms: C_10  and  C_11
REMARK    6  A    between atoms: C_10  and  C_12
REMARK    7  A    between atoms: C_15  and  C_16
REMARK    8  A    between atoms: C_15  and  C_17
REMARK                            x       y       z     vdW  Elec       q    Type
REMARK                         _______ _______ _______ _____ _____    ______ ____
ROOT
ATOM      1  C   UNL     1       2.763   5.954  18.266  0.00  0.00    +0.000 C 
ATOM      2  N   UNL     1       2.009   4.888  18.273  0.00  0.00    +0.000 NA
ATOM      3  N   UNL     1       2.766   3.860  17.753  0.00  0.00    +0.000 N 
ATOM      4  C   UNL     1       4.047   4.237  17.354  0.00  0.00    +0.000 C 
ATOM      5  O   UNL     1       4.912   3.545  16.837  0.00  0.00    +0.000 OA
ATOM      6  C   UNL     1       4.199   5.671  17.823  0.00  0.00    +0.000 C 
ATOM      7  C   UNL     1       5.166   5.600  19.009  0.00  0.00    +0.000 C 
ATOM      8  C   UNL     1       4.694   6.553  16.685  0.00  0.00    +0.000 C 
ENDROOT
BRANCH   1  12
ATOM      9  C   UNL     1       1.217   9.816  19.376  0.00  0.00    +0.000 A 
ATOM     10  C   UNL     1       1.580   9.554  18.056  0.00  0.00    +0.000 A 
ATOM     11  C   UNL     1       2.082   8.305  17.693  0.00  0.00    +0.000 A 
ATOM     12  C   UNL     1       2.261   7.299  18.644  0.00  0.00    +0.000 A 
ATOM     13  C   UNL     1       1.943   7.568  19.981  0.00  0.00    +0.000 A 
ATOM     14  C   UNL     1       1.421   8.819  20.340  0.00  0.00    +0.000 A 
ATOM     15 BR   UNL     1       0.967   9.107  22.164  0.00  0.00    +0.000 Br
BRANCH   9  17
ATOM     16  C   UNL     1      -0.647  11.269  19.348  0.00  0.00    +0.000 C 
ATOM     17  O   UNL     1       0.692  11.020  19.773  0.00  0.00    +0.000 OA
ENDBRANCH   9  17
ENDBRANCH   1  12
BRANCH   3  18
ATOM     18  C   UNL     1       2.356   2.464  17.854  0.00  0.00    +0.000 C 
ATOM     19  C   UNL     1       3.451   1.649  18.551  0.00  0.00    +0.000 C 
ATOM     20  C   UNL     1       1.020   2.283  18.566  0.00  0.00    +0.000 C 
ENDBRANCH   3  18
TORSDOF 3
ENDMDL
MODEL 3
REMARK VINA RESULT:      -7.1      3.401      5.288
REMARK  Name = 
REMARK  8 active torsions:
REMARK  status: ('A' for Active; 'I' for Inactive)
REMARK    1  A    between atoms: C_1  and  O_2
REMARK    2  A    between atoms: O_2  and  C_3
REMARK    3  A    between atoms: C_6  and  C_7
REMARK    4  A    between atoms: N_9  and  C_10
REMARK    5  A    between atoms: C_10  and  C_11
REMARK    6  A    between atoms: C_10  and  C_12
REMARK    7  A    between atoms: C_15  and  C_16
REMARK    8  A    between atoms: C_15  and  C_17
REMARK                            x       y       z     vdW  Elec       q    Type
REMARK                         _______ _______ _______ _____ _____    ______ ____
ROOT
ATOM      1  C   UNL     1       5.084   4.482  16.047  0.00  0.00    +0.000 C 
ATOM      2  N   UNL     1       4.975   3.936  14.865  0.00  0.00    +0.000 NA
ATOM      3  N   UNL     1       6.092   4.310  14.149  0.00  0.00    +0.000 N 
ATOM      4  C   UNL     1       6.961   5.151  14.841  0.00  0.00    +0.000 C 
ATOM      5  O   UNL     1       8.002   5.655  14.444  0.00  0.00    +0.000 OA
ATOM      6  C   UNL     1       6.415   5.205  16.255  0.00  0.00    +0.000 C 
ATOM      7  C   UNL     1       7.397   4.379  17.091  0.00  0.00    +0.000 C 
ATOM      8  C   UNL     1       6.283   6.649  16.719  0.00  0.00    +0.000 C 
ENDROOT
BRANCH   1  12
ATOM      9  C   UNL     1       2.043   4.274  19.087  0.00  0.00    +0.000 A 
ATOM     10  C   UNL     1       2.397   3.136  18.365  0.00  0.00    +0.000 A 
ATOM     11  C   UNL     1       3.382   3.199  17.379  0.00  0.00    +0.000 A 
ATOM     12  C   UNL     1       4.012   4.406  17.071  0.00  0.00    +0.000 A 
ATOM     13  C   UNL     1       3.630   5.564  17.759  0.00  0.00    +0.000 A 
ATOM     14  C   UNL     1       2.653   5.494  18.763  0.00  0.00    +0.000 A 
ATOM     15 BR   UNL     1       2.210   7.092  19.692  0.00  0.00    +0.000 Br
BRANCH   9  17
ATOM     16  C   UNL     1       1.255   3.205  21.043  0.00  0.00    +0.000 C 
ATOM     17  O   UNL     1       1.102   4.252  20.086  0.00  0.00    +0.000 OA
ENDBRANCH   9  17
ENDBRANCH   1  12
BRANCH   3  18
ATOM     18  C   UNL     1       6.455   3.676  12.887  0.00  0.00    +0.000 C 
ATOM     19  C   UNL     1       5.193   3.202  12.159  0.00  0.00    +0.000 C 
ATOM     20  C   UNL     1       7.287   4.578  11.982  0.00  0.00    +0.000 C 
ENDBRANCH   3  18
TORSDOF 3
ENDMDL
MODEL 4
REMARK VINA RESULT:      -6.7      3.904      5.497
REMARK  Name = 
REMARK  8 active torsions:
REMARK  status: ('A' for Active; 'I' for Inactive)
REMARK    1  A    between atoms: C_1  and  O_2
REMARK    2  A    between atoms: O_2  and  C_3
REMARK    3  A    between atoms: C_6  and  C_7
REMARK    4  A    between atoms: N_9  and  C_10
REMARK    5  A    between atoms: C_10  and  C_11
REMARK    6  A    between atoms: C_10  and  C_12
REMARK    7  A    between atoms: C_15  and  C_16
REMARK    8  A    between atoms: C_15  and  C_17
REMARK                            x       y       z     vdW  Elec       q    Type
REMARK                         _______ _______ _______ _____ _____    ______ ____
ROOT
ATOM      1  C   UNL     1       5.318   4.566  16.380  0.00  0.00    +0.000 C 
ATOM      2  N   UNL     1       5.035   4.003  15.236  0.00  0.00    +0.000 NA
ATOM      3  N   UNL     1       6.050   4.338  14.365  0.00  0.00    +0.000 N 
ATOM      4  C   UNL     1       7.025   5.169  14.914  0.00  0.00    +0.000 C 
ATOM      5  O   UNL     1       8.011   5.641  14.367  0.00  0.00    +0.000 OA
ATOM      6  C   UNL     1       6.680   5.260  16.388  0.00  0.00    +0.000 C 
ATOM      7  C   UNL     1       7.750   4.425  17.098  0.00  0.00    +0.000 C 
ATOM      8  C   UNL     1       6.645   6.715  16.836  0.00  0.00    +0.000 C 
ENDROOT
BRANCH   1  12
ATOM      9  C   UNL     1       2.574   4.508  19.697  0.00  0.00    +0.000 A 
ATOM     10  C   UNL     1       3.626   5.422  19.667  0.00  0.00    +0.000 A 
ATOM     11  C   UNL     1       4.517   5.444  18.595  0.00  0.00    +0.000 A 
ATOM     12  C   UNL     1       4.396   4.534  17.543  0.00  0.00    +0.000 A 
ATOM     13  C   UNL     1       3.370   3.582  17.587  0.00  0.00    +0.000 A 
ATOM     14  C   UNL     1       2.464   3.575  18.658  0.00  0.00    +0.000 A 
ATOM     15 BR   UNL     1       1.067   2.285  18.636  0.00  0.00    +0.000 Br
BRANCH   9  17
ATOM     16  C   UNL     1       1.955   3.557  21.771  0.00  0.00    +0.000 C 
ATOM     17  O   UNL     1       1.656   4.471  20.716  0.00  0.00    +0.000 OA
ENDBRANCH   9  17
ENDBRANCH   1  12
BRANCH   3  18
ATOM     18  C   UNL     1       6.221   3.673  13.079  0.00  0.00    +0.000 C 
ATOM     19  C   UNL     1       4.858   3.471  12.410  0.00  0.00    +0.000 C 
ATOM     20  C   UNL     1       7.170   4.416  12.144  0.00  0.00    +0.000 C 
ENDBRANCH   3  18
TORSDOF 3
ENDMDL
MODEL 5
REMARK VINA RESULT:      -6.7      1.437      1.876
REMARK  Name = 
REMARK  8 active torsions:
REMARK  status: ('A' for Active; 'I' for Inactive)
REMARK    1  A    between atoms: C_1  and  O_2
REMARK    2  A    between atoms: O_2  and  C_3
REMARK    3  A    between atoms: C_6  and  C_7
REMARK    4  A    between atoms: N_9  and  C_10
REMARK    5  A    between atoms: C_10  and  C_11
REMARK    6  A    between atoms: C_10  and  C_12
REMARK    7  A    between atoms: C_15  and  C_16
REMARK    8  A    between atoms: C_15  and  C_17
REMARK                            x       y       z     vdW  Elec       q    Type
REMARK                         _______ _______ _______ _____ _____    ______ ____
ROOT
ATOM      1  C   UNL     1       3.049   5.746  18.727  0.00  0.00    +0.000 C 
ATOM      2  N   UNL     1       4.213   5.883  18.152  0.00  0.00    +0.000 NA
ATOM      3  N   UNL     1       4.632   4.620  17.792  0.00  0.00    +0.000 N 
ATOM      4  C   UNL     1       3.755   3.601  18.156  0.00  0.00    +0.000 C 
ATOM      5  O   UNL     1       3.886   2.396  17.992  0.00  0.00    +0.000 OA
ATOM      6  C   UNL     1       2.524   4.311  18.685  0.00  0.00    +0.000 C 
ATOM      7  C   UNL     1       1.458   4.116  17.602  0.00  0.00    +0.000 C 
ATOM      8  C   UNL     1       2.125   3.744  20.042  0.00  0.00    +0.000 C 
ENDROOT
BRANCH   1  12
ATOM      9  C   UNL     1       1.033   9.072  20.573  0.00  0.00    +0.000 A 
ATOM     10  C   UNL     1       1.138   7.853  21.239  0.00  0.00    +0.000 A 
ATOM     11  C   UNL     1       1.790   6.772  20.645  0.00  0.00    +0.000 A 
ATOM     12  C   UNL     1       2.324   6.877  19.359  0.00  0.00    +0.000 A 
ATOM     13  C   UNL     1       2.182   8.084  18.663  0.00  0.00    +0.000 A 
ATOM     14  C   UNL     1       1.543   9.174  19.272  0.00  0.00    +0.000 A 
ATOM     15 BR   UNL     1       1.422  10.799  18.292  0.00  0.00    +0.000 Br
BRANCH   9  17
ATOM     16  C   UNL     1      -0.102   9.972  22.441  0.00  0.00    +0.000 C 
ATOM     17  O   UNL     1       0.428  10.170  21.131  0.00  0.00    +0.000 OA
ENDBRANCH   9  17
ENDBRANCH   1  12
BRANCH   3  18
ATOM     18  C   UNL     1       5.755   4.401  16.888  0.00  0.00    +0.000 C 
ATOM     19  C   UNL     1       5.535   5.175  15.584  0.00  0.00    +0.000 C 
ATOM     20  C   UNL     1       7.100   4.768  17.506  0.00  0.00    +0.000 C 
ENDBRANCH   3  18
TORSDOF 3
ENDMDL
MODEL 6
REMARK VINA RESULT:      -6.7      1.680      3.067
REMARK  Name = 
REMARK  8 active torsions:
REMARK  status: ('A' for Active; 'I' for Inactive)
REMARK    1  A    between atoms: C_1  and  O_2
REMARK    2  A    between atoms: O_2  and  C_3
REMARK    3  A    between atoms: C_6  and  C_7
REMARK    4  A    between atoms: N_9  and  C_10
REMARK    5  A    between atoms: C_10  and  C_11
REMARK    6  A    between atoms: C_10  and  C_12
REMARK    7  A    between atoms: C_15  and  C_16
REMARK    8  A    between atoms: C_15  and  C_17
REMARK                            x       y       z     vdW  Elec       q    Type
REMARK                         _______ _______ _______ _____ _____    ______ ____
ROOT
ATOM      1  C   UNL     1       2.615   5.963  18.865  0.00  0.00    +0.000 C 
ATOM      2  N   UNL     1       1.832   4.993  19.254  0.00  0.00    +0.000 NA
ATOM      3  N   UNL     1       2.475   3.813  18.944  0.00  0.00    +0.000 N 
ATOM      4  C   UNL     1       3.702   3.980  18.305  0.00  0.00    +0.000 C 
ATOM      5  O   UNL     1       4.463   3.117  17.894  0.00  0.00    +0.000 OA
ATOM      6  C   UNL     1       3.966   5.473  18.344  0.00  0.00    +0.000 C 
ATOM      7  C   UNL     1       5.083   5.650  19.378  0.00  0.00    +0.000 C 
ATOM      8  C   UNL     1       4.332   5.985  16.958  0.00  0.00    +0.000 C 
ENDROOT
BRANCH   1  12
ATOM      9  C   UNL     1       1.365  10.080  19.031  0.00  0.00    +0.000 A 
ATOM     10  C   UNL     1       1.936   9.562  17.870  0.00  0.00    +0.000 A 
ATOM     11  C   UNL     1       2.343   8.229  17.812  0.00  0.00    +0.000 A 
ATOM     12  C   UNL     1       2.217   7.392  18.922  0.00  0.00    +0.000 A 
ATOM     13  C   UNL     1       1.687   7.916  20.108  0.00  0.00    +0.000 A 
ATOM     14  C   UNL     1       1.261   9.251  20.157  0.00  0.00    +0.000 A 
ATOM     15 BR   UNL     1       0.509   9.890  21.782  0.00  0.00    +0.000 Br
BRANCH   9  17
ATOM     16  C   UNL     1       1.877  12.371  18.756  0.00  0.00    +0.000 C 
ATOM     17  O   UNL     1       0.923  11.375  19.123  0.00  0.00    +0.000 OA
ENDBRANCH   9  17
ENDBRANCH   1  12
BRANCH   3  18
ATOM     18  C   UNL     1       2.035   2.527  19.471  0.00  0.00    +0.000 C 
ATOM     19  C   UNL     1       1.916   2.599  20.996  0.00  0.00    +0.000 C 
ATOM     20  C   UNL     1       0.725   2.045  18.855  0.00  0.00    +0.000 C 
ENDBRANCH   3  18
TORSDOF 3
ENDMDL
MODEL 7
REMARK VINA RESULT:      -6.4      3.736      5.480
REMARK  Name = 
REMARK  8 active torsions:
REMARK  status: ('A' for Active; 'I' for Inactive)
REMARK    1  A    between atoms: C_1  and  O_2
REMARK    2  A    between atoms: O_2  and  C_3
REMARK    3  A    between atoms: C_6  and  C_7
REMARK    4  A    between atoms: N_9  and  C_10
REMARK    5  A    between atoms: C_10  and  C_11
REMARK    6  A    between atoms: C_10  and  C_12
REMARK    7  A    between atoms: C_15  and  C_16
REMARK    8  A    between atoms: C_15  and  C_17
REMARK                            x       y       z     vdW  Elec       q    Type
REMARK                         _______ _______ _______ _____ _____    ______ ____
ROOT
ATOM      1  C   UNL     1       5.344   4.580  16.261  0.00  0.00    +0.000 C 
ATOM      2  N   UNL     1       5.090   4.013  15.112  0.00  0.00    +0.000 NA
ATOM      3  N   UNL     1       6.123   4.348  14.264  0.00  0.00    +0.000 N 
ATOM      4  C   UNL     1       7.083   5.183  14.833  0.00  0.00    +0.000 C 
ATOM      5  O   UNL     1       8.080   5.656  14.307  0.00  0.00    +0.000 OA
ATOM      6  C   UNL     1       6.704   5.277  16.298  0.00  0.00    +0.000 C 
ATOM      7  C   UNL     1       7.760   4.447  17.035  0.00  0.00    +0.000 C 
ATOM      8  C   UNL     1       6.655   6.733  16.742  0.00  0.00    +0.000 C 
ENDROOT
BRANCH   1  12
ATOM      9  C   UNL     1       2.557   4.404  19.538  0.00  0.00    +0.000 A 
ATOM     10  C   UNL     1       2.424   5.377  18.550  0.00  0.00    +0.000 A 
ATOM     11  C   UNL     1       3.325   5.438  17.487  0.00  0.00    +0.000 A 
ATOM     12  C   UNL     1       4.397   4.548  17.403  0.00  0.00    +0.000 A 
ATOM     13  C   UNL     1       4.566   3.596  18.416  0.00  0.00    +0.000 A 
ATOM     14  C   UNL     1       3.647   3.525  19.474  0.00  0.00    +0.000 A 
ATOM     15 BR   UNL     1       3.906   2.181  20.794  0.00  0.00    +0.000 Br
BRANCH   9  17
ATOM     16  C   UNL     1       0.555   3.440  20.345  0.00  0.00    +0.000 C 
ATOM     17  O   UNL     1       1.678   4.288  20.585  0.00  0.00    +0.000 OA
ENDBRANCH   9  17
ENDBRANCH   1  12
BRANCH   3  18
ATOM     18  C   UNL     1       6.325   3.681  12.983  0.00  0.00    +0.000 C 
ATOM     19  C   UNL     1       4.972   3.386  12.329  0.00  0.00    +0.000 C 
ATOM     20  C   UNL     1       7.219   4.471  12.033  0.00  0.00    +0.000 C 
ENDBRANCH   3  18
TORSDOF 3
ENDMDL
MODEL 8
REMARK VINA RESULT:      -6.3      1.681      2.272
REMARK  Name = 
REMARK  8 active torsions:
REMARK  status: ('A' for Active; 'I' for Inactive)
REMARK    1  A    between atoms: C_1  and  O_2
REMARK    2  A    between atoms: O_2  and  C_3
REMARK    3  A    between atoms: C_6  and  C_7
REMARK    4  A    between atoms: N_9  and  C_10
REMARK    5  A    between atoms: C_10  and  C_11
REMARK    6  A    between atoms: C_10  and  C_12
REMARK    7  A    between atoms: C_15  and  C_16
REMARK    8  A    between atoms: C_15  and  C_17
REMARK                            x       y       z     vdW  Elec       q    Type
REMARK                         _______ _______ _______ _____ _____    ______ ____
ROOT
ATOM      1  C   UNL     1       2.946   6.917  18.656  0.00  0.00    +0.000 C 
ATOM      2  N   UNL     1       3.894   7.393  17.893  0.00  0.00    +0.000 NA
ATOM      3  N   UNL     1       4.644   6.318  17.470  0.00  0.00    +0.000 N 
ATOM      4  C   UNL     1       4.223   5.090  17.978  0.00  0.00    +0.000 C 
ATOM      5  O   UNL     1       4.717   3.987  17.795  0.00  0.00    +0.000 OA
ATOM      6  C   UNL     1       2.926   5.389  18.704  0.00  0.00    +0.000 C 
ATOM      7  C   UNL     1       1.827   4.797  17.815  0.00  0.00    +0.000 C 
ATOM      8  C   UNL     1       2.956   4.802  20.109  0.00  0.00    +0.000 C 
ENDROOT
BRANCH   1  12
ATOM      9  C   UNL     1       0.269   9.497  20.826  0.00  0.00    +0.000 A 
ATOM     10  C   UNL     1       0.689   8.289  21.381  0.00  0.00    +0.000 A 
ATOM     11  C   UNL     1       1.556   7.450  20.680  0.00  0.00    +0.000 A 
ATOM     12  C   UNL     1       1.998   7.784  19.399  0.00  0.00    +0.000 A 
ATOM     13  C   UNL     1       1.543   8.973  18.815  0.00  0.00    +0.000 A 
ATOM     14  C   UNL     1       0.687   9.823  19.529  0.00  0.00    +0.000 A 
ATOM     15 BR   UNL     1       0.141  11.444  18.698  0.00  0.00    +0.000 Br
BRANCH   9  17
ATOM     16  C   UNL     1      -0.557  10.243  22.912  0.00  0.00    +0.000 C 
ATOM     17  O   UNL     1      -0.559  10.366  21.490  0.00  0.00    +0.000 OA
ENDBRANCH   9  17
ENDBRANCH   1  12
BRANCH   3  18
ATOM     18  C   UNL     1       5.619   6.426  16.391  0.00  0.00    +0.000 C 
ATOM     19  C   UNL     1       7.032   6.198  16.939  0.00  0.00    +0.000 C 
ATOM     20  C   UNL     1       5.336   5.476  15.232  0.00  0.00    +0.000 C 
ENDBRANCH   3  18
TORSDOF 3
ENDMDL
MODEL 9
REMARK VINA RESULT:      -6.2      2.355      3.420
REMARK  Name = 
REMARK  8 active torsions:
REMARK  status: ('A' for Active; 'I' for Inactive)
REMARK    1  A    between atoms: C_1  and  O_2
REMARK    2  A    between atoms: O_2  and  C_3
REMARK    3  A    between atoms: C_6  and  C_7
REMARK    4  A    between atoms: N_9  and  C_10
REMARK    5  A    between atoms: C_10  and  C_11
REMARK    6  A    between atoms: C_10  and  C_12
REMARK    7  A    between atoms: C_15  and  C_16
REMARK    8  A    between atoms: C_15  and  C_17
REMARK                            x       y       z     vdW  Elec       q    Type
REMARK                         _______ _______ _______ _____ _____    ______ ____
ROOT
ATOM      1  C   UNL     1       4.928   5.597  17.593  0.00  0.00    +0.000 C 
ATOM      2  N   UNL     1       4.960   5.473  16.293  0.00  0.00    +0.000 NA
ATOM      3  N   UNL     1       6.162   4.876  15.978  0.00  0.00    +0.000 N 
ATOM      4  C   UNL     1       6.978   4.616  17.077  0.00  0.00    +0.000 C 
ATOM      5  O   UNL     1       8.098   4.126  17.088  0.00  0.00    +0.000 OA
ATOM      6  C   UNL     1       6.125   4.946  18.287  0.00  0.00    +0.000 C 
ATOM      7  C   UNL     1       5.769   3.589  18.903  0.00  0.00    +0.000 C 
ATOM      8  C   UNL     1       6.882   5.867  19.236  0.00  0.00    +0.000 C 
ENDROOT
BRANCH   1  12
ATOM      9  C   UNL     1       1.832   7.720  19.700  0.00  0.00    +0.000 A 
ATOM     10  C   UNL     1       2.259   6.470  20.145  0.00  0.00    +0.000 A 
ATOM     11  C   UNL     1       3.262   5.779  19.465  0.00  0.00    +0.000 A 
ATOM     12  C   UNL     1       3.838   6.306  18.309  0.00  0.00    +0.000 A 
ATOM     13  C   UNL     1       3.382   7.539  17.827  0.00  0.00    +0.000 A 
ATOM     14  C   UNL     1       2.388   8.241  18.523  0.00  0.00    +0.000 A 
ATOM     15 BR   UNL     1       1.844   9.931  17.843  0.00  0.00    +0.000 Br
BRANCH   9  17
ATOM     16  C   UNL     1       1.196   8.822  21.692  0.00  0.00    +0.000 C 
ATOM     17  O   UNL     1       0.871   8.449  20.354  0.00  0.00    +0.000 OA
ENDBRANCH   9  17
ENDBRANCH   1  12
BRANCH   3  18
ATOM     18  C   UNL     1       6.436   4.332  14.653  0.00  0.00    +0.000 C 
ATOM     19  C   UNL     1       5.124   4.136  13.887  0.00  0.00    +0.000 C 
ATOM     20  C   UNL     1       7.405   5.188  13.844  0.00  0.00    +0.000 C 
ENDBRANCH   3  18
TORSDOF 3
ENDMDL
