MODEL 1
REMARK VINA RESULT:      -9.1      0.000      0.000
REMARK  Name = 
REMARK  6 active torsions:
REMARK  status: ('A' for Active; 'I' for Inactive)
REMARK    1  A    between atoms: C_2  and  C_3
REMARK    2  A    between atoms: C_7  and  C_8
REMARK    3  A    between atoms: C_14  and  C_15
REMARK    4  A    between atoms: C_19  and  N_20
REMARK    5  A    between atoms: N_20  and  S_21
REMARK    6  A    between atoms: S_21  and  C_24
REMARK                            x       y       z     vdW  Elec       q    Type
REMARK                         _______ _______ _______ _____ _____    ______ ____
ROOT
ATOM      1  C   UNL     1       3.988   4.088  18.196  0.00  0.00    +0.000 A 
ATOM      2  C   UNL     1       3.728   2.747  18.430  0.00  0.00    +0.000 A 
ATOM      3  N   UNL     1       2.750   2.657  19.386  0.00  0.00    +0.000 N 
ATOM      4  C   UNL     1       2.362   3.908  19.768  0.00  0.00    +0.000 A 
ATOM      5  N   UNL     1       1.422   4.159  20.692  0.00  0.00    +0.000 NA
ATOM      6  C   UNL     1       1.208   5.486  20.872  0.00  0.00    +0.000 A 
ATOM      7  C   UNL     1       1.848   6.542  20.210  0.00  0.00    +0.000 A 
ATOM      8  C   UNL     1       2.820   6.186  19.266  0.00  0.00    +0.000 A 
ATOM      9  C   UNL     1       3.098   4.828  19.034  0.00  0.00    +0.000 A 
ATOM     10  H   UNL     1       2.359   1.810  19.768  0.00  0.00    +0.000 HD
ENDROOT
BRANCH   1  15
ATOM     11  C   UNL     1       6.037   4.520  15.067  0.00  0.00    +0.000 A 
ATOM     12  C   UNL     1       6.971   5.471  15.481  0.00  0.00    +0.000 A 
ATOM     13  C   UNL     1       6.930   5.964  16.780  0.00  0.00    +0.000 A 
ATOM     14  C   UNL     1       5.958   5.502  17.668  0.00  0.00    +0.000 A 
ATOM     15  C   UNL     1       5.003   4.558  17.263  0.00  0.00    +0.000 A 
ATOM     16  C   UNL     1       5.051   4.071  15.952  0.00  0.00    +0.000 A 
BRANCH  11  18
ATOM     17  N   UNL     1       6.142   3.553  12.661  0.00  0.00    +0.000 NA
ATOM     18  C   UNL     1       6.093   3.987  13.740  0.00  0.00    +0.000 C 
ENDBRANCH  11  18
ENDBRANCH   1  15
BRANCH   7  19
ATOM     19  C   UNL     1       1.538   7.954  20.487  0.00  0.00    +0.000 A 
ATOM     20  C   UNL     1       1.676   8.513  21.764  0.00  0.00    +0.000 A 
ATOM     21  N   UNL     1       1.380   9.794  22.087  0.00  0.00    +0.000 NA
ATOM     22  C   UNL     1       0.935  10.586  21.082  0.00  0.00    +0.000 A 
ATOM     23  C   UNL     1       0.770  10.145  19.776  0.00  0.00    +0.000 A 
ATOM     24  C   UNL     1       1.063   8.816  19.489  0.00  0.00    +0.000 A 
BRANCH  23  25
ATOM     25  N   UNL     1       0.273  10.975  18.741  0.00  0.00    +0.000 N 
ATOM     26  H   UNL     1       0.504  10.779  17.769  0.00  0.00    +0.000 HD
BRANCH  25  27
ATOM     27  S   UNL     1      -1.106  11.898  18.984  0.00  0.00    +0.000 S 
ATOM     28  O   UNL     1      -1.620  11.515  20.283  0.00  0.00    +0.000 OA
ATOM     29  O   UNL     1      -0.817  13.281  18.671  0.00  0.00    +0.000 OA
BRANCH  27  30
ATOM     30  C   UNL     1      -2.225  11.260  17.757  0.00  0.00    +0.000 A 
ATOM     31  C   UNL     1      -1.810  10.222  16.918  0.00  0.00    +0.000 A 
ATOM     32  C   UNL     1      -2.678   9.744  15.936  0.00  0.00    +0.000 A 
ATOM     33  C   UNL     1      -3.957  10.290  15.809  0.00  0.00    +0.000 A 
ATOM     34  C   UNL     1      -4.380  11.300  16.674  0.00  0.00    +0.000 A 
ATOM     35  C   UNL     1      -3.518  11.785  17.658  0.00  0.00    +0.000 A 
ENDBRANCH  27  30
ENDBRANCH  25  27
ENDBRANCH  23  25
ENDBRANCH   7  19
TORSDOF 6
ENDMDL
MODEL 2
REMARK VINA RESULT:      -8.9      3.730      9.404
REMARK  Name = 
REMARK  6 active torsions:
REMARK  status: ('A' for Active; 'I' for Inactive)
REMARK    1  A    between atoms: C_2  and  C_3
REMARK    2  A    between atoms: C_7  and  C_8
REMARK    3  A    between atoms: C_14  and  C_15
REMARK    4  A    between atoms: C_19  and  N_20
REMARK    5  A    between atoms: N_20  and  S_21
REMARK    6  A    between atoms: S_21  and  C_24
REMARK                            x       y       z     vdW  Elec       q    Type
REMARK                         _______ _______ _______ _____ _____    ______ ____
ROOT
ATOM      1  C   UNL     1      -2.327  12.093  19.731  0.00  0.00    +0.000 A 
ATOM      2  C   UNL     1      -2.442  13.143  20.627  0.00  0.00    +0.000 A 
ATOM      3  N   UNL     1      -1.406  13.065  21.520  0.00  0.00    +0.000 N 
ATOM      4  C   UNL     1      -0.615  11.995  21.217  0.00  0.00    +0.000 A 
ATOM      5  N   UNL     1       0.481  11.645  21.907  0.00  0.00    +0.000 NA
ATOM      6  C   UNL     1       1.100  10.557  21.385  0.00  0.00    +0.000 A 
ATOM      7  C   UNL     1       0.710   9.822  20.258  0.00  0.00    +0.000 A 
ATOM      8  C   UNL     1      -0.451  10.256  19.605  0.00  0.00    +0.000 A 
ATOM      9  C   UNL     1      -1.147  11.374  20.095  0.00  0.00    +0.000 A 
ATOM     10  H   UNL     1      -1.230  13.687  22.293  0.00  0.00    +0.000 HD
ENDROOT
BRANCH   1  15
ATOM     11  C   UNL     1      -3.781  11.132  16.394  0.00  0.00    +0.000 A 
ATOM     12  C   UNL     1      -5.139  11.367  16.609  0.00  0.00    +0.000 A 
ATOM     13  C   UNL     1      -5.575  11.841  17.841  0.00  0.00    +0.000 A 
ATOM     14  C   UNL     1      -4.651  12.086  18.857  0.00  0.00    +0.000 A 
ATOM     15  C   UNL     1      -3.283  11.840  18.662  0.00  0.00    +0.000 A 
ATOM     16  C   UNL     1      -2.857  11.359  17.419  0.00  0.00    +0.000 A 
BRANCH  11  18
ATOM     17  N   UNL     1      -2.952  10.303  14.079  0.00  0.00    +0.000 NA
ATOM     18  C   UNL     1      -3.324  10.672  15.118  0.00  0.00    +0.000 C 
ENDBRANCH  11  18
ENDBRANCH   1  15
BRANCH   7  19
ATOM     19  C   UNL     1       1.459   8.649  19.780  0.00  0.00    +0.000 A 
ATOM     20  C   UNL     1       1.916   8.538  18.461  0.00  0.00    +0.000 A 
ATOM     21  N   UNL     1       2.584   7.474  17.957  0.00  0.00    +0.000 NA
ATOM     22  C   UNL     1       2.838   6.455  18.813  0.00  0.00    +0.000 A 
ATOM     23  C   UNL     1       2.445   6.460  20.144  0.00  0.00    +0.000 A 
ATOM     24  C   UNL     1       1.740   7.560  20.619  0.00  0.00    +0.000 A 
BRANCH  23  25
ATOM     25  N   UNL     1       2.689   5.373  21.021  0.00  0.00    +0.000 N 
ATOM     26  H   UNL     1       3.179   5.523  21.900  0.00  0.00    +0.000 HD
BRANCH  25  27
ATOM     27  S   UNL     1       1.732   3.998  20.953  0.00  0.00    +0.000 S 
ATOM     28  O   UNL     1       1.897   3.332  22.229  0.00  0.00    +0.000 OA
ATOM     29  O   UNL     1       0.420   4.352  20.458  0.00  0.00    +0.000 OA
BRANCH  27  30
ATOM     30  C   UNL     1       2.554   3.009  19.724  0.00  0.00    +0.000 A 
ATOM     31  C   UNL     1       1.984   2.870  18.455  0.00  0.00    +0.000 A 
ATOM     32  C   UNL     1       2.615   2.069  17.503  0.00  0.00    +0.000 A 
ATOM     33  C   UNL     1       3.816   1.428  17.814  0.00  0.00    +0.000 A 
ATOM     34  C   UNL     1       4.401   1.600  19.070  0.00  0.00    +0.000 A 
ATOM     35  C   UNL     1       3.776   2.398  20.029  0.00  0.00    +0.000 A 
ENDBRANCH  27  30
ENDBRANCH  25  27
ENDBRANCH  23  25
ENDBRANCH   7  19
TORSDOF 6
ENDMDL
MODEL 3
REMARK VINA RESULT:      -8.9      1.298      1.748
REMARK  Name = 
REMARK  6 active torsions:
REMARK  status: ('A' for Active; 'I' for Inactive)
REMARK    1  A    between atoms: C_2  and  C_3
REMARK    2  A    between atoms: C_7  and  C_8
REMARK    3  A    between atoms: C_14  and  C_15
REMARK    4  A    between atoms: C_19  and  N_20
REMARK    5  A    between atoms: N_20  and  S_21
REMARK    6  A    between atoms: S_21  and  C_24
REMARK                            x       y       z     vdW  Elec       q    Type
REMARK                         _______ _______ _______ _____ _____    ______ ____
ROOT
ATOM      1  C   UNL     1       3.910   4.156  18.230  0.00  0.00    +0.000 A 
ATOM      2  C   UNL     1       3.580   2.818  18.377  0.00  0.00    +0.000 A 
ATOM      3  N   UNL     1       2.536   2.725  19.260  0.00  0.00    +0.000 N 
ATOM      4  C   UNL     1       2.173   3.972  19.679  0.00  0.00    +0.000 A 
ATOM      5  N   UNL     1       1.183   4.219  20.551  0.00  0.00    +0.000 NA
ATOM      6  C   UNL     1       1.012   5.543  20.783  0.00  0.00    +0.000 A 
ATOM      7  C   UNL     1       1.738   6.602  20.220  0.00  0.00    +0.000 A 
ATOM      8  C   UNL     1       2.757   6.249  19.327  0.00  0.00    +0.000 A 
ATOM      9  C   UNL     1       2.995   4.893  19.044  0.00  0.00    +0.000 A 
ATOM     10  H   UNL     1       2.086   1.879  19.571  0.00  0.00    +0.000 HD
ENDROOT
BRANCH   1  15
ATOM     11  C   UNL     1       6.760   6.234  16.912  0.00  0.00    +0.000 A 
ATOM     12  C   UNL     1       7.107   5.524  15.763  0.00  0.00    +0.000 A 
ATOM     13  C   UNL     1       6.408   4.372  15.421  0.00  0.00    +0.000 A 
ATOM     14  C   UNL     1       5.357   3.933  16.226  0.00  0.00    +0.000 A 
ATOM     15  C   UNL     1       5.004   4.627  17.393  0.00  0.00    +0.000 A 
ATOM     16  C   UNL     1       5.717   5.783  17.730  0.00  0.00    +0.000 A 
BRANCH  11  18
ATOM     17  N   UNL     1       8.019   8.417  17.533  0.00  0.00    +0.000 NA
ATOM     18  C   UNL     1       7.456   7.437  17.253  0.00  0.00    +0.000 C 
ENDBRANCH  11  18
ENDBRANCH   1  15
BRANCH   7  19
ATOM     19  C   UNL     1       1.466   8.010  20.549  0.00  0.00    +0.000 A 
ATOM     20  C   UNL     1       1.602   8.515  21.849  0.00  0.00    +0.000 A 
ATOM     21  N   UNL     1       1.341   9.791  22.218  0.00  0.00    +0.000 NA
ATOM     22  C   UNL     1       0.935  10.635  21.238  0.00  0.00    +0.000 A 
ATOM     23  C   UNL     1       0.776  10.250  19.914  0.00  0.00    +0.000 A 
ATOM     24  C   UNL     1       1.032   8.925  19.579  0.00  0.00    +0.000 A 
BRANCH  23  25
ATOM     25  N   UNL     1       0.320  11.135  18.906  0.00  0.00    +0.000 N 
ATOM     26  H   UNL     1       0.611  11.006  17.939  0.00  0.00    +0.000 HD
BRANCH  25  27
ATOM     27  S   UNL     1      -1.092  12.012  19.124  0.00  0.00    +0.000 S 
ATOM     28  O   UNL     1      -1.600  11.635  20.427  0.00  0.00    +0.000 OA
ATOM     29  O   UNL     1      -0.851  13.398  18.788  0.00  0.00    +0.000 OA
BRANCH  27  30
ATOM     30  C   UNL     1      -2.180  11.313  17.904  0.00  0.00    +0.000 A 
ATOM     31  C   UNL     1      -1.718  10.286  17.075  0.00  0.00    +0.000 A 
ATOM     32  C   UNL     1      -2.564   9.760  16.097  0.00  0.00    +0.000 A 
ATOM     33  C   UNL     1      -3.865  10.247  15.964  0.00  0.00    +0.000 A 
ATOM     34  C   UNL     1      -4.334  11.247  16.818  0.00  0.00    +0.000 A 
ATOM     35  C   UNL     1      -3.495  11.779  17.797  0.00  0.00    +0.000 A 
ENDBRANCH  27  30
ENDBRANCH  25  27
ENDBRANCH  23  25
ENDBRANCH   7  19
TORSDOF 6
ENDMDL
MODEL 4
REMARK VINA RESULT:      -8.8      2.472      3.261
REMARK  Name = 
REMARK  6 active torsions:
REMARK  status: ('A' for Active; 'I' for Inactive)
REMARK    1  A    between atoms: C_2  and  C_3
REMARK    2  A    between atoms: C_7  and  C_8
REMARK    3  A    between atoms: C_14  and  C_15
REMARK    4  A    between atoms: C_19  and  N_20
REMARK    5  A    between atoms: N_20  and  S_21
REMARK    6  A    between atoms: S_21  and  C_24
REMARK                            x       y       z     vdW  Elec       q    Type
REMARK                         _______ _______ _______ _____ _____    ______ ____
ROOT
ATOM      1  C   UNL     1       4.384   4.483  18.332  0.00  0.00    +0.000 A 
ATOM      2  C   UNL     1       4.259   3.283  19.015  0.00  0.00    +0.000 A 
ATOM      3  N   UNL     1       3.315   3.441  19.996  0.00  0.00    +0.000 N 
ATOM      4  C   UNL     1       2.818   4.712  19.958  0.00  0.00    +0.000 A 
ATOM      5  N   UNL     1       1.880   5.182  20.794  0.00  0.00    +0.000 NA
ATOM      6  C   UNL     1       1.545   6.469  20.530  0.00  0.00    +0.000 A 
ATOM      7  C   UNL     1       2.066   7.289  19.519  0.00  0.00    +0.000 A 
ATOM      8  C   UNL     1       3.046   6.715  18.699  0.00  0.00    +0.000 A 
ATOM      9  C   UNL     1       3.447   5.387  18.921  0.00  0.00    +0.000 A 
ATOM     10  H   UNL     1       3.016   2.745  20.659  0.00  0.00    +0.000 HD
ENDROOT
BRANCH   1  15
ATOM     11  C   UNL     1       6.000   4.364  14.933  0.00  0.00    +0.000 A 
ATOM     12  C   UNL     1       7.164   5.099  15.158  0.00  0.00    +0.000 A 
ATOM     13  C   UNL     1       7.419   5.628  16.418  0.00  0.00    +0.000 A 
ATOM     14  C   UNL     1       6.511   5.416  17.456  0.00  0.00    +0.000 A 
ATOM     15  C   UNL     1       5.329   4.692  17.244  0.00  0.00    +0.000 A 
ATOM     16  C   UNL     1       5.081   4.168  15.970  0.00  0.00    +0.000 A 
BRANCH  11  18
ATOM     17  N   UNL     1       5.545   3.327  12.598  0.00  0.00    +0.000 NA
ATOM     18  C   UNL     1       5.747   3.792  13.646  0.00  0.00    +0.000 C 
ENDBRANCH  11  18
ENDBRANCH   1  15
BRANCH   7  19
ATOM     19  C   UNL     1       1.629   8.680  19.325  0.00  0.00    +0.000 A 
ATOM     20  C   UNL     1       2.277   9.552  18.441  0.00  0.00    +0.000 A 
ATOM     21  N   UNL     1       1.939  10.848  18.241  0.00  0.00    +0.000 NA
ATOM     22  C   UNL     1       0.880  11.315  18.944  0.00  0.00    +0.000 A 
ATOM     23  C   UNL     1       0.155  10.540  19.839  0.00  0.00    +0.000 A 
ATOM     24  C   UNL     1       0.546   9.220  20.035  0.00  0.00    +0.000 A 
BRANCH  23  25
ATOM     25  N   UNL     1      -0.932  11.050  20.593  0.00  0.00    +0.000 N 
ATOM     26  H   UNL     1      -1.872  10.688  20.449  0.00  0.00    +0.000 HD
BRANCH  25  27
ATOM     27  S   UNL     1      -0.663  11.792  22.073  0.00  0.00    +0.000 S 
ATOM     28  O   UNL     1      -0.302  10.732  22.991  0.00  0.00    +0.000 OA
ATOM     29  O   UNL     1       0.195  12.941  21.882  0.00  0.00    +0.000 OA
BRANCH  27  30
ATOM     30  C   UNL     1      -2.284  12.362  22.526  0.00  0.00    +0.000 A 
ATOM     31  C   UNL     1      -2.712  12.246  23.852  0.00  0.00    +0.000 A 
ATOM     32  C   UNL     1      -3.996  12.666  24.199  0.00  0.00    +0.000 A 
ATOM     33  C   UNL     1      -4.837  13.214  23.229  0.00  0.00    +0.000 A 
ATOM     34  C   UNL     1      -4.393  13.363  21.915  0.00  0.00    +0.000 A 
ATOM     35  C   UNL     1      -3.111  12.944  21.558  0.00  0.00    +0.000 A 
ENDBRANCH  27  30
ENDBRANCH  25  27
ENDBRANCH  23  25
ENDBRANCH   7  19
TORSDOF 6
ENDMDL
MODEL 5
REMARK VINA RESULT:      -8.7      3.703      9.378
REMARK  Name = 
REMARK  6 active torsions:
REMARK  status: ('A' for Active; 'I' for Inactive)
REMARK    1  A    between atoms: C_2  and  C_3
REMARK    2  A    between atoms: C_7  and  C_8
REMARK    3  A    between atoms: C_14  and  C_15
REMARK    4  A    between atoms: C_19  and  N_20
REMARK    5  A    between atoms: N_20  and  S_21
REMARK    6  A    between atoms: S_21  and  C_24
REMARK                            x       y       z     vdW  Elec       q    Type
REMARK                         _______ _______ _______ _____ _____    ______ ____
ROOT
ATOM      1  C   UNL     1      -1.140  10.979  19.661  0.00  0.00    +0.000 A 
ATOM      2  C   UNL     1      -1.147  12.074  20.511  0.00  0.00    +0.000 A 
ATOM      3  N   UNL     1      -0.269  11.831  21.534  0.00  0.00    +0.000 N 
ATOM      4  C   UNL     1       0.315  10.610  21.362  0.00  0.00    +0.000 A 
ATOM      5  N   UNL     1       1.219  10.078  22.199  0.00  0.00    +0.000 NA
ATOM      6  C   UNL     1       1.659   8.863  21.788  0.00  0.00    +0.000 A 
ATOM      7  C   UNL     1       1.270   8.169  20.635  0.00  0.00    +0.000 A 
ATOM      8  C   UNL     1       0.316   8.797  19.824  0.00  0.00    +0.000 A 
ATOM      9  C   UNL     1      -0.190  10.055  20.193  0.00  0.00    +0.000 A 
ATOM     10  H   UNL     1      -0.067  12.441  22.310  0.00  0.00    +0.000 HD
ENDROOT
BRANCH   1  15
ATOM     11  C   UNL     1      -4.025  11.426  17.282  0.00  0.00    +0.000 A 
ATOM     12  C   UNL     1      -3.608  10.654  16.198  0.00  0.00    +0.000 A 
ATOM     13  C   UNL     1      -2.389   9.988  16.249  0.00  0.00    +0.000 A 
ATOM     14  C   UNL     1      -1.589  10.090  17.387  0.00  0.00    +0.000 A 
ATOM     15  C   UNL     1      -1.986  10.874  18.480  0.00  0.00    +0.000 A 
ATOM     16  C   UNL     1      -3.214  11.543  18.416  0.00  0.00    +0.000 A 
BRANCH  11  18
ATOM     17  N   UNL     1      -6.326  12.626  17.221  0.00  0.00    +0.000 NA
ATOM     18  C   UNL     1      -5.293  12.090  17.248  0.00  0.00    +0.000 C 
ENDBRANCH  11  18
ENDBRANCH   1  15
BRANCH   7  19
ATOM     19  C   UNL     1       1.814   6.846  20.287  0.00  0.00    +0.000 A 
ATOM     20  C   UNL     1       1.643   5.726  21.111  0.00  0.00    +0.000 A 
ATOM     21  N   UNL     1       2.143   4.493  20.859  0.00  0.00    +0.000 NA
ATOM     22  C   UNL     1       2.843   4.346  19.708  0.00  0.00    +0.000 A 
ATOM     23  C   UNL     1       3.066   5.381  18.811  0.00  0.00    +0.000 A 
ATOM     24  C   UNL     1       2.556   6.638  19.116  0.00  0.00    +0.000 A 
BRANCH  23  25
ATOM     25  N   UNL     1       3.827   5.220  17.626  0.00  0.00    +0.000 N 
ATOM     26  H   UNL     1       3.683   5.842  16.834  0.00  0.00    +0.000 HD
BRANCH  25  27
ATOM     27  S   UNL     1       5.314   4.444  17.674  0.00  0.00    +0.000 S 
ATOM     28  O   UNL     1       5.319   3.665  18.895  0.00  0.00    +0.000 OA
ATOM     29  O   UNL     1       5.571   3.826  16.391  0.00  0.00    +0.000 OA
BRANCH  27  30
ATOM     30  C   UNL     1       6.452   5.791  17.894  0.00  0.00    +0.000 A 
ATOM     31  C   UNL     1       7.464   5.690  18.854  0.00  0.00    +0.000 A 
ATOM     32  C   UNL     1       8.338   6.761  19.047  0.00  0.00    +0.000 A 
ATOM     33  C   UNL     1       8.209   7.915  18.272  0.00  0.00    +0.000 A 
ATOM     34  C   UNL     1       7.221   7.997  17.289  0.00  0.00    +0.000 A 
ATOM     35  C   UNL     1       6.342   6.931  17.091  0.00  0.00    +0.000 A 
ENDBRANCH  27  30
ENDBRANCH  25  27
ENDBRANCH  23  25
ENDBRANCH   7  19
TORSDOF 6
ENDMDL
MODEL 6
REMARK VINA RESULT:      -8.7      2.211      3.111
REMARK  Name = 
REMARK  6 active torsions:
REMARK  status: ('A' for Active; 'I' for Inactive)
REMARK    1  A    between atoms: C_2  and  C_3
REMARK    2  A    between atoms: C_7  and  C_8
REMARK    3  A    between atoms: C_14  and  C_15
REMARK    4  A    between atoms: C_19  and  N_20
REMARK    5  A    between atoms: N_20  and  S_21
REMARK    6  A    between atoms: S_21  and  C_24
REMARK                            x       y       z     vdW  Elec       q    Type
REMARK                         _______ _______ _______ _____ _____    ______ ____
ROOT
ATOM      1  C   UNL     1       4.401   4.315  18.000  0.00  0.00    +0.000 A 
ATOM      2  C   UNL     1       4.251   3.133  18.708  0.00  0.00    +0.000 A 
ATOM      3  N   UNL     1       3.350   3.347  19.718  0.00  0.00    +0.000 N 
ATOM      4  C   UNL     1       2.905   4.636  19.674  0.00  0.00    +0.000 A 
ATOM      5  N   UNL     1       2.017   5.159  20.534  0.00  0.00    +0.000 NA
ATOM      6  C   UNL     1       1.725   6.454  20.259  0.00  0.00    +0.000 A 
ATOM      7  C   UNL     1       2.244   7.234  19.217  0.00  0.00    +0.000 A 
ATOM      8  C   UNL     1       3.170   6.607  18.373  0.00  0.00    +0.000 A 
ATOM      9  C   UNL     1       3.524   5.267  18.604  0.00  0.00    +0.000 A 
ATOM     10  H   UNL     1       3.046   2.674  20.404  0.00  0.00    +0.000 HD
ENDROOT
BRANCH   1  15
ATOM     11  C   UNL     1       5.841   4.172  14.523  0.00  0.00    +0.000 A 
ATOM     12  C   UNL     1       7.090   4.761  14.720  0.00  0.00    +0.000 A 
ATOM     13  C   UNL     1       7.458   5.201  15.986  0.00  0.00    +0.000 A 
ATOM     14  C   UNL     1       6.579   5.045  17.058  0.00  0.00    +0.000 A 
ATOM     15  C   UNL     1       5.314   4.467  16.875  0.00  0.00    +0.000 A 
ATOM     16  C   UNL     1       4.952   4.032  15.595  0.00  0.00    +0.000 A 
BRANCH  11  18
ATOM     17  N   UNL     1       5.165   3.302  12.173  0.00  0.00    +0.000 NA
ATOM     18  C   UNL     1       5.468   3.690  13.228  0.00  0.00    +0.000 C 
ENDBRANCH  11  18
ENDBRANCH   1  15
BRANCH   7  19
ATOM     19  C   UNL     1       1.857   8.640  19.013  0.00  0.00    +0.000 A 
ATOM     20  C   UNL     1       2.391   9.421  17.980  0.00  0.00    +0.000 A 
ATOM     21  N   UNL     1       2.096  10.724  17.760  0.00  0.00    +0.000 NA
ATOM     22  C   UNL     1       1.201  11.294  18.602  0.00  0.00    +0.000 A 
ATOM     23  C   UNL     1       0.599  10.615  19.652  0.00  0.00    +0.000 A 
ATOM     24  C   UNL     1       0.945   9.285  19.860  0.00  0.00    +0.000 A 
BRANCH  23  25
ATOM     25  N   UNL     1      -0.312  11.234  20.545  0.00  0.00    +0.000 N 
ATOM     26  H   UNL     1      -0.070  11.352  21.526  0.00  0.00    +0.000 HD
BRANCH  25  27
ATOM     27  S   UNL     1      -1.496  12.269  19.963  0.00  0.00    +0.000 S 
ATOM     28  O   UNL     1      -0.848  13.550  19.770  0.00  0.00    +0.000 OA
ATOM     29  O   UNL     1      -2.210  11.621  18.884  0.00  0.00    +0.000 OA
BRANCH  27  30
ATOM     30  C   UNL     1      -2.593  12.430  21.353  0.00  0.00    +0.000 A 
ATOM     31  C   UNL     1      -3.902  12.880  21.151  0.00  0.00    +0.000 A 
ATOM     32  C   UNL     1      -4.752  13.034  22.247  0.00  0.00    +0.000 A 
ATOM     33  C   UNL     1      -4.299  12.723  23.531  0.00  0.00    +0.000 A 
ATOM     34  C   UNL     1      -3.004  12.239  23.723  0.00  0.00    +0.000 A 
ATOM     35  C   UNL     1      -2.147  12.082  22.633  0.00  0.00    +0.000 A 
ENDBRANCH  27  30
ENDBRANCH  25  27
ENDBRANCH  23  25
ENDBRANCH   7  19
TORSDOF 6
ENDMDL
MODEL 7
REMARK VINA RESULT:      -8.7      2.088      2.766
REMARK  Name = 
REMARK  6 active torsions:
REMARK  status: ('A' for Active; 'I' for Inactive)
REMARK    1  A    between atoms: C_2  and  C_3
REMARK    2  A    between atoms: C_7  and  C_8
REMARK    3  A    between atoms: C_14  and  C_15
REMARK    4  A    between atoms: C_19  and  N_20
REMARK    5  A    between atoms: N_20  and  S_21
REMARK    6  A    between atoms: S_21  and  C_24
REMARK                            x       y       z     vdW  Elec       q    Type
REMARK                         _______ _______ _______ _____ _____    ______ ____
ROOT
ATOM      1  C   UNL     1       4.099   4.062  18.304  0.00  0.00    +0.000 A 
ATOM      2  C   UNL     1       3.869   2.728  18.602  0.00  0.00    +0.000 A 
ATOM      3  N   UNL     1       2.899   2.662  19.567  0.00  0.00    +0.000 N 
ATOM      4  C   UNL     1       2.486   3.920  19.893  0.00  0.00    +0.000 A 
ATOM      5  N   UNL     1       1.546   4.194  20.811  0.00  0.00    +0.000 NA
ATOM      6  C   UNL     1       1.304   5.523  20.930  0.00  0.00    +0.000 A 
ATOM      7  C   UNL     1       1.918   6.561  20.215  0.00  0.00    +0.000 A 
ATOM      8  C   UNL     1       2.892   6.182  19.283  0.00  0.00    +0.000 A 
ATOM      9  C   UNL     1       3.198   4.821  19.113  0.00  0.00    +0.000 A 
ATOM     10  H   UNL     1       2.528   1.826  19.990  0.00  0.00    +0.000 HD
ENDROOT
BRANCH   1  15
ATOM     11  C   UNL     1       6.068   4.454  15.119  0.00  0.00    +0.000 A 
ATOM     12  C   UNL     1       7.037   5.379  15.508  0.00  0.00    +0.000 A 
ATOM     13  C   UNL     1       7.045   5.869  16.809  0.00  0.00    +0.000 A 
ATOM     14  C   UNL     1       6.088   5.429  17.723  0.00  0.00    +0.000 A 
ATOM     15  C   UNL     1       5.098   4.510  17.344  0.00  0.00    +0.000 A 
ATOM     16  C   UNL     1       5.096   4.026  16.031  0.00  0.00    +0.000 A 
BRANCH  11  18
ATOM     17  N   UNL     1       6.072   3.493  12.708  0.00  0.00    +0.000 NA
ATOM     18  C   UNL     1       6.073   3.923  13.789  0.00  0.00    +0.000 C 
ENDBRANCH  11  18
ENDBRANCH   1  15
BRANCH   7  19
ATOM     19  C   UNL     1       1.578   7.977  20.429  0.00  0.00    +0.000 A 
ATOM     20  C   UNL     1       1.575   8.562  21.702  0.00  0.00    +0.000 A 
ATOM     21  N   UNL     1       1.245   9.848  21.965  0.00  0.00    +0.000 NA
ATOM     22  C   UNL     1       0.913  10.619  20.902  0.00  0.00    +0.000 A 
ATOM     23  C   UNL     1       0.892  10.151  19.595  0.00  0.00    +0.000 A 
ATOM     24  C   UNL     1       1.215   8.818  19.368  0.00  0.00    +0.000 A 
BRANCH  23  25
ATOM     25  N   UNL     1       0.512  10.960  18.495  0.00  0.00    +0.000 N 
ATOM     26  H   UNL     1       0.697  10.653  17.543  0.00  0.00    +0.000 HD
BRANCH  25  27
ATOM     27  S   UNL     1      -0.709  12.098  18.663  0.00  0.00    +0.000 S 
ATOM     28  O   UNL     1      -1.433  12.094  17.409  0.00  0.00    +0.000 OA
ATOM     29  O   UNL     1      -1.390  11.886  19.921  0.00  0.00    +0.000 OA
BRANCH  27  30
ATOM     30  C   UNL     1       0.191  13.628  18.756  0.00  0.00    +0.000 A 
ATOM     31  C   UNL     1       1.555  13.646  18.449  0.00  0.00    +0.000 A 
ATOM     32  C   UNL     1       2.267  14.842  18.552  0.00  0.00    +0.000 A 
ATOM     33  C   UNL     1       1.613  16.012  18.942  0.00  0.00    +0.000 A 
ATOM     34  C   UNL     1       0.243  15.997  19.211  0.00  0.00    +0.000 A 
ATOM     35  C   UNL     1      -0.475  14.806  19.112  0.00  0.00    +0.000 A 
ENDBRANCH  27  30
ENDBRANCH  25  27
ENDBRANCH  23  25
ENDBRANCH   7  19
TORSDOF 6
ENDMDL
MODEL 8
REMARK VINA RESULT:      -8.5      1.898      2.602
REMARK  Name = 
REMARK  6 active torsions:
REMARK  status: ('A' for Active; 'I' for Inactive)
REMARK    1  A    between atoms: C_2  and  C_3
REMARK    2  A    between atoms: C_7  and  C_8
REMARK    3  A    between atoms: C_14  and  C_15
REMARK    4  A    between atoms: C_19  and  N_20
REMARK    5  A    between atoms: N_20  and  S_21
REMARK    6  A    between atoms: S_21  and  C_24
REMARK                            x       y       z     vdW  Elec       q    Type
REMARK                         _______ _______ _______ _____ _____    ______ ____
ROOT
ATOM      1  C   UNL     1       4.073   4.212  18.271  0.00  0.00    +0.000 A 
ATOM      2  C   UNL     1       3.837   2.875  18.551  0.00  0.00    +0.000 A 
ATOM      3  N   UNL     1       2.862   2.801  19.511  0.00  0.00    +0.000 N 
ATOM      4  C   UNL     1       2.453   4.058  19.851  0.00  0.00    +0.000 A 
ATOM      5  N   UNL     1       1.510   4.324  20.769  0.00  0.00    +0.000 NA
ATOM      6  C   UNL     1       1.274   5.652  20.903  0.00  0.00    +0.000 A 
ATOM      7  C   UNL     1       1.894   6.696  20.204  0.00  0.00    +0.000 A 
ATOM      8  C   UNL     1       2.871   6.325  19.271  0.00  0.00    +0.000 A 
ATOM      9  C   UNL     1       3.172   4.965  19.085  0.00  0.00    +0.000 A 
ATOM     10  H   UNL     1       2.487   1.962  19.923  0.00  0.00    +0.000 HD
ENDROOT
BRANCH   1  15
ATOM     11  C   UNL     1       6.109   4.575  15.124  0.00  0.00    +0.000 A 
ATOM     12  C   UNL     1       7.028   5.553  15.504  0.00  0.00    +0.000 A 
ATOM     13  C   UNL     1       6.981   6.089  16.786  0.00  0.00    +0.000 A 
ATOM     14  C   UNL     1       6.019   5.641  17.691  0.00  0.00    +0.000 A 
ATOM     15  C   UNL     1       5.078   4.668  17.321  0.00  0.00    +0.000 A 
ATOM     16  C   UNL     1       5.132   4.139  16.026  0.00  0.00    +0.000 A 
BRANCH  11  18
ATOM     17  N   UNL     1       6.223   3.532  12.750  0.00  0.00    +0.000 NA
ATOM     18  C   UNL     1       6.171   3.998  13.816  0.00  0.00    +0.000 C 
ENDBRANCH  11  18
ENDBRANCH   1  15
BRANCH   7  19
ATOM     19  C   UNL     1       1.559   8.111  20.434  0.00  0.00    +0.000 A 
ATOM     20  C   UNL     1       1.610   8.694  21.707  0.00  0.00    +0.000 A 
ATOM     21  N   UNL     1       1.287   9.979  21.985  0.00  0.00    +0.000 NA
ATOM     22  C   UNL     1       0.907  10.750  20.938  0.00  0.00    +0.000 A 
ATOM     23  C   UNL     1       0.831  10.284  19.633  0.00  0.00    +0.000 A 
ATOM     24  C   UNL     1       1.148   8.951  19.390  0.00  0.00    +0.000 A 
BRANCH  23  25
ATOM     25  N   UNL     1       0.400  11.092  18.552  0.00  0.00    +0.000 N 
ATOM     26  H   UNL     1       0.882  11.052  17.656  0.00  0.00    +0.000 HD
BRANCH  25  27
ATOM     27  S   UNL     1      -1.174  11.668  18.499  0.00  0.00    +0.000 S 
ATOM     28  O   UNL     1      -1.501  11.812  17.095  0.00  0.00    +0.000 OA
ATOM     29  O   UNL     1      -2.002  10.877  19.383  0.00  0.00    +0.000 OA
BRANCH  27  30
ATOM     30  C   UNL     1      -1.016  13.303  19.181  0.00  0.00    +0.000 A 
ATOM     31  C   UNL     1      -1.779  13.661  20.297  0.00  0.00    +0.000 A 
ATOM     32  C   UNL     1      -1.676  14.954  20.812  0.00  0.00    +0.000 A 
ATOM     33  C   UNL     1      -0.804  15.873  20.224  0.00  0.00    +0.000 A 
ATOM     34  C   UNL     1      -0.017  15.499  19.134  0.00  0.00    +0.000 A 
ATOM     35  C   UNL     1      -0.115  14.208  18.612  0.00  0.00    +0.000 A 
ENDBRANCH  27  30
ENDBRANCH  25  27
ENDBRANCH  23  25
ENDBRANCH   7  19
TORSDOF 6
ENDMDL
MODEL 9
REMARK VINA RESULT:      -8.5      3.591      9.451
REMARK  Name = 
REMARK  6 active torsions:
REMARK  status: ('A' for Active; 'I' for Inactive)
REMARK    1  A    between atoms: C_2  and  C_3
REMARK    2  A    between atoms: C_7  and  C_8
REMARK    3  A    between atoms: C_14  and  C_15
REMARK    4  A    between atoms: C_19  and  N_20
REMARK    5  A    between atoms: N_20  and  S_21
REMARK    6  A    between atoms: S_21  and  C_24
REMARK                            x       y       z     vdW  Elec       q    Type
REMARK                         _______ _______ _______ _____ _____    ______ ____
ROOT
ATOM      1  C   UNL     1      -1.350  10.924  19.542  0.00  0.00    +0.000 A 
ATOM      2  C   UNL     1      -1.535  11.849  20.558  0.00  0.00    +0.000 A 
ATOM      3  N   UNL     1      -0.631  11.583  21.553  0.00  0.00    +0.000 N 
ATOM      4  C   UNL     1       0.143  10.517  21.200  0.00  0.00    +0.000 A 
ATOM      5  N   UNL     1       1.121  10.006  21.965  0.00  0.00    +0.000 NA
ATOM      6  C   UNL     1       1.753   8.962  21.375  0.00  0.00    +0.000 A 
ATOM      7  C   UNL     1       1.483   8.413  20.114  0.00  0.00    +0.000 A 
ATOM      8  C   UNL     1       0.440   9.006  19.389  0.00  0.00    +0.000 A 
ATOM      9  C   UNL     1      -0.263  10.089  19.944  0.00  0.00    +0.000 A 
ATOM     10  H   UNL     1      -0.531  12.082  22.422  0.00  0.00    +0.000 HD
ENDROOT
BRANCH   1  15
ATOM     11  C   UNL     1      -4.170  11.505  17.115  0.00  0.00    +0.000 A 
ATOM     12  C   UNL     1      -3.730  10.782  16.006  0.00  0.00    +0.000 A 
ATOM     13  C   UNL     1      -2.517  10.105  16.056  0.00  0.00    +0.000 A 
ATOM     14  C   UNL     1      -1.746  10.147  17.217  0.00  0.00    +0.000 A 
ATOM     15  C   UNL     1      -2.166  10.882  18.336  0.00  0.00    +0.000 A 
ATOM     16  C   UNL     1      -3.387  11.563  18.273  0.00  0.00    +0.000 A 
BRANCH  11  18
ATOM     17  N   UNL     1      -6.457  12.731  17.054  0.00  0.00    +0.000 NA
ATOM     18  C   UNL     1      -5.432  12.180  17.080  0.00  0.00    +0.000 C 
ENDBRANCH  11  18
ENDBRANCH   1  15
BRANCH   7  19
ATOM     19  C   UNL     1       2.235   7.271  19.571  0.00  0.00    +0.000 A 
ATOM     20  C   UNL     1       2.222   6.009  20.180  0.00  0.00    +0.000 A 
ATOM     21  N   UNL     1       2.914   4.930  19.745  0.00  0.00    +0.000 NA
ATOM     22  C   UNL     1       3.655   5.096  18.623  0.00  0.00    +0.000 A 
ATOM     23  C   UNL     1       3.734   6.295  17.929  0.00  0.00    +0.000 A 
ATOM     24  C   UNL     1       3.027   7.388  18.420  0.00  0.00    +0.000 A 
BRANCH  23  25
ATOM     25  N   UNL     1       4.538   6.463  16.774  0.00  0.00    +0.000 N 
ATOM     26  H   UNL     1       4.297   7.166  16.078  0.00  0.00    +0.000 HD
BRANCH  25  27
ATOM     27  S   UNL     1       6.141   5.971  16.780  0.00  0.00    +0.000 S 
ATOM     28  O   UNL     1       6.931   7.185  16.733  0.00  0.00    +0.000 OA
ATOM     29  O   UNL     1       6.337   4.990  17.825  0.00  0.00    +0.000 OA
BRANCH  27  30
ATOM     30  C   UNL     1       6.309   5.164  15.204  0.00  0.00    +0.000 A 
ATOM     31  C   UNL     1       7.425   5.433  14.406  0.00  0.00    +0.000 A 
ATOM     32  C   UNL     1       7.539   4.822  13.157  0.00  0.00    +0.000 A 
ATOM     33  C   UNL     1       6.552   3.936  12.720  0.00  0.00    +0.000 A 
ATOM     34  C   UNL     1       5.459   3.642  13.536  0.00  0.00    +0.000 A 
ATOM     35  C   UNL     1       5.336   4.249  14.786  0.00  0.00    +0.000 A 
ENDBRANCH  27  30
ENDBRANCH  25  27
ENDBRANCH  23  25
ENDBRANCH   7  19
TORSDOF 6
ENDMDL
