MODEL 1
REMARK VINA RESULT:      -7.8      0.000      0.000
REMARK  Name = 
REMARK  9 active torsions:
REMARK  status: ('A' for Active; 'I' for Inactive)
REMARK    1  A    between atoms: C_1  and  C_2
REMARK    2  A    between atoms: C_5  and  S_6
REMARK    3  A    between atoms: S_6  and  N_9
REMARK    4  A    between atoms: C_16  and  C_17
REMARK    5  A    between atoms: C_17  and  O_19
REMARK    6  A    between atoms: O_19  and  C_20
REMARK    7  A    between atoms: C_20  and  C_21
REMARK    8  A    between atoms: C_20  and  C_22
REMARK    9  A    between atoms: C_22  and  C_24
REMARK                            x       y       z     vdW  Elec       q    Type
REMARK                         _______ _______ _______ _____ _____    ______ ____
ROOT
ATOM      1  C   UNL     1       0.809   3.275  19.210  0.00  0.00    +0.000 C 
ATOM      2  C   UNL     1       2.017   3.816  18.498  0.00  0.00    +0.000 A 
ATOM      3  C   UNL     1       2.525   3.041  17.436  0.00  0.00    +0.000 A 
ATOM      4  C   UNL     1       3.638   3.443  16.701  0.00  0.00    +0.000 A 
ATOM      5  C   UNL     1       4.268   4.637  17.031  0.00  0.00    +0.000 A 
ATOM      6  C   UNL     1       3.767   5.445  18.063  0.00  0.00    +0.000 A 
ATOM      7  C   UNL     1       2.647   5.036  18.831  0.00  0.00    +0.000 A 
ENDROOT
BRANCH   5   8
ATOM      8  S   UNL     1       5.668   5.148  16.057  0.00  0.00    +0.000 S 
ATOM      9  O   UNL     1       6.335   3.948  15.597  0.00  0.00    +0.000 OA
ATOM     10  O   UNL     1       5.211   6.151  15.120  0.00  0.00    +0.000 OA
BRANCH   8  11
ATOM     11  N   UNL     1       6.680   5.895  17.176  0.00  0.00    +0.000 NA
ATOM     12  C   UNL     1       7.501   5.047  18.075  0.00  0.00    +0.000 C 
ATOM     13  C   UNL     1       7.877   5.884  19.307  0.00  0.00    +0.000 C 
ATOM     14  O   UNL     1       8.590   7.076  18.931  0.00  0.00    +0.000 OA
ATOM     15  C   UNL     1       7.794   7.889  18.052  0.00  0.00    +0.000 C 
ATOM     16  C   UNL     1       7.424   7.119  16.777  0.00  0.00    +0.000 C 
ENDBRANCH   8  11
ENDBRANCH   5   8
BRANCH   7  17
ATOM     17  C   UNL     1       2.240   5.967  19.952  0.00  0.00    +0.000 C 
ATOM     18  O   UNL     1       1.678   5.546  20.956  0.00  0.00    +0.000 OA
BRANCH  17  19
ATOM     19  O   UNL     1       2.511   7.281  19.733  0.00  0.00    +0.000 OA
BRANCH  19  20
ATOM     20  C   UNL     1       1.368   8.178  19.670  0.00  0.00    +0.000 C 
ATOM     21  C   UNL     1       1.293   8.971  20.973  0.00  0.00    +0.000 C 
BRANCH  20  22
ATOM     22  C   UNL     1       1.509   9.189  18.509  0.00  0.00    +0.000 C 
ATOM     23  O   UNL     1       2.300   8.994  17.583  0.00  0.00    +0.000 OA
BRANCH  22  24
ATOM     24  C   UNL     1       0.698  10.466  18.502  0.00  0.00    +0.000 A 
ATOM     25  C   UNL     1      -0.693  10.502  18.326  0.00  0.00    +0.000 A 
ATOM     26  C   UNL     1      -1.377  11.728  18.313  0.00  0.00    +0.000 A 
ATOM     27  C   UNL     1      -0.687  12.930  18.482  0.00  0.00    +0.000 A 
ATOM     28  C   UNL     1       0.692  12.907  18.667  0.00  0.00    +0.000 A 
ATOM     29  C   UNL     1       1.379  11.683  18.674  0.00  0.00    +0.000 A 
ENDBRANCH  22  24
ENDBRANCH  20  22
ENDBRANCH  19  20
ENDBRANCH  17  19
ENDBRANCH   7  17
TORSDOF 7
ENDMDL
MODEL 2
REMARK VINA RESULT:      -7.6      3.443      8.343
REMARK  Name = 
REMARK  9 active torsions:
REMARK  status: ('A' for Active; 'I' for Inactive)
REMARK    1  A    between atoms: C_1  and  C_2
REMARK    2  A    between atoms: C_5  and  S_6
REMARK    3  A    between atoms: S_6  and  N_9
REMARK    4  A    between atoms: C_16  and  C_17
REMARK    5  A    between atoms: C_17  and  O_19
REMARK    6  A    between atoms: O_19  and  C_20
REMARK    7  A    between atoms: C_20  and  C_21
REMARK    8  A    between atoms: C_20  and  C_22
REMARK    9  A    between atoms: C_22  and  C_24
REMARK                            x       y       z     vdW  Elec       q    Type
REMARK                         _______ _______ _______ _____ _____    ______ ____
ROOT
ATOM      1  C   UNL     1       3.589   7.242  17.412  0.00  0.00    +0.000 C 
ATOM      2  C   UNL     1       2.644   8.109  18.197  0.00  0.00    +0.000 A 
ATOM      3  C   UNL     1       2.375   9.389  17.670  0.00  0.00    +0.000 A 
ATOM      4  C   UNL     1       1.514  10.278  18.306  0.00  0.00    +0.000 A 
ATOM      5  C   UNL     1       0.911   9.896  19.499  0.00  0.00    +0.000 A 
ATOM      6  C   UNL     1       1.135   8.617  20.032  0.00  0.00    +0.000 A 
ATOM      7  C   UNL     1       2.025   7.710  19.403  0.00  0.00    +0.000 A 
ENDROOT
BRANCH   5   8
ATOM      8  S   UNL     1      -0.214  11.036  20.278  0.00  0.00    +0.000 S 
ATOM      9  O   UNL     1      -0.563  10.482  21.570  0.00  0.00    +0.000 OA
ATOM     10  O   UNL     1       0.354  12.362  20.166  0.00  0.00    +0.000 OA
BRANCH   8  11
ATOM     11  N   UNL     1      -1.586  10.967  19.307  0.00  0.00    +0.000 NA
ATOM     12  C   UNL     1      -2.421  12.186  19.161  0.00  0.00    +0.000 C 
ATOM     13  C   UNL     1      -3.829  11.751  18.727  0.00  0.00    +0.000 C 
ATOM     14  O   UNL     1      -3.789  11.004  17.497  0.00  0.00    +0.000 OA
ATOM     15  C   UNL     1      -2.972   9.829  17.642  0.00  0.00    +0.000 C 
ATOM     16  C   UNL     1      -1.535  10.205  18.031  0.00  0.00    +0.000 C 
ENDBRANCH   8  11
ENDBRANCH   5   8
BRANCH   7  17
ATOM     17  C   UNL     1       2.226   6.387  20.107  0.00  0.00    +0.000 C 
ATOM     18  O   UNL     1       1.468   6.018  20.996  0.00  0.00    +0.000 OA
BRANCH  17  19
ATOM     19  O   UNL     1       3.317   5.682  19.704  0.00  0.00    +0.000 OA
BRANCH  19  20
ATOM     20  C   UNL     1       3.154   4.241  19.595  0.00  0.00    +0.000 C 
ATOM     21  C   UNL     1       2.117   3.944  18.513  0.00  0.00    +0.000 C 
BRANCH  20  22
ATOM     22  C   UNL     1       4.477   3.555  19.183  0.00  0.00    +0.000 C 
ATOM     23  O   UNL     1       4.922   2.593  19.813  0.00  0.00    +0.000 OA
BRANCH  22  24
ATOM     24  C   UNL     1       5.276   4.075  18.009  0.00  0.00    +0.000 A 
ATOM     25  C   UNL     1       4.944   3.822  16.669  0.00  0.00    +0.000 A 
ATOM     26  C   UNL     1       5.745   4.323  15.631  0.00  0.00    +0.000 A 
ATOM     27  C   UNL     1       6.880   5.087  15.912  0.00  0.00    +0.000 A 
ATOM     28  C   UNL     1       7.215   5.352  17.237  0.00  0.00    +0.000 A 
ATOM     29  C   UNL     1       6.419   4.847  18.277  0.00  0.00    +0.000 A 
ENDBRANCH  22  24
ENDBRANCH  20  22
ENDBRANCH  19  20
ENDBRANCH  17  19
ENDBRANCH   7  17
TORSDOF 7
ENDMDL
MODEL 3
REMARK VINA RESULT:      -7.6      2.167      3.582
REMARK  Name = 
REMARK  9 active torsions:
REMARK  status: ('A' for Active; 'I' for Inactive)
REMARK    1  A    between atoms: C_1  and  C_2
REMARK    2  A    between atoms: C_5  and  S_6
REMARK    3  A    between atoms: S_6  and  N_9
REMARK    4  A    between atoms: C_16  and  C_17
REMARK    5  A    between atoms: C_17  and  O_19
REMARK    6  A    between atoms: O_19  and  C_20
REMARK    7  A    between atoms: C_20  and  C_21
REMARK    8  A    between atoms: C_20  and  C_22
REMARK    9  A    between atoms: C_22  and  C_24
REMARK                            x       y       z     vdW  Elec       q    Type
REMARK                         _______ _______ _______ _____ _____    ______ ____
ROOT
ATOM      1  C   UNL     1       1.371   8.078  21.124  0.00  0.00    +0.000 C 
ATOM      2  C   UNL     1       1.906   7.004  20.219  0.00  0.00    +0.000 A 
ATOM      3  C   UNL     1       2.054   5.719  20.780  0.00  0.00    +0.000 A 
ATOM      4  C   UNL     1       2.537   4.645  20.038  0.00  0.00    +0.000 A 
ATOM      5  C   UNL     1       2.890   4.849  18.709  0.00  0.00    +0.000 A 
ATOM      6  C   UNL     1       2.725   6.109  18.113  0.00  0.00    +0.000 A 
ATOM      7  C   UNL     1       2.253   7.215  18.865  0.00  0.00    +0.000 A 
ENDROOT
BRANCH   5   8
ATOM      8  S   UNL     1       3.473   3.454  17.768  0.00  0.00    +0.000 S 
ATOM      9  O   UNL     1       3.694   2.367  18.700  0.00  0.00    +0.000 OA
ATOM     10  O   UNL     1       2.596   3.291  16.629  0.00  0.00    +0.000 OA
BRANCH   8  11
ATOM     11  N   UNL     1       4.979   3.954  17.206  0.00  0.00    +0.000 NA
ATOM     12  C   UNL     1       5.088   4.476  15.822  0.00  0.00    +0.000 C 
ATOM     13  C   UNL     1       6.551   4.337  15.373  0.00  0.00    +0.000 C 
ATOM     14  O   UNL     1       7.438   5.042  16.260  0.00  0.00    +0.000 OA
ATOM     15  C   UNL     1       7.322   4.539  17.602  0.00  0.00    +0.000 C 
ATOM     16  C   UNL     1       5.886   4.694  18.123  0.00  0.00    +0.000 C 
ENDBRANCH   8  11
ENDBRANCH   5   8
BRANCH   7  17
ATOM     17  C   UNL     1       2.175   8.531  18.125  0.00  0.00    +0.000 C 
ATOM     18  O   UNL     1       3.156   9.006  17.566  0.00  0.00    +0.000 OA
BRANCH  17  19
ATOM     19  O   UNL     1       0.961   9.142  18.167  0.00  0.00    +0.000 OA
BRANCH  19  20
ATOM     20  C   UNL     1       0.850  10.305  19.034  0.00  0.00    +0.000 C 
ATOM     21  C   UNL     1       1.389  11.525  18.289  0.00  0.00    +0.000 C 
BRANCH  20  22
ATOM     22  C   UNL     1      -0.623  10.591  19.406  0.00  0.00    +0.000 C 
ATOM     23  O   UNL     1      -0.963  10.775  20.577  0.00  0.00    +0.000 OA
BRANCH  22  24
ATOM     24  C   UNL     1      -1.692  10.616  18.336  0.00  0.00    +0.000 A 
ATOM     25  C   UNL     1      -1.657   9.819  17.182  0.00  0.00    +0.000 A 
ATOM     26  C   UNL     1      -2.677   9.910  16.222  0.00  0.00    +0.000 A 
ATOM     27  C   UNL     1      -3.747  10.789  16.402  0.00  0.00    +0.000 A 
ATOM     28  C   UNL     1      -3.798  11.579  17.547  0.00  0.00    +0.000 A 
ATOM     29  C   UNL     1      -2.777  11.494  18.505  0.00  0.00    +0.000 A 
ENDBRANCH  22  24
ENDBRANCH  20  22
ENDBRANCH  19  20
ENDBRANCH  17  19
ENDBRANCH   7  17
TORSDOF 7
ENDMDL
MODEL 4
REMARK VINA RESULT:      -7.5      3.324      8.287
REMARK  Name = 
REMARK  9 active torsions:
REMARK  status: ('A' for Active; 'I' for Inactive)
REMARK    1  A    between atoms: C_1  and  C_2
REMARK    2  A    between atoms: C_5  and  S_6
REMARK    3  A    between atoms: S_6  and  N_9
REMARK    4  A    between atoms: C_16  and  C_17
REMARK    5  A    between atoms: C_17  and  O_19
REMARK    6  A    between atoms: O_19  and  C_20
REMARK    7  A    between atoms: C_20  and  C_21
REMARK    8  A    between atoms: C_20  and  C_22
REMARK    9  A    between atoms: C_22  and  C_24
REMARK                            x       y       z     vdW  Elec       q    Type
REMARK                         _______ _______ _______ _____ _____    ______ ____
ROOT
ATOM      1  C   UNL     1       2.332   5.800  20.529  0.00  0.00    +0.000 C 
ATOM      2  C   UNL     1       1.806   7.179  20.241  0.00  0.00    +0.000 A 
ATOM      3  C   UNL     1       0.914   7.726  21.187  0.00  0.00    +0.000 A 
ATOM      4  C   UNL     1       0.366   8.996  21.029  0.00  0.00    +0.000 A 
ATOM      5  C   UNL     1       0.701   9.740  19.904  0.00  0.00    +0.000 A 
ATOM      6  C   UNL     1       1.609   9.235  18.961  0.00  0.00    +0.000 A 
ATOM      7  C   UNL     1       2.159   7.935  19.101  0.00  0.00    +0.000 A 
ENDROOT
BRANCH   5   8
ATOM      8  S   UNL     1       0.014  11.374  19.740  0.00  0.00    +0.000 S 
ATOM      9  O   UNL     1      -0.260  11.864  21.075  0.00  0.00    +0.000 OA
ATOM     10  O   UNL     1       0.861  12.120  18.833  0.00  0.00    +0.000 OA
BRANCH   8  11
ATOM     11  N   UNL     1      -1.465  11.110  18.981  0.00  0.00    +0.000 NA
ATOM     12  C   UNL     1      -2.446  12.221  18.922  0.00  0.00    +0.000 C 
ATOM     13  C   UNL     1      -3.842  11.614  18.711  0.00  0.00    +0.000 C 
ATOM     14  O   UNL     1      -3.890  10.820  17.511  0.00  0.00    +0.000 OA
ATOM     15  C   UNL     1      -2.930   9.751  17.570  0.00  0.00    +0.000 C 
ATOM     16  C   UNL     1      -1.506  10.300  17.735  0.00  0.00    +0.000 C 
ENDBRANCH   8  11
ENDBRANCH   5   8
BRANCH   7  17
ATOM     17  C   UNL     1       3.079   7.485  17.989  0.00  0.00    +0.000 C 
ATOM     18  O   UNL     1       2.937   7.890  16.842  0.00  0.00    +0.000 OA
BRANCH  17  19
ATOM     19  O   UNL     1       4.028   6.584  18.358  0.00  0.00    +0.000 OA
BRANCH  19  20
ATOM     20  C   UNL     1       4.902   6.092  17.305  0.00  0.00    +0.000 C 
ATOM     21  C   UNL     1       6.333   6.044  17.837  0.00  0.00    +0.000 C 
BRANCH  20  22
ATOM     22  C   UNL     1       4.511   4.661  16.870  0.00  0.00    +0.000 C 
ATOM     23  O   UNL     1       4.854   4.208  15.776  0.00  0.00    +0.000 OA
BRANCH  22  24
ATOM     24  C   UNL     1       3.663   3.792  17.772  0.00  0.00    +0.000 A 
ATOM     25  C   UNL     1       4.174   3.072  18.863  0.00  0.00    +0.000 A 
ATOM     26  C   UNL     1       3.329   2.270  19.646  0.00  0.00    +0.000 A 
ATOM     27  C   UNL     1       1.965   2.180  19.358  0.00  0.00    +0.000 A 
ATOM     28  C   UNL     1       1.444   2.896  18.284  0.00  0.00    +0.000 A 
ATOM     29  C   UNL     1       2.288   3.694  17.496  0.00  0.00    +0.000 A 
ENDBRANCH  22  24
ENDBRANCH  20  22
ENDBRANCH  19  20
ENDBRANCH  17  19
ENDBRANCH   7  17
TORSDOF 7
ENDMDL
MODEL 5
REMARK VINA RESULT:      -7.5      1.324      2.058
REMARK  Name = 
REMARK  9 active torsions:
REMARK  status: ('A' for Active; 'I' for Inactive)
REMARK    1  A    between atoms: C_1  and  C_2
REMARK    2  A    between atoms: C_5  and  S_6
REMARK    3  A    between atoms: S_6  and  N_9
REMARK    4  A    between atoms: C_16  and  C_17
REMARK    5  A    between atoms: C_17  and  O_19
REMARK    6  A    between atoms: O_19  and  C_20
REMARK    7  A    between atoms: C_20  and  C_21
REMARK    8  A    between atoms: C_20  and  C_22
REMARK    9  A    between atoms: C_22  and  C_24
REMARK                            x       y       z     vdW  Elec       q    Type
REMARK                         _______ _______ _______ _____ _____    ______ ____
ROOT
ATOM      1  C   UNL     1       1.050   2.770  19.266  0.00  0.00    +0.000 C 
ATOM      2  C   UNL     1       2.217   3.349  18.517  0.00  0.00    +0.000 A 
ATOM      3  C   UNL     1       2.888   2.487  17.625  0.00  0.00    +0.000 A 
ATOM      4  C   UNL     1       3.980   2.913  16.875  0.00  0.00    +0.000 A 
ATOM      5  C   UNL     1       4.426   4.222  17.016  0.00  0.00    +0.000 A 
ATOM      6  C   UNL     1       3.760   5.113  17.873  0.00  0.00    +0.000 A 
ATOM      7  C   UNL     1       2.659   4.684  18.657  0.00  0.00    +0.000 A 
ENDROOT
BRANCH   5   8
ATOM      8  S   UNL     1       5.803   4.756  16.021  0.00  0.00    +0.000 S 
ATOM      9  O   UNL     1       6.578   3.578  15.690  0.00  0.00    +0.000 OA
ATOM     10  O   UNL     1       5.289   5.624  14.984  0.00  0.00    +0.000 OA
BRANCH   8  11
ATOM     11  N   UNL     1       6.721   5.688  17.081  0.00  0.00    +0.000 NA
ATOM     12  C   UNL     1       7.585   5.001  18.073  0.00  0.00    +0.000 C 
ATOM     13  C   UNL     1       7.859   5.980  19.224  0.00  0.00    +0.000 C 
ATOM     14  O   UNL     1       8.483   7.186  18.747  0.00  0.00    +0.000 OA
ATOM     15  C   UNL     1       7.646   7.842  17.779  0.00  0.00    +0.000 C 
ATOM     16  C   UNL     1       7.373   6.926  16.578  0.00  0.00    +0.000 C 
ENDBRANCH   8  11
ENDBRANCH   5   8
BRANCH   7  17
ATOM     17  C   UNL     1       2.065   5.722  19.583  0.00  0.00    +0.000 C 
ATOM     18  O   UNL     1       2.102   5.584  20.799  0.00  0.00    +0.000 OA
BRANCH  17  19
ATOM     19  O   UNL     1       1.467   6.772  18.960  0.00  0.00    +0.000 OA
BRANCH  19  20
ATOM     20  C   UNL     1       2.134   8.060  19.074  0.00  0.00    +0.000 C 
ATOM     21  C   UNL     1       3.008   8.271  17.839  0.00  0.00    +0.000 C 
BRANCH  20  22
ATOM     22  C   UNL     1       1.113   9.219  19.135  0.00  0.00    +0.000 C 
ATOM     23  O   UNL     1       0.792   9.842  18.120  0.00  0.00    +0.000 OA
BRANCH  22  24
ATOM     24  C   UNL     1       0.510   9.640  20.456  0.00  0.00    +0.000 A 
ATOM     25  C   UNL     1      -0.264  10.798  20.624  0.00  0.00    +0.000 A 
ATOM     26  C   UNL     1      -0.777  11.135  21.887  0.00  0.00    +0.000 A 
ATOM     27  C   UNL     1      -0.534  10.320  22.994  0.00  0.00    +0.000 A 
ATOM     28  C   UNL     1       0.225   9.163  22.839  0.00  0.00    +0.000 A 
ATOM     29  C   UNL     1       0.744   8.828  21.579  0.00  0.00    +0.000 A 
ENDBRANCH  22  24
ENDBRANCH  20  22
ENDBRANCH  19  20
ENDBRANCH  17  19
ENDBRANCH   7  17
TORSDOF 7
ENDMDL
MODEL 6
REMARK VINA RESULT:      -7.5      3.644      8.518
REMARK  Name = 
REMARK  9 active torsions:
REMARK  status: ('A' for Active; 'I' for Inactive)
REMARK    1  A    between atoms: C_1  and  C_2
REMARK    2  A    between atoms: C_5  and  S_6
REMARK    3  A    between atoms: S_6  and  N_9
REMARK    4  A    between atoms: C_16  and  C_17
REMARK    5  A    between atoms: C_17  and  O_19
REMARK    6  A    between atoms: O_19  and  C_20
REMARK    7  A    between atoms: C_20  and  C_21
REMARK    8  A    between atoms: C_20  and  C_22
REMARK    9  A    between atoms: C_22  and  C_24
REMARK                            x       y       z     vdW  Elec       q    Type
REMARK                         _______ _______ _______ _____ _____    ______ ____
ROOT
ATOM      1  C   UNL     1       1.684   7.035  21.002  0.00  0.00    +0.000 C 
ATOM      2  C   UNL     1       1.118   8.297  20.413  0.00  0.00    +0.000 A 
ATOM      3  C   UNL     1       0.184   9.000  21.202  0.00  0.00    +0.000 A 
ATOM      4  C   UNL     1      -0.404  10.183  20.762  0.00  0.00    +0.000 A 
ATOM      5  C   UNL     1      -0.066  10.679  19.509  0.00  0.00    +0.000 A 
ATOM      6  C   UNL     1       0.884  10.018  18.714  0.00  0.00    +0.000 A 
ATOM      7  C   UNL     1       1.474   8.802  19.142  0.00  0.00    +0.000 A 
ENDROOT
BRANCH   5   8
ATOM      8  S   UNL     1      -0.804  12.211  18.981  0.00  0.00    +0.000 S 
ATOM      9  O   UNL     1      -1.355  12.852  20.157  0.00  0.00    +0.000 OA
ATOM     10  O   UNL     1       0.154  12.896  18.140  0.00  0.00    +0.000 OA
BRANCH   8  11
ATOM     11  N   UNL     1      -2.094  11.720  18.018  0.00  0.00    +0.000 NA
ATOM     12  C   UNL     1      -1.882  10.620  17.045  0.00  0.00    +0.000 C 
ATOM     13  C   UNL     1      -2.960  10.732  15.956  0.00  0.00    +0.000 C 
ATOM     14  O   UNL     1      -4.282  10.671  16.522  0.00  0.00    +0.000 OA
ATOM     15  C   UNL     1      -4.479  11.733  17.471  0.00  0.00    +0.000 C 
ATOM     16  C   UNL     1      -3.455  11.646  18.612  0.00  0.00    +0.000 C 
ENDBRANCH   8  11
ENDBRANCH   5   8
BRANCH   7  17
ATOM     17  C   UNL     1       2.438   8.158  18.171  0.00  0.00    +0.000 C 
ATOM     18  O   UNL     1       2.745   8.709  17.121  0.00  0.00    +0.000 OA
BRANCH  17  19
ATOM     19  O   UNL     1       2.889   6.930  18.539  0.00  0.00    +0.000 OA
BRANCH  19  20
ATOM     20  C   UNL     1       3.702   6.218  17.566  0.00  0.00    +0.000 C 
ATOM     21  C   UNL     1       5.175   6.505  17.853  0.00  0.00    +0.000 C 
BRANCH  20  22
ATOM     22  C   UNL     1       3.490   4.690  17.665  0.00  0.00    +0.000 C 
ATOM     23  O   UNL     1       3.874   3.931  16.771  0.00  0.00    +0.000 OA
BRANCH  22  24
ATOM     24  C   UNL     1       2.770   4.092  18.853  0.00  0.00    +0.000 A 
ATOM     25  C   UNL     1       3.418   3.671  20.024  0.00  0.00    +0.000 A 
ATOM     26  C   UNL     1       2.685   3.107  21.080  0.00  0.00    +0.000 A 
ATOM     27  C   UNL     1       1.300   2.962  20.987  0.00  0.00    +0.000 A 
ATOM     28  C   UNL     1       0.644   3.383  19.834  0.00  0.00    +0.000 A 
ATOM     29  C   UNL     1       1.375   3.942  18.774  0.00  0.00    +0.000 A 
ENDBRANCH  22  24
ENDBRANCH  20  22
ENDBRANCH  19  20
ENDBRANCH  17  19
ENDBRANCH   7  17
TORSDOF 7
ENDMDL
MODEL 7
REMARK VINA RESULT:      -7.5      2.394      3.568
REMARK  Name = 
REMARK  9 active torsions:
REMARK  status: ('A' for Active; 'I' for Inactive)
REMARK    1  A    between atoms: C_1  and  C_2
REMARK    2  A    between atoms: C_5  and  S_6
REMARK    3  A    between atoms: S_6  and  N_9
REMARK    4  A    between atoms: C_16  and  C_17
REMARK    5  A    between atoms: C_17  and  O_19
REMARK    6  A    between atoms: O_19  and  C_20
REMARK    7  A    between atoms: C_20  and  C_21
REMARK    8  A    between atoms: C_20  and  C_22
REMARK    9  A    between atoms: C_22  and  C_24
REMARK                            x       y       z     vdW  Elec       q    Type
REMARK                         _______ _______ _______ _____ _____    ______ ____
ROOT
ATOM      1  C   UNL     1       1.002   8.144  21.334  0.00  0.00    +0.000 C 
ATOM      2  C   UNL     1       1.704   7.185  20.413  0.00  0.00    +0.000 A 
ATOM      3  C   UNL     1       1.968   5.897  20.922  0.00  0.00    +0.000 A 
ATOM      4  C   UNL     1       2.609   4.924  20.160  0.00  0.00    +0.000 A 
ATOM      5  C   UNL     1       3.006   5.235  18.865  0.00  0.00    +0.000 A 
ATOM      6  C   UNL     1       2.730   6.499  18.320  0.00  0.00    +0.000 A 
ATOM      7  C   UNL     1       2.096   7.504  19.093  0.00  0.00    +0.000 A 
ENDROOT
BRANCH   5   8
ATOM      8  S   UNL     1       3.794   3.965  17.897  0.00  0.00    +0.000 S 
ATOM      9  O   UNL     1       4.156   2.894  18.802  0.00  0.00    +0.000 OA
ATOM     10  O   UNL     1       2.962   3.712  16.740  0.00  0.00    +0.000 OA
BRANCH   8  11
ATOM     11  N   UNL     1       5.219   4.691  17.373  0.00  0.00    +0.000 NA
ATOM     12  C   UNL     1       5.291   5.203  15.982  0.00  0.00    +0.000 C 
ATOM     13  C   UNL     1       6.772   5.292  15.582  0.00  0.00    +0.000 C 
ATOM     14  O   UNL     1       7.505   6.143  16.482  0.00  0.00    +0.000 OA
ATOM     15  C   UNL     1       7.424   5.648  17.830  0.00  0.00    +0.000 C 
ATOM     16  C   UNL     1       5.965   5.579  18.303  0.00  0.00    +0.000 C 
ENDBRANCH   8  11
ENDBRANCH   5   8
BRANCH   7  17
ATOM     17  C   UNL     1       1.907   8.840  18.411  0.00  0.00    +0.000 C 
ATOM     18  O   UNL     1       2.192   8.997  17.230  0.00  0.00    +0.000 OA
BRANCH  17  19
ATOM     19  O   UNL     1       1.443   9.834  19.214  0.00  0.00    +0.000 OA
BRANCH  19  20
ATOM     20  C   UNL     1       0.505  10.770  18.614  0.00  0.00    +0.000 C 
ATOM     21  C   UNL     1      -0.863  10.097  18.513  0.00  0.00    +0.000 C 
BRANCH  20  22
ATOM     22  C   UNL     1       0.344  12.040  19.480  0.00  0.00    +0.000 C 
ATOM     23  O   UNL     1       1.045  13.037  19.290  0.00  0.00    +0.000 OA
BRANCH  22  24
ATOM     24  C   UNL     1      -0.660  12.074  20.610  0.00  0.00    +0.000 A 
ATOM     25  C   UNL     1      -1.909  12.707  20.522  0.00  0.00    +0.000 A 
ATOM     26  C   UNL     1      -2.784  12.714  21.620  0.00  0.00    +0.000 A 
ATOM     27  C   UNL     1      -2.430  12.085  22.815  0.00  0.00    +0.000 A 
ATOM     28  C   UNL     1      -1.197  11.446  22.913  0.00  0.00    +0.000 A 
ATOM     29  C   UNL     1      -0.319  11.443  21.819  0.00  0.00    +0.000 A 
ENDBRANCH  22  24
ENDBRANCH  20  22
ENDBRANCH  19  20
ENDBRANCH  17  19
ENDBRANCH   7  17
TORSDOF 7
ENDMDL
MODEL 8
REMARK VINA RESULT:      -7.4      3.447      8.043
REMARK  Name = 
REMARK  9 active torsions:
REMARK  status: ('A' for Active; 'I' for Inactive)
REMARK    1  A    between atoms: C_1  and  C_2
REMARK    2  A    between atoms: C_5  and  S_6
REMARK    3  A    between atoms: S_6  and  N_9
REMARK    4  A    between atoms: C_16  and  C_17
REMARK    5  A    between atoms: C_17  and  O_19
REMARK    6  A    between atoms: O_19  and  C_20
REMARK    7  A    between atoms: C_20  and  C_21
REMARK    8  A    between atoms: C_20  and  C_22
REMARK    9  A    between atoms: C_22  and  C_24
REMARK                            x       y       z     vdW  Elec       q    Type
REMARK                         _______ _______ _______ _____ _____    ______ ____
ROOT
ATOM      1  C   UNL     1       3.435   7.295  17.368  0.00  0.00    +0.000 C 
ATOM      2  C   UNL     1       2.553   8.188  18.196  0.00  0.00    +0.000 A 
ATOM      3  C   UNL     1       2.268   9.463  17.665  0.00  0.00    +0.000 A 
ATOM      4  C   UNL     1       1.461  10.374  18.340  0.00  0.00    +0.000 A 
ATOM      5  C   UNL     1       0.930  10.020  19.575  0.00  0.00    +0.000 A 
ATOM      6  C   UNL     1       1.172   8.747  20.115  0.00  0.00    +0.000 A 
ATOM      7  C   UNL     1       2.008   7.818  19.446  0.00  0.00    +0.000 A 
ENDROOT
BRANCH   5   8
ATOM      8  S   UNL     1      -0.127  11.188  20.405  0.00  0.00    +0.000 S 
ATOM      9  O   UNL     1      -1.438  11.091  19.799  0.00  0.00    +0.000 OA
ATOM     10  O   UNL     1       0.049  11.007  21.830  0.00  0.00    +0.000 OA
BRANCH   8  11
ATOM     11  N   UNL     1       0.521  12.682  19.981  0.00  0.00    +0.000 NA
ATOM     12  C   UNL     1      -0.402  13.817  19.732  0.00  0.00    +0.000 C 
ATOM     13  C   UNL     1       0.332  14.846  18.859  0.00  0.00    +0.000 C 
ATOM     14  O   UNL     1       1.544  15.298  19.491  0.00  0.00    +0.000 OA
ATOM     15  C   UNL     1       2.430  14.193  19.738  0.00  0.00    +0.000 C 
ATOM     16  C   UNL     1       1.766  13.149  20.646  0.00  0.00    +0.000 C 
ENDBRANCH   8  11
ENDBRANCH   5   8
BRANCH   7  17
ATOM     17  C   UNL     1       2.237   6.504  20.158  0.00  0.00    +0.000 C 
ATOM     18  O   UNL     1       1.516   6.147  21.082  0.00  0.00    +0.000 OA
BRANCH  17  19
ATOM     19  O   UNL     1       3.310   5.792  19.720  0.00  0.00    +0.000 OA
BRANCH  19  20
ATOM     20  C   UNL     1       3.144   4.349  19.643  0.00  0.00    +0.000 C 
ATOM     21  C   UNL     1       2.094   4.032  18.580  0.00  0.00    +0.000 C 
BRANCH  20  22
ATOM     22  C   UNL     1       4.461   3.653  19.230  0.00  0.00    +0.000 C 
ATOM     23  O   UNL     1       4.840   2.619  19.785  0.00  0.00    +0.000 OA
BRANCH  22  24
ATOM     24  C   UNL     1       5.336   4.249  18.150  0.00  0.00    +0.000 A 
ATOM     25  C   UNL     1       6.414   5.109  18.409  0.00  0.00    +0.000 A 
ATOM     26  C   UNL     1       7.172   5.639  17.353  0.00  0.00    +0.000 A 
ATOM     27  C   UNL     1       6.872   5.314  16.028  0.00  0.00    +0.000 A 
ATOM     28  C   UNL     1       5.811   4.455  15.758  0.00  0.00    +0.000 A 
ATOM     29  C   UNL     1       5.048   3.929  16.812  0.00  0.00    +0.000 A 
ENDBRANCH  22  24
ENDBRANCH  20  22
ENDBRANCH  19  20
ENDBRANCH  17  19
ENDBRANCH   7  17
TORSDOF 7
ENDMDL
MODEL 9
REMARK VINA RESULT:      -7.4      3.427      7.681
REMARK  Name = 
REMARK  9 active torsions:
REMARK  status: ('A' for Active; 'I' for Inactive)
REMARK    1  A    between atoms: C_1  and  C_2
REMARK    2  A    between atoms: C_5  and  S_6
REMARK    3  A    between atoms: S_6  and  N_9
REMARK    4  A    between atoms: C_16  and  C_17
REMARK    5  A    between atoms: C_17  and  O_19
REMARK    6  A    between atoms: O_19  and  C_20
REMARK    7  A    between atoms: C_20  and  C_21
REMARK    8  A    between atoms: C_20  and  C_22
REMARK    9  A    between atoms: C_22  and  C_24
REMARK                            x       y       z     vdW  Elec       q    Type
REMARK                         _______ _______ _______ _____ _____    ______ ____
ROOT
ATOM      1  C   UNL     1       1.773   6.606  20.927  0.00  0.00    +0.000 C 
ATOM      2  C   UNL     1       1.319   7.972  20.496  0.00  0.00    +0.000 A 
ATOM      3  C   UNL     1       0.494   8.678  21.396  0.00  0.00    +0.000 A 
ATOM      4  C   UNL     1       0.015   9.953  21.106  0.00  0.00    +0.000 A 
ATOM      5  C   UNL     1       0.353  10.541  19.893  0.00  0.00    +0.000 A 
ATOM      6  C   UNL     1       1.198   9.876  18.990  0.00  0.00    +0.000 A 
ATOM      7  C   UNL     1       1.675   8.569  19.266  0.00  0.00    +0.000 A 
ENDROOT
BRANCH   5   8
ATOM      8  S   UNL     1      -0.242  12.185  19.558  0.00  0.00    +0.000 S 
ATOM      9  O   UNL     1      -0.804  12.177  18.223  0.00  0.00    +0.000 OA
ATOM     10  O   UNL     1      -1.030  12.610  20.695  0.00  0.00    +0.000 OA
BRANCH   8  11
ATOM     11  N   UNL     1       1.160  13.115  19.513  0.00  0.00    +0.000 NA
ATOM     12  C   UNL     1       2.086  13.068  20.672  0.00  0.00    +0.000 C 
ATOM     13  C   UNL     1       2.939  14.346  20.653  0.00  0.00    +0.000 C 
ATOM     14  O   UNL     1       3.667  14.470  19.417  0.00  0.00    +0.000 OA
ATOM     15  C   UNL     1       2.765  14.505  18.297  0.00  0.00    +0.000 C 
ATOM     16  C   UNL     1       1.915  13.228  18.237  0.00  0.00    +0.000 C 
ENDBRANCH   8  11
ENDBRANCH   5   8
BRANCH   7  17
ATOM     17  C   UNL     1       2.529   7.938  18.189  0.00  0.00    +0.000 C 
ATOM     18  O   UNL     1       2.649   8.458  17.086  0.00  0.00    +0.000 OA
BRANCH  17  19
ATOM     19  O   UNL     1       3.103   6.754  18.531  0.00  0.00    +0.000 OA
BRANCH  19  20
ATOM     20  C   UNL     1       3.852   6.070  17.489  0.00  0.00    +0.000 C 
ATOM     21  C   UNL     1       5.342   6.333  17.703  0.00  0.00    +0.000 C 
BRANCH  20  22
ATOM     22  C   UNL     1       3.629   4.541  17.546  0.00  0.00    +0.000 C 
ATOM     23  O   UNL     1       4.091   3.795  16.680  0.00  0.00    +0.000 OA
BRANCH  22  24
ATOM     24  C   UNL     1       2.803   3.929  18.656  0.00  0.00    +0.000 A 
ATOM     25  C   UNL     1       1.412   3.756  18.586  0.00  0.00    +0.000 A 
ATOM     26  C   UNL     1       0.709   3.197  19.664  0.00  0.00    +0.000 A 
ATOM     27  C   UNL     1       1.381   2.795  20.820  0.00  0.00    +0.000 A 
ATOM     28  C   UNL     1       2.762   2.953  20.899  0.00  0.00    +0.000 A 
ATOM     29  C   UNL     1       3.466   3.517  19.825  0.00  0.00    +0.000 A 
ENDBRANCH  22  24
ENDBRANCH  20  22
ENDBRANCH  19  20
ENDBRANCH  17  19
ENDBRANCH   7  17
TORSDOF 7
ENDMDL
