MODEL 1
REMARK VINA RESULT:      -9.2      0.000      0.000
REMARK  Name = 
REMARK  10 active torsions:
REMARK  status: ('A' for Active; 'I' for Inactive)
REMARK    1  A    between atoms: C_1  and  C_2
REMARK    2  A    between atoms: C_2  and  C_3
REMARK    3  A    between atoms: C_3  and  C_4
REMARK    4  A    between atoms: C_3  and  N_17
REMARK    5  A    between atoms: C_9  and  C_10
REMARK    6  A    between atoms: C_10  and  O_12
REMARK    7  A    between atoms: N_15  and  C_16
REMARK    8  A    between atoms: N_21  and  C_22
REMARK    9  A    between atoms: C_25  and  O_26
REMARK   10  A    between atoms: O_26  and  C_27
REMARK                            x       y       z     vdW  Elec       q    Type
REMARK                         _______ _______ _______ _____ _____    ______ ____
ROOT
ATOM      1  N   UNL     1       0.599  10.689  20.442  0.00  0.00    +0.000 N 
ATOM      2  C   UNL     1       0.529  10.205  21.715  0.00  0.00    +0.000 C 
ATOM      3  O   UNL     1       0.160  10.794  22.720  0.00  0.00    +0.000 OA
ATOM      4  C   UNL     1       0.993   8.766  21.717  0.00  0.00    +0.000 C 
ATOM      5  N   UNL     1       1.313   8.574  20.322  0.00  0.00    +0.000 N 
ATOM      6  C   UNL     1       1.064   9.729  19.587  0.00  0.00    +0.000 C 
ATOM      7  O   UNL     1       1.228   9.896  18.387  0.00  0.00    +0.000 OA
ENDROOT
BRANCH   5   8
ATOM      8  C   UNL     1       1.911   7.393  19.838  0.00  0.00    +0.000 A 
ATOM      9  C   UNL     1       2.590   7.373  18.614  0.00  0.00    +0.000 A 
ATOM     10  C   UNL     1       3.247   6.221  18.182  0.00  0.00    +0.000 A 
ATOM     11  C   UNL     1       3.206   5.064  18.950  0.00  0.00    +0.000 A 
ATOM     12  C   UNL     1       2.449   5.040  20.121  0.00  0.00    +0.000 A 
ATOM     13  C   UNL     1       1.847   6.214  20.590  0.00  0.00    +0.000 A 
BRANCH  11  14
ATOM     14  O   UNL     1       3.892   3.984  18.445  0.00  0.00    +0.000 OA
BRANCH  14  15
ATOM     15  C   UNL     1       5.012   4.182  17.670  0.00  0.00    +0.000 A 
ATOM     16  C   UNL     1       4.835   3.992  16.299  0.00  0.00    +0.000 A 
ATOM     17  C   UNL     1       5.911   4.144  15.427  0.00  0.00    +0.000 A 
ATOM     18  C   UNL     1       7.170   4.485  15.923  0.00  0.00    +0.000 A 
ATOM     19  C   UNL     1       7.342   4.713  17.287  0.00  0.00    +0.000 A 
ATOM     20  C   UNL     1       6.255   4.596  18.156  0.00  0.00    +0.000 A 
ENDBRANCH  14  15
ENDBRANCH  11  14
ENDBRANCH   5   8
BRANCH   1  21
ATOM     21  C   UNL     1       0.214  12.019  19.994  0.00  0.00    +0.000 C 
BRANCH  21  22
ATOM     22  C   UNL     1      -1.210  11.989  19.478  0.00  0.00    +0.000 A 
ATOM     23  N   UNL     1      -1.559  11.604  18.263  0.00  0.00    +0.000 NA
ATOM     24  C   UNL     1      -2.921  11.676  18.212  0.00  0.00    +0.000 A 
ATOM     25  C   UNL     1      -3.782  11.359  17.151  0.00  0.00    +0.000 A 
ATOM     26  C   UNL     1      -5.161  11.503  17.338  0.00  0.00    +0.000 A 
ATOM     27  C   UNL     1      -5.681  11.953  18.558  0.00  0.00    +0.000 A 
ATOM     28  C   UNL     1      -4.825  12.302  19.622  0.00  0.00    +0.000 A 
ATOM     29  C   UNL     1      -3.445  12.143  19.412  0.00  0.00    +0.000 A 
ATOM     30  N   UNL     1      -2.332  12.377  20.192  0.00  0.00    +0.000 N 
ATOM     31  C   UNL     1      -2.358  12.925  21.529  0.00  0.00    +0.000 C 
BRANCH  27  32
ATOM     32  C   UNL     1      -7.157  12.099  18.663  0.00  0.00    +0.000 C 
ATOM     33  O   UNL     1      -7.783  12.948  18.052  0.00  0.00    +0.000 OA
BRANCH  32  34
ATOM     34  O   UNL     1      -7.748  11.188  19.464  0.00  0.00    +0.000 OA
ATOM     35  H   UNL     1      -7.814  11.441  20.402  0.00  0.00    +0.000 HD
ENDBRANCH  32  34
ENDBRANCH  27  32
ENDBRANCH  21  22
BRANCH  21  37
ATOM     36  C   UNL     1       1.075  14.085  18.743  0.00  0.00    +0.000 C 
ATOM     37  C   UNL     1       1.202  12.578  18.948  0.00  0.00    +0.000 C 
ENDBRANCH  21  37
ENDBRANCH   1  21
TORSDOF 8
ENDMDL
MODEL 2
REMARK VINA RESULT:      -8.9      0.397      1.197
REMARK  Name = 
REMARK  10 active torsions:
REMARK  status: ('A' for Active; 'I' for Inactive)
REMARK    1  A    between atoms: C_1  and  C_2
REMARK    2  A    between atoms: C_2  and  C_3
REMARK    3  A    between atoms: C_3  and  C_4
REMARK    4  A    between atoms: C_3  and  N_17
REMARK    5  A    between atoms: C_9  and  C_10
REMARK    6  A    between atoms: C_10  and  O_12
REMARK    7  A    between atoms: N_15  and  C_16
REMARK    8  A    between atoms: N_21  and  C_22
REMARK    9  A    between atoms: C_25  and  O_26
REMARK   10  A    between atoms: O_26  and  C_27
REMARK                            x       y       z     vdW  Elec       q    Type
REMARK                         _______ _______ _______ _____ _____    ______ ____
ROOT
ATOM      1  N   UNL     1       0.603  10.892  20.381  0.00  0.00    +0.000 N 
ATOM      2  C   UNL     1       0.560  10.328  21.622  0.00  0.00    +0.000 C 
ATOM      3  O   UNL     1       0.161  10.835  22.660  0.00  0.00    +0.000 OA
ATOM      4  C   UNL     1       1.099   8.918  21.538  0.00  0.00    +0.000 C 
ATOM      5  N   UNL     1       1.429   8.829  20.135  0.00  0.00    +0.000 N 
ATOM      6  C   UNL     1       1.118  10.012  19.471  0.00  0.00    +0.000 C 
ATOM      7  O   UNL     1       1.273  10.261  18.284  0.00  0.00    +0.000 OA
ENDROOT
BRANCH   5   8
ATOM      8  C   UNL     1       2.088   7.714  19.582  0.00  0.00    +0.000 A 
ATOM      9  C   UNL     1       2.023   6.456  20.194  0.00  0.00    +0.000 A 
ATOM     10  C   UNL     1       2.610   5.340  19.596  0.00  0.00    +0.000 A 
ATOM     11  C   UNL     1       3.299   5.473  18.396  0.00  0.00    +0.000 A 
ATOM     12  C   UNL     1       3.457   6.737  17.828  0.00  0.00    +0.000 A 
ATOM     13  C   UNL     1       2.811   7.844  18.390  0.00  0.00    +0.000 A 
BRANCH  11  14
ATOM     14  O   UNL     1       3.834   4.316  17.881  0.00  0.00    +0.000 OA
BRANCH  14  15
ATOM     15  C   UNL     1       4.924   4.375  17.043  0.00  0.00    +0.000 A 
ATOM     16  C   UNL     1       6.164   4.474  17.675  0.00  0.00    +0.000 A 
ATOM     17  C   UNL     1       7.330   4.563  16.919  0.00  0.00    +0.000 A 
ATOM     18  C   UNL     1       7.261   4.556  15.525  0.00  0.00    +0.000 A 
ATOM     19  C   UNL     1       6.029   4.417  14.889  0.00  0.00    +0.000 A 
ATOM     20  C   UNL     1       4.863   4.291  15.649  0.00  0.00    +0.000 A 
ENDBRANCH  14  15
ENDBRANCH  11  14
ENDBRANCH   5   8
BRANCH   1  21
ATOM     21  C   UNL     1       0.149  12.225  20.015  0.00  0.00    +0.000 C 
BRANCH  21  22
ATOM     22  C   UNL     1      -1.284  12.156  19.528  0.00  0.00    +0.000 A 
ATOM     23  N   UNL     1      -1.649  11.751  18.323  0.00  0.00    +0.000 NA
ATOM     24  C   UNL     1      -3.013  11.790  18.299  0.00  0.00    +0.000 A 
ATOM     25  C   UNL     1      -3.887  11.443  17.259  0.00  0.00    +0.000 A 
ATOM     26  C   UNL     1      -5.265  11.556  17.472  0.00  0.00    +0.000 A 
ATOM     27  C   UNL     1      -5.771  12.006  18.698  0.00  0.00    +0.000 A 
ATOM     28  C   UNL     1      -4.902  12.386  19.741  0.00  0.00    +0.000 A 
ATOM     29  C   UNL     1      -3.523  12.257  19.505  0.00  0.00    +0.000 A 
ATOM     30  N   UNL     1      -2.401  12.525  20.260  0.00  0.00    +0.000 N 
ATOM     31  C   UNL     1      -2.414  13.086  21.592  0.00  0.00    +0.000 C 
BRANCH  27  32
ATOM     32  C   UNL     1      -7.248  12.118  18.831  0.00  0.00    +0.000 C 
ATOM     33  O   UNL     1      -7.908  12.931  18.208  0.00  0.00    +0.000 OA
BRANCH  32  34
ATOM     34  O   UNL     1      -7.798  11.219  19.674  0.00  0.00    +0.000 OA
ATOM     35  H   UNL     1      -8.765  11.123  19.604  0.00  0.00    +0.000 HD
ENDBRANCH  32  34
ENDBRANCH  27  32
ENDBRANCH  21  22
BRANCH  21  37
ATOM     36  C   UNL     1       0.782  14.362  18.746  0.00  0.00    +0.000 C 
ATOM     37  C   UNL     1       1.085  12.884  18.980  0.00  0.00    +0.000 C 
ENDBRANCH  21  37
ENDBRANCH   1  21
TORSDOF 8
ENDMDL
MODEL 3
REMARK VINA RESULT:      -8.9      1.649      2.357
REMARK  Name = 
REMARK  10 active torsions:
REMARK  status: ('A' for Active; 'I' for Inactive)
REMARK    1  A    between atoms: C_1  and  C_2
REMARK    2  A    between atoms: C_2  and  C_3
REMARK    3  A    between atoms: C_3  and  C_4
REMARK    4  A    between atoms: C_3  and  N_17
REMARK    5  A    between atoms: C_9  and  C_10
REMARK    6  A    between atoms: C_10  and  O_12
REMARK    7  A    between atoms: N_15  and  C_16
REMARK    8  A    between atoms: N_21  and  C_22
REMARK    9  A    between atoms: C_25  and  O_26
REMARK   10  A    between atoms: O_26  and  C_27
REMARK                            x       y       z     vdW  Elec       q    Type
REMARK                         _______ _______ _______ _____ _____    ______ ____
ROOT
ATOM      1  N   UNL     1       1.456   9.499  19.355  0.00  0.00    +0.000 N 
ATOM      2  C   UNL     1       1.284   8.677  20.430  0.00  0.00    +0.000 C 
ATOM      3  O   UNL     1       0.741   8.939  21.493  0.00  0.00    +0.000 OA
ATOM      4  C   UNL     1       1.884   7.326  20.113  0.00  0.00    +0.000 C 
ATOM      5  N   UNL     1       2.386   7.550  18.779  0.00  0.00    +0.000 N 
ATOM      6  C   UNL     1       2.112   8.845  18.350  0.00  0.00    +0.000 C 
ATOM      7  O   UNL     1       2.401   9.350  17.275  0.00  0.00    +0.000 OA
ENDROOT
BRANCH   5   8
ATOM      8  C   UNL     1       3.151   6.590  18.087  0.00  0.00    +0.000 A 
ATOM      9  C   UNL     1       2.769   5.243  18.055  0.00  0.00    +0.000 A 
ATOM     10  C   UNL     1       3.487   4.315  17.301  0.00  0.00    +0.000 A 
ATOM     11  C   UNL     1       4.617   4.713  16.596  0.00  0.00    +0.000 A 
ATOM     12  C   UNL     1       5.067   6.029  16.700  0.00  0.00    +0.000 A 
ATOM     13  C   UNL     1       4.309   6.975  17.400  0.00  0.00    +0.000 A 
BRANCH  11  14
ATOM     14  O   UNL     1       5.251   3.729  15.875  0.00  0.00    +0.000 OA
BRANCH  14  15
ATOM     15  C   UNL     1       5.942   4.052  14.729  0.00  0.00    +0.000 A 
ATOM     16  C   UNL     1       5.432   3.514  13.547  0.00  0.00    +0.000 A 
ATOM     17  C   UNL     1       6.069   3.759  12.334  0.00  0.00    +0.000 A 
ATOM     18  C   UNL     1       7.223   4.544  12.297  0.00  0.00    +0.000 A 
ATOM     19  C   UNL     1       7.714   5.116  13.468  0.00  0.00    +0.000 A 
ATOM     20  C   UNL     1       7.053   4.899  14.680  0.00  0.00    +0.000 A 
ENDBRANCH  14  15
ENDBRANCH  11  14
ENDBRANCH   5   8
BRANCH   1  21
ATOM     21  C   UNL     1       0.997  10.874  19.230  0.00  0.00    +0.000 C 
BRANCH  21  22
ATOM     22  C   UNL     1      -0.430  10.888  18.722  0.00  0.00    +0.000 A 
ATOM     23  N   UNL     1      -0.869  10.181  17.696  0.00  0.00    +0.000 NA
ATOM     24  C   UNL     1      -2.206  10.434  17.595  0.00  0.00    +0.000 A 
ATOM     25  C   UNL     1      -3.135   9.918  16.680  0.00  0.00    +0.000 A 
ATOM     26  C   UNL     1      -4.471  10.320  16.780  0.00  0.00    +0.000 A 
ATOM     27  C   UNL     1      -4.882  11.220  17.771  0.00  0.00    +0.000 A 
ATOM     28  C   UNL     1      -3.953  11.768  18.677  0.00  0.00    +0.000 A 
ATOM     29  C   UNL     1      -2.618  11.344  18.561  0.00  0.00    +0.000 A 
ATOM     30  N   UNL     1      -1.461  11.653  19.244  0.00  0.00    +0.000 N 
ATOM     31  C   UNL     1      -1.366  12.609  20.323  0.00  0.00    +0.000 C 
BRANCH  27  32
ATOM     32  C   UNL     1      -6.317  11.611  17.790  0.00  0.00    +0.000 C 
ATOM     33  O   UNL     1      -6.738  12.608  17.231  0.00  0.00    +0.000 OA
BRANCH  32  34
ATOM     34  O   UNL     1      -7.118  10.747  18.449  0.00  0.00    +0.000 OA
ATOM     35  H   UNL     1      -7.842  11.157  18.955  0.00  0.00    +0.000 HD
ENDBRANCH  32  34
ENDBRANCH  27  32
ENDBRANCH  21  22
BRANCH  21  37
ATOM     36  C   UNL     1       2.326  13.051  18.964  0.00  0.00    +0.000 C 
ATOM     37  C   UNL     1       1.940  11.712  18.341  0.00  0.00    +0.000 C 
ENDBRANCH  21  37
ENDBRANCH   1  21
TORSDOF 8
ENDMDL
MODEL 4
REMARK VINA RESULT:      -8.8      2.828      5.307
REMARK  Name = 
REMARK  10 active torsions:
REMARK  status: ('A' for Active; 'I' for Inactive)
REMARK    1  A    between atoms: C_1  and  C_2
REMARK    2  A    between atoms: C_2  and  C_3
REMARK    3  A    between atoms: C_3  and  C_4
REMARK    4  A    between atoms: C_3  and  N_17
REMARK    5  A    between atoms: C_9  and  C_10
REMARK    6  A    between atoms: C_10  and  O_12
REMARK    7  A    between atoms: N_15  and  C_16
REMARK    8  A    between atoms: N_21  and  C_22
REMARK    9  A    between atoms: C_25  and  O_26
REMARK   10  A    between atoms: O_26  and  C_27
REMARK                            x       y       z     vdW  Elec       q    Type
REMARK                         _______ _______ _______ _____ _____    ______ ____
ROOT
ATOM      1  N   UNL     1      -0.019  10.362  21.191  0.00  0.00    +0.000 N 
ATOM      2  C   UNL     1       0.274   9.809  22.403  0.00  0.00    +0.000 C 
ATOM      3  O   UNL     1       0.023  10.260  23.511  0.00  0.00    +0.000 OA
ATOM      4  C   UNL     1       0.986   8.494  22.181  0.00  0.00    +0.000 C 
ATOM      5  N   UNL     1       1.033   8.443  20.739  0.00  0.00    +0.000 N 
ATOM      6  C   UNL     1       0.424   9.560  20.177  0.00  0.00    +0.000 C 
ATOM      7  O   UNL     1       0.296   9.819  18.989  0.00  0.00    +0.000 OA
ENDROOT
BRANCH   5   8
ATOM      8  C   UNL     1       1.723   7.432  20.040  0.00  0.00    +0.000 A 
ATOM      9  C   UNL     1       1.819   6.132  20.552  0.00  0.00    +0.000 A 
ATOM     10  C   UNL     1       2.433   5.119  19.816  0.00  0.00    +0.000 A 
ATOM     11  C   UNL     1       2.990   5.398  18.573  0.00  0.00    +0.000 A 
ATOM     12  C   UNL     1       2.990   6.709  18.097  0.00  0.00    +0.000 A 
ATOM     13  C   UNL     1       2.314   7.711  18.803  0.00  0.00    +0.000 A 
BRANCH  11  14
ATOM     14  O   UNL     1       3.563   4.333  17.920  0.00  0.00    +0.000 OA
BRANCH  14  15
ATOM     15  C   UNL     1       4.861   4.419  17.470  0.00  0.00    +0.000 A 
ATOM     16  C   UNL     1       5.031   4.268  16.094  0.00  0.00    +0.000 A 
ATOM     17  C   UNL     1       6.306   4.315  15.536  0.00  0.00    +0.000 A 
ATOM     18  C   UNL     1       7.419   4.511  16.355  0.00  0.00    +0.000 A 
ATOM     19  C   UNL     1       7.252   4.702  17.724  0.00  0.00    +0.000 A 
ATOM     20  C   UNL     1       5.968   4.691  18.278  0.00  0.00    +0.000 A 
ENDBRANCH  14  15
ENDBRANCH  11  14
ENDBRANCH   5   8
BRANCH   1  21
ATOM     21  C   UNL     1      -0.730  11.610  20.953  0.00  0.00    +0.000 C 
BRANCH  21  22
ATOM     22  C   UNL     1       0.267  12.719  20.689  0.00  0.00    +0.000 A 
ATOM     23  N   UNL     1       1.108  13.202  21.588  0.00  0.00    +0.000 NA
ATOM     24  C   UNL     1       1.860  14.144  20.947  0.00  0.00    +0.000 A 
ATOM     25  C   UNL     1       2.902  14.934  21.453  0.00  0.00    +0.000 A 
ATOM     26  C   UNL     1       3.541  15.834  20.593  0.00  0.00    +0.000 A 
ATOM     27  C   UNL     1       3.155  15.949  19.252  0.00  0.00    +0.000 A 
ATOM     28  C   UNL     1       2.091  15.181  18.739  0.00  0.00    +0.000 A 
ATOM     29  C   UNL     1       1.468  14.280  19.620  0.00  0.00    +0.000 A 
ATOM     30  N   UNL     1       0.423  13.391  19.488  0.00  0.00    +0.000 N 
ATOM     31  C   UNL     1      -0.358  13.205  18.286  0.00  0.00    +0.000 C 
BRANCH  27  32
ATOM     32  C   UNL     1       3.874  16.947  18.415  0.00  0.00    +0.000 C 
ATOM     33  O   UNL     1       5.011  17.313  18.653  0.00  0.00    +0.000 OA
BRANCH  32  34
ATOM     34  O   UNL     1       3.171  17.384  17.349  0.00  0.00    +0.000 OA
ATOM     35  H   UNL     1       3.443  18.253  17.002  0.00  0.00    +0.000 HD
ENDBRANCH  32  34
ENDBRANCH  27  32
ENDBRANCH  21  22
BRANCH  21  37
ATOM     36  C   UNL     1      -2.878  12.806  21.681  0.00  0.00    +0.000 C 
ATOM     37  C   UNL     1      -1.689  11.952  22.113  0.00  0.00    +0.000 C 
ENDBRANCH  21  37
ENDBRANCH   1  21
TORSDOF 8
ENDMDL
MODEL 5
REMARK VINA RESULT:      -8.8      2.397      3.339
REMARK  Name = 
REMARK  10 active torsions:
REMARK  status: ('A' for Active; 'I' for Inactive)
REMARK    1  A    between atoms: C_1  and  C_2
REMARK    2  A    between atoms: C_2  and  C_3
REMARK    3  A    between atoms: C_3  and  C_4
REMARK    4  A    between atoms: C_3  and  N_17
REMARK    5  A    between atoms: C_9  and  C_10
REMARK    6  A    between atoms: C_10  and  O_12
REMARK    7  A    between atoms: N_15  and  C_16
REMARK    8  A    between atoms: N_21  and  C_22
REMARK    9  A    between atoms: C_25  and  O_26
REMARK   10  A    between atoms: O_26  and  C_27
REMARK                            x       y       z     vdW  Elec       q    Type
REMARK                         _______ _______ _______ _____ _____    ______ ____
ROOT
ATOM      1  N   UNL     1      -0.431  12.192  19.878  0.00  0.00    +0.000 N 
ATOM      2  C   UNL     1      -1.247  11.733  18.886  0.00  0.00    +0.000 C 
ATOM      3  O   UNL     1      -2.288  12.232  18.483  0.00  0.00    +0.000 OA
ATOM      4  C   UNL     1      -0.660  10.460  18.320  0.00  0.00    +0.000 C 
ATOM      5  N   UNL     1       0.525  10.315  19.130  0.00  0.00    +0.000 N 
ATOM      6  C   UNL     1       0.641  11.360  20.042  0.00  0.00    +0.000 C 
ATOM      7  O   UNL     1       1.526  11.532  20.867  0.00  0.00    +0.000 OA
ENDROOT
BRANCH   5   8
ATOM      8  C   UNL     1       1.361   9.183  19.052  0.00  0.00    +0.000 A 
ATOM      9  C   UNL     1       1.467   8.284  20.121  0.00  0.00    +0.000 A 
ATOM     10  C   UNL     1       2.233   7.125  20.005  0.00  0.00    +0.000 A 
ATOM     11  C   UNL     1       2.933   6.865  18.832  0.00  0.00    +0.000 A 
ATOM     12  C   UNL     1       2.918   7.801  17.798  0.00  0.00    +0.000 A 
ATOM     13  C   UNL     1       2.095   8.930  17.888  0.00  0.00    +0.000 A 
BRANCH  11  14
ATOM     14  O   UNL     1       3.652   5.693  18.810  0.00  0.00    +0.000 OA
BRANCH  14  15
ATOM     15  C   UNL     1       4.679   5.532  17.908  0.00  0.00    +0.000 A 
ATOM     16  C   UNL     1       4.429   4.637  16.867  0.00  0.00    +0.000 A 
ATOM     17  C   UNL     1       5.411   4.382  15.912  0.00  0.00    +0.000 A 
ATOM     18  C   UNL     1       6.648   5.023  15.995  0.00  0.00    +0.000 A 
ATOM     19  C   UNL     1       6.887   5.947  17.009  0.00  0.00    +0.000 A 
ATOM     20  C   UNL     1       5.889   6.228  17.946  0.00  0.00    +0.000 A 
ENDBRANCH  14  15
ENDBRANCH  11  14
ENDBRANCH   5   8
BRANCH   1  21
ATOM     21  C   UNL     1      -0.610  13.406  20.660  0.00  0.00    +0.000 C 
BRANCH  21  22
ATOM     22  C   UNL     1      -2.026  13.459  21.198  0.00  0.00    +0.000 A 
ATOM     23  N   UNL     1      -2.958  14.295  20.775  0.00  0.00    +0.000 NA
ATOM     24  C   UNL     1      -4.093  13.991  21.470  0.00  0.00    +0.000 A 
ATOM     25  C   UNL     1      -5.365  14.575  21.380  0.00  0.00    +0.000 A 
ATOM     26  C   UNL     1      -6.390  14.082  22.195  0.00  0.00    +0.000 A 
ATOM     27  C   UNL     1      -6.159  13.027  23.086  0.00  0.00    +0.000 A 
ATOM     28  C   UNL     1      -4.879  12.451  23.206  0.00  0.00    +0.000 A 
ATOM     29  C   UNL     1      -3.867  12.958  22.373  0.00  0.00    +0.000 A 
ATOM     30  N   UNL     1      -2.530  12.662  22.212  0.00  0.00    +0.000 N 
ATOM     31  C   UNL     1      -1.803  11.676  22.979  0.00  0.00    +0.000 C 
BRANCH  27  32
ATOM     32  C   UNL     1      -7.299  12.581  23.931  0.00  0.00    +0.000 C 
ATOM     33  O   UNL     1      -7.746  11.448  23.894  0.00  0.00    +0.000 OA
BRANCH  32  34
ATOM     34  O   UNL     1      -7.772  13.528  24.768  0.00  0.00    +0.000 OA
ATOM     35  H   UNL     1      -7.751  13.294  25.713  0.00  0.00    +0.000 HD
ENDBRANCH  32  34
ENDBRANCH  27  32
ENDBRANCH  21  22
BRANCH  21  37
ATOM     36  C   UNL     1       0.820  15.529  20.517  0.00  0.00    +0.000 C 
ATOM     37  C   UNL     1      -0.248  14.668  19.848  0.00  0.00    +0.000 C 
ENDBRANCH  21  37
ENDBRANCH   1  21
TORSDOF 8
ENDMDL
MODEL 6
REMARK VINA RESULT:      -8.8      3.138      4.227
REMARK  Name = 
REMARK  10 active torsions:
REMARK  status: ('A' for Active; 'I' for Inactive)
REMARK    1  A    between atoms: C_1  and  C_2
REMARK    2  A    between atoms: C_2  and  C_3
REMARK    3  A    between atoms: C_3  and  C_4
REMARK    4  A    between atoms: C_3  and  N_17
REMARK    5  A    between atoms: C_9  and  C_10
REMARK    6  A    between atoms: C_10  and  O_12
REMARK    7  A    between atoms: N_15  and  C_16
REMARK    8  A    between atoms: N_21  and  C_22
REMARK    9  A    between atoms: C_25  and  O_26
REMARK   10  A    between atoms: O_26  and  C_27
REMARK                            x       y       z     vdW  Elec       q    Type
REMARK                         _______ _______ _______ _____ _____    ______ ____
ROOT
ATOM      1  N   UNL     1      -0.120  12.473  20.447  0.00  0.00    +0.000 N 
ATOM      2  C   UNL     1      -0.861  12.330  19.311  0.00  0.00    +0.000 C 
ATOM      3  O   UNL     1      -1.759  13.053  18.907  0.00  0.00    +0.000 OA
ATOM      4  C   UNL     1      -0.396  11.092  18.578  0.00  0.00    +0.000 C 
ATOM      5  N   UNL     1       0.643  10.619  19.461  0.00  0.00    +0.000 N 
ATOM      6  C   UNL     1       0.791  11.461  20.559  0.00  0.00    +0.000 C 
ATOM      7  O   UNL     1       1.579  11.343  21.486  0.00  0.00    +0.000 OA
ENDROOT
BRANCH   5   8
ATOM      8  C   UNL     1       1.311   9.395  19.257  0.00  0.00    +0.000 A 
ATOM      9  C   UNL     1       1.402   8.439  20.276  0.00  0.00    +0.000 A 
ATOM     10  C   UNL     1       1.993   7.198  20.040  0.00  0.00    +0.000 A 
ATOM     11  C   UNL     1       2.533   6.907  18.792  0.00  0.00    +0.000 A 
ATOM     12  C   UNL     1       2.539   7.887  17.799  0.00  0.00    +0.000 A 
ATOM     13  C   UNL     1       1.886   9.106  18.013  0.00  0.00    +0.000 A 
BRANCH  11  14
ATOM     14  O   UNL     1       3.085   5.656  18.654  0.00  0.00    +0.000 OA
BRANCH  14  15
ATOM     15  C   UNL     1       2.539   4.585  19.325  0.00  0.00    +0.000 A 
ATOM     16  C   UNL     1       1.480   3.948  18.677  0.00  0.00    +0.000 A 
ATOM     17  C   UNL     1       0.840   2.867  19.279  0.00  0.00    +0.000 A 
ATOM     18  C   UNL     1       1.256   2.419  20.534  0.00  0.00    +0.000 A 
ATOM     19  C   UNL     1       2.338   3.027  21.166  0.00  0.00    +0.000 A 
ATOM     20  C   UNL     1       3.002   4.088  20.545  0.00  0.00    +0.000 A 
ENDBRANCH  14  15
ENDBRANCH  11  14
ENDBRANCH   5   8
BRANCH   1  21
ATOM     21  C   UNL     1      -0.221  13.550  21.421  0.00  0.00    +0.000 C 
BRANCH  21  22
ATOM     22  C   UNL     1      -1.652  13.667  21.903  0.00  0.00    +0.000 A 
ATOM     23  N   UNL     1      -2.446  14.694  21.655  0.00  0.00    +0.000 NA
ATOM     24  C   UNL     1      -3.654  14.393  22.216  0.00  0.00    +0.000 A 
ATOM     25  C   UNL     1      -4.837  15.146  22.219  0.00  0.00    +0.000 A 
ATOM     26  C   UNL     1      -5.966  14.621  22.856  0.00  0.00    +0.000 A 
ATOM     27  C   UNL     1      -5.926  13.368  23.480  0.00  0.00    +0.000 A 
ATOM     28  C   UNL     1      -4.735  12.614  23.508  0.00  0.00    +0.000 A 
ATOM     29  C   UNL     1      -3.616  13.160  22.856  0.00  0.00    +0.000 A 
ATOM     30  N   UNL     1      -2.317  12.732  22.680  0.00  0.00    +0.000 N 
ATOM     31  C   UNL     1      -1.768  11.509  23.218  0.00  0.00    +0.000 C 
BRANCH  27  32
ATOM     32  C   UNL     1      -7.166  12.895  24.152  0.00  0.00    +0.000 C 
ATOM     33  O   UNL     1      -7.916  13.643  24.755  0.00  0.00    +0.000 OA
BRANCH  32  34
ATOM     34  O   UNL     1      -7.406  11.575  24.008  0.00  0.00    +0.000 OA
ATOM     35  H   UNL     1      -8.343  11.316  24.063  0.00  0.00    +0.000 HD
ENDBRANCH  32  34
ENDBRANCH  27  32
ENDBRANCH  21  22
BRANCH  21  37
ATOM     36  C   UNL     1       1.284  15.592  21.798  0.00  0.00    +0.000 C 
ATOM     37  C   UNL     1       0.314  14.884  20.856  0.00  0.00    +0.000 C 
ENDBRANCH  21  37
ENDBRANCH   1  21
TORSDOF 8
ENDMDL
MODEL 7
REMARK VINA RESULT:      -8.5      2.875      5.931
REMARK  Name = 
REMARK  10 active torsions:
REMARK  status: ('A' for Active; 'I' for Inactive)
REMARK    1  A    between atoms: C_1  and  C_2
REMARK    2  A    between atoms: C_2  and  C_3
REMARK    3  A    between atoms: C_3  and  C_4
REMARK    4  A    between atoms: C_3  and  N_17
REMARK    5  A    between atoms: C_9  and  C_10
REMARK    6  A    between atoms: C_10  and  O_12
REMARK    7  A    between atoms: N_15  and  C_16
REMARK    8  A    between atoms: N_21  and  C_22
REMARK    9  A    between atoms: C_25  and  O_26
REMARK   10  A    between atoms: O_26  and  C_27
REMARK                            x       y       z     vdW  Elec       q    Type
REMARK                         _______ _______ _______ _____ _____    ______ ____
ROOT
ATOM      1  N   UNL     1       0.592  10.470  20.525  0.00  0.00    +0.000 N 
ATOM      2  C   UNL     1       0.706  10.020  21.807  0.00  0.00    +0.000 C 
ATOM      3  O   UNL     1       0.421  10.613  22.836  0.00  0.00    +0.000 OA
ATOM      4  C   UNL     1       1.260   8.613  21.783  0.00  0.00    +0.000 C 
ATOM      5  N   UNL     1       1.425   8.402  20.365  0.00  0.00    +0.000 N 
ATOM      6  C   UNL     1       1.014   9.517  19.641  0.00  0.00    +0.000 C 
ATOM      7  O   UNL     1       1.024   9.660  18.426  0.00  0.00    +0.000 OA
ENDROOT
BRANCH   5   8
ATOM      8  C   UNL     1       2.037   7.248  19.837  0.00  0.00    +0.000 A 
ATOM      9  C   UNL     1       2.737   7.287  18.625  0.00  0.00    +0.000 A 
ATOM     10  C   UNL     1       3.408   6.160  18.151  0.00  0.00    +0.000 A 
ATOM     11  C   UNL     1       3.361   4.968  18.865  0.00  0.00    +0.000 A 
ATOM     12  C   UNL     1       2.585   4.887  20.021  0.00  0.00    +0.000 A 
ATOM     13  C   UNL     1       1.968   6.035  20.533  0.00  0.00    +0.000 A 
BRANCH  11  14
ATOM     14  O   UNL     1       4.062   3.917  18.323  0.00  0.00    +0.000 OA
BRANCH  14  15
ATOM     15  C   UNL     1       5.040   4.152  17.385  0.00  0.00    +0.000 A 
ATOM     16  C   UNL     1       6.304   4.450  17.896  0.00  0.00    +0.000 A 
ATOM     17  C   UNL     1       7.361   4.728  17.033  0.00  0.00    +0.000 A 
ATOM     18  C   UNL     1       7.158   4.711  15.652  0.00  0.00    +0.000 A 
ATOM     19  C   UNL     1       5.908   4.376  15.136  0.00  0.00    +0.000 A 
ATOM     20  C   UNL     1       4.858   4.062  16.003  0.00  0.00    +0.000 A 
ENDBRANCH  14  15
ENDBRANCH  11  14
ENDBRANCH   5   8
BRANCH   1  21
ATOM     21  C   UNL     1       0.070  11.760  20.099  0.00  0.00    +0.000 C 
BRANCH  21  22
ATOM     22  C   UNL     1       1.123  12.828  20.309  0.00  0.00    +0.000 A 
ATOM     23  N   UNL     1       1.329  13.465  21.449  0.00  0.00    +0.000 NA
ATOM     24  C   UNL     1       2.387  14.302  21.238  0.00  0.00    +0.000 A 
ATOM     25  C   UNL     1       3.007  15.182  22.136  0.00  0.00    +0.000 A 
ATOM     26  C   UNL     1       4.096  15.940  21.691  0.00  0.00    +0.000 A 
ATOM     27  C   UNL     1       4.564  15.828  20.375  0.00  0.00    +0.000 A 
ATOM     28  C   UNL     1       3.931  14.968  19.456  0.00  0.00    +0.000 A 
ATOM     29  C   UNL     1       2.843  14.213  19.928  0.00  0.00    +0.000 A 
ATOM     30  N   UNL     1       1.996  13.297  19.341  0.00  0.00    +0.000 N 
ATOM     31  C   UNL     1       2.038  12.904  17.951  0.00  0.00    +0.000 C 
BRANCH  27  32
ATOM     32  C   UNL     1       5.712  16.687  19.980  0.00  0.00    +0.000 C 
ATOM     33  O   UNL     1       5.604  17.615  19.197  0.00  0.00    +0.000 OA
BRANCH  32  34
ATOM     34  O   UNL     1       6.874  16.373  20.589  0.00  0.00    +0.000 OA
ATOM     35  H   UNL     1       7.365  17.128  20.960  0.00  0.00    +0.000 HD
ENDBRANCH  32  34
ENDBRANCH  27  32
ENDBRANCH  21  22
BRANCH  21  37
ATOM     36  C   UNL     1      -2.093  13.138  20.062  0.00  0.00    +0.000 C 
ATOM     37  C   UNL     1      -1.257  12.103  20.810  0.00  0.00    +0.000 C 
ENDBRANCH  21  37
ENDBRANCH   1  21
TORSDOF 8
ENDMDL
MODEL 8
REMARK VINA RESULT:      -8.4      3.029      5.406
REMARK  Name = 
REMARK  10 active torsions:
REMARK  status: ('A' for Active; 'I' for Inactive)
REMARK    1  A    between atoms: C_1  and  C_2
REMARK    2  A    between atoms: C_2  and  C_3
REMARK    3  A    between atoms: C_3  and  C_4
REMARK    4  A    between atoms: C_3  and  N_17
REMARK    5  A    between atoms: C_9  and  C_10
REMARK    6  A    between atoms: C_10  and  O_12
REMARK    7  A    between atoms: N_15  and  C_16
REMARK    8  A    between atoms: N_21  and  C_22
REMARK    9  A    between atoms: C_25  and  O_26
REMARK   10  A    between atoms: O_26  and  C_27
REMARK                            x       y       z     vdW  Elec       q    Type
REMARK                         _______ _______ _______ _____ _____    ______ ____
ROOT
ATOM      1  N   UNL     1       0.258  10.194  21.057  0.00  0.00    +0.000 N 
ATOM      2  C   UNL     1       0.601   9.664  22.267  0.00  0.00    +0.000 C 
ATOM      3  O   UNL     1       0.449  10.164  23.371  0.00  0.00    +0.000 OA
ATOM      4  C   UNL     1       1.225   8.305  22.046  0.00  0.00    +0.000 C 
ATOM      5  N   UNL     1       1.174   8.205  20.607  0.00  0.00    +0.000 N 
ATOM      6  C   UNL     1       0.589   9.336  20.046  0.00  0.00    +0.000 C 
ATOM      7  O   UNL     1       0.397   9.563  18.860  0.00  0.00    +0.000 OA
ENDROOT
BRANCH   5   8
ATOM      8  C   UNL     1       1.760   7.135  19.902  0.00  0.00    +0.000 A 
ATOM      9  C   UNL     1       2.340   7.328  18.641  0.00  0.00    +0.000 A 
ATOM     10  C   UNL     1       2.989   6.282  17.987  0.00  0.00    +0.000 A 
ATOM     11  C   UNL     1       3.039   5.019  18.566  0.00  0.00    +0.000 A 
ATOM     12  C   UNL     1       2.379   4.788  19.774  0.00  0.00    +0.000 A 
ATOM     13  C   UNL     1       1.787   5.853  20.463  0.00  0.00    +0.000 A 
BRANCH  11  14
ATOM     14  O   UNL     1       3.710   4.056  17.850  0.00  0.00    +0.000 OA
BRANCH  14  15
ATOM     15  C   UNL     1       4.957   4.326  17.335  0.00  0.00    +0.000 A 
ATOM     16  C   UNL     1       5.967   4.518  18.278  0.00  0.00    +0.000 A 
ATOM     17  C   UNL     1       7.263   4.820  17.864  0.00  0.00    +0.000 A 
ATOM     18  C   UNL     1       7.553   4.931  16.503  0.00  0.00    +0.000 A 
ATOM     19  C   UNL     1       6.557   4.700  15.557  0.00  0.00    +0.000 A 
ATOM     20  C   UNL     1       5.266   4.363  15.973  0.00  0.00    +0.000 A 
ENDBRANCH  14  15
ENDBRANCH  11  14
ENDBRANCH   5   8
BRANCH   1  21
ATOM     21  C   UNL     1      -0.399  11.471  20.821  0.00  0.00    +0.000 C 
BRANCH  21  22
ATOM     22  C   UNL     1       0.645  12.539  20.568  0.00  0.00    +0.000 A 
ATOM     23  N   UNL     1       1.665  12.796  21.369  0.00  0.00    +0.000 NA
ATOM     24  C   UNL     1       2.390  13.784  20.766  0.00  0.00    +0.000 A 
ATOM     25  C   UNL     1       3.572  14.399  21.200  0.00  0.00    +0.000 A 
ATOM     26  C   UNL     1       4.147  15.392  20.399  0.00  0.00    +0.000 A 
ATOM     27  C   UNL     1       3.559  15.769  19.185  0.00  0.00    +0.000 A 
ATOM     28  C   UNL     1       2.356  15.178  18.752  0.00  0.00    +0.000 A 
ATOM     29  C   UNL     1       1.801  14.180  19.571  0.00  0.00    +0.000 A 
ATOM     30  N   UNL     1       0.666  13.402  19.484  0.00  0.00    +0.000 N 
ATOM     31  C   UNL     1      -0.315  13.484  18.427  0.00  0.00    +0.000 C 
BRANCH  27  32
ATOM     32  C   UNL     1       4.224  16.848  18.407  0.00  0.00    +0.000 C 
ATOM     33  O   UNL     1       5.351  17.242  18.652  0.00  0.00    +0.000 OA
BRANCH  32  34
ATOM     34  O   UNL     1       3.487  17.330  17.384  0.00  0.00    +0.000 OA
ATOM     35  H   UNL     1       3.998  17.679  16.633  0.00  0.00    +0.000 HD
ENDBRANCH  32  34
ENDBRANCH  27  32
ENDBRANCH  21  22
BRANCH  21  37
ATOM     36  C   UNL     1      -1.937  13.249  21.843  0.00  0.00    +0.000 C 
ATOM     37  C   UNL     1      -1.349  11.847  21.977  0.00  0.00    +0.000 C 
ENDBRANCH  21  37
ENDBRANCH   1  21
TORSDOF 8
ENDMDL
MODEL 9
REMARK VINA RESULT:      -8.4      2.824      5.815
REMARK  Name = 
REMARK  10 active torsions:
REMARK  status: ('A' for Active; 'I' for Inactive)
REMARK    1  A    between atoms: C_1  and  C_2
REMARK    2  A    between atoms: C_2  and  C_3
REMARK    3  A    between atoms: C_3  and  C_4
REMARK    4  A    between atoms: C_3  and  N_17
REMARK    5  A    between atoms: C_9  and  C_10
REMARK    6  A    between atoms: C_10  and  O_12
REMARK    7  A    between atoms: N_15  and  C_16
REMARK    8  A    between atoms: N_21  and  C_22
REMARK    9  A    between atoms: C_25  and  O_26
REMARK   10  A    between atoms: O_26  and  C_27
REMARK                            x       y       z     vdW  Elec       q    Type
REMARK                         _______ _______ _______ _____ _____    ______ ____
ROOT
ATOM      1  N   UNL     1       0.378  10.942  19.939  0.00  0.00    +0.000 N 
ATOM      2  C   UNL     1       0.543  10.691  21.270  0.00  0.00    +0.000 C 
ATOM      3  O   UNL     1       0.298  11.436  22.207  0.00  0.00    +0.000 OA
ATOM      4  C   UNL     1       1.098   9.295  21.439  0.00  0.00    +0.000 C 
ATOM      5  N   UNL     1       1.207   8.869  20.064  0.00  0.00    +0.000 N 
ATOM      6  C   UNL     1       0.766   9.863  19.194  0.00  0.00    +0.000 C 
ATOM      7  O   UNL     1       0.728   9.819  17.973  0.00  0.00    +0.000 OA
ENDROOT
BRANCH   5   8
ATOM      8  C   UNL     1       1.799   7.645  19.695  0.00  0.00    +0.000 A 
ATOM      9  C   UNL     1       2.452   7.497  18.465  0.00  0.00    +0.000 A 
ATOM     10  C   UNL     1       3.106   6.308  18.143  0.00  0.00    +0.000 A 
ATOM     11  C   UNL     1       3.086   5.238  19.030  0.00  0.00    +0.000 A 
ATOM     12  C   UNL     1       2.354   5.337  20.214  0.00  0.00    +0.000 A 
ATOM     13  C   UNL     1       1.757   6.552  20.568  0.00  0.00    +0.000 A 
BRANCH  11  14
ATOM     14  O   UNL     1       3.766   4.113  18.628  0.00  0.00    +0.000 OA
BRANCH  14  15
ATOM     15  C   UNL     1       4.900   4.232  17.857  0.00  0.00    +0.000 A 
ATOM     16  C   UNL     1       6.041   4.671  18.531  0.00  0.00    +0.000 A 
ATOM     17  C   UNL     1       7.237   4.849  17.840  0.00  0.00    +0.000 A 
ATOM     18  C   UNL     1       7.297   4.590  16.470  0.00  0.00    +0.000 A 
ATOM     19  C   UNL     1       6.172   4.113  15.801  0.00  0.00    +0.000 A 
ATOM     20  C   UNL     1       4.982   3.901  16.503  0.00  0.00    +0.000 A 
ENDBRANCH  14  15
ENDBRANCH  11  14
ENDBRANCH   5   8
BRANCH   1  21
ATOM     21  C   UNL     1      -0.162  12.154  19.342  0.00  0.00    +0.000 C 
BRANCH  21  22
ATOM     22  C   UNL     1       0.745  13.324  19.663  0.00  0.00    +0.000 A 
ATOM     23  N   UNL     1       0.450  14.291  20.514  0.00  0.00    +0.000 NA
ATOM     24  C   UNL     1       1.538  15.116  20.554  0.00  0.00    +0.000 A 
ATOM     25  C   UNL     1       1.736  16.277  21.315  0.00  0.00    +0.000 A 
ATOM     26  C   UNL     1       2.953  16.958  21.197  0.00  0.00    +0.000 A 
ATOM     27  C   UNL     1       3.958  16.496  20.339  0.00  0.00    +0.000 A 
ATOM     28  C   UNL     1       3.760  15.346  19.548  0.00  0.00    +0.000 A 
ATOM     29  C   UNL     1       2.532  14.676  19.688  0.00  0.00    +0.000 A 
ATOM     30  N   UNL     1       1.989  13.555  19.098  0.00  0.00    +0.000 N 
ATOM     31  C   UNL     1       2.632  12.765  18.073  0.00  0.00    +0.000 C 
BRANCH  27  32
ATOM     32  C   UNL     1       5.211  17.293  20.258  0.00  0.00    +0.000 C 
ATOM     33  O   UNL     1       5.876  17.582  21.238  0.00  0.00    +0.000 OA
BRANCH  32  34
ATOM     34  O   UNL     1       5.568  17.639  19.003  0.00  0.00    +0.000 OA
ATOM     35  H   UNL     1       6.032  16.948  18.499  0.00  0.00    +0.000 HD
ENDBRANCH  32  34
ENDBRANCH  27  32
ENDBRANCH  21  22
BRANCH  21  37
ATOM     36  C   UNL     1      -2.651  11.768  18.859  0.00  0.00    +0.000 C 
ATOM     37  C   UNL     1      -1.619  12.409  19.784  0.00  0.00    +0.000 C 
ENDBRANCH  21  37
ENDBRANCH   1  21
TORSDOF 8
ENDMDL
