MODEL 1
REMARK VINA RESULT:      -8.4      0.000      0.000
REMARK  Name = 
REMARK  11 active torsions:
REMARK  status: ('A' for Active; 'I' for Inactive)
REMARK    1  A    between atoms: C_1  and  C_2
REMARK    2  A    between atoms: C_5  and  C_6
REMARK    3  A    between atoms: C_11  and  C_12
REMARK    4  A    between atoms: C_12  and  N_14
REMARK    5  A    between atoms: C_17  and  C_18
REMARK    6  A    between atoms: C_18  and  C_19
REMARK    7  A    between atoms: C_18  and  C_20
REMARK    8  A    between atoms: C_18  and  C_21
REMARK    9  A    between atoms: C_22  and  C_23
REMARK   10  A    between atoms: N_24  and  C_25
REMARK   11  A    between atoms: C_25  and  C_26
REMARK                            x       y       z     vdW  Elec       q    Type
REMARK                         _______ _______ _______ _____ _____    ______ ____
ROOT
ATOM      1  N   UNL     1       1.829   7.699  19.027  0.00  0.00    +0.000 NA
ATOM      2  C   UNL     1       2.767   6.837  18.748  0.00  0.00    +0.000 A 
ATOM      3  S   UNL     1       3.930   7.006  17.379  0.00  0.00    +0.000 S 
ATOM      4  C   UNL     1       4.743   5.467  17.695  0.00  0.00    +0.000 A 
ATOM      5  C   UNL     1       4.154   4.874  18.758  0.00  0.00    +0.000 A 
ATOM      6  C   UNL     1       4.541   3.532  19.336  0.00  0.00    +0.000 C 
ATOM      7  N   UNL     1       3.075   5.604  19.363  0.00  0.00    +0.000 N 
ENDROOT
BRANCH   4   8
ATOM      8  C   UNL     1       5.935   4.980  16.834  0.00  0.00    +0.000 C 
ATOM      9  C   UNL     1       6.367   6.013  15.760  0.00  0.00    +0.000 C 
ATOM     10  C   UNL     1       7.197   4.721  17.697  0.00  0.00    +0.000 C 
ATOM     11  C   UNL     1       5.583   3.687  16.062  0.00  0.00    +0.000 C 
ENDBRANCH   4   8
BRANCH   1  12
ATOM     12  C   UNL     1       1.723   8.926  18.368  0.00  0.00    +0.000 C 
ATOM     13  O   UNL     1       2.644   9.463  17.763  0.00  0.00    +0.000 OA
BRANCH  12  20
ATOM     14  C   UNL     1       0.928  10.583  20.921  0.00  0.00    +0.000 C 
ATOM     15  C   UNL     1       0.065  10.461  19.690  0.00  0.00    +0.000 A 
ATOM     16  C   UNL     1      -1.159  11.165  19.744  0.00  0.00    +0.000 A 
ATOM     17  C   UNL     1      -2.062  11.125  18.686  0.00  0.00    +0.000 A 
ATOM     18  C   UNL     1      -1.760  10.381  17.544  0.00  0.00    +0.000 A 
ATOM     19  C   UNL     1      -0.521   9.705  17.471  0.00  0.00    +0.000 A 
ATOM     20  C   UNL     1       0.415   9.722  18.522  0.00  0.00    +0.000 A 
BRANCH  18  21
ATOM     21  C   UNL     1      -2.757  10.294  16.414  0.00  0.00    +0.000 C 
ATOM     22  F   UNL     1      -2.656  11.317  15.516  0.00  0.00    +0.000 F 
ATOM     23  F   UNL     1      -2.629   9.151  15.687  0.00  0.00    +0.000 F 
ATOM     24  F   UNL     1      -4.046  10.317  16.855  0.00  0.00    +0.000 F 
ENDBRANCH  18  21
ENDBRANCH  12  20
ENDBRANCH   1  12
BRANCH   7  25
ATOM     25  C   UNL     1       2.509   5.047  20.596  0.00  0.00    +0.000 C 
BRANCH  25  26
ATOM     26  C   UNL     1       1.220   4.305  20.614  0.00  0.00    +0.000 C 
ATOM     27  C   UNL     1       0.886   3.115  19.759  0.00  0.00    +0.000 C 
ATOM     28  C   UNL     1       1.292   2.894  21.182  0.00  0.00    +0.000 C 
ENDBRANCH  25  26
ENDBRANCH   7  25
TORSDOF 6
ENDMDL
MODEL 2
REMARK VINA RESULT:      -8.4      0.330      1.192
REMARK  Name = 
REMARK  11 active torsions:
REMARK  status: ('A' for Active; 'I' for Inactive)
REMARK    1  A    between atoms: C_1  and  C_2
REMARK    2  A    between atoms: C_5  and  C_6
REMARK    3  A    between atoms: C_11  and  C_12
REMARK    4  A    between atoms: C_12  and  N_14
REMARK    5  A    between atoms: C_17  and  C_18
REMARK    6  A    between atoms: C_18  and  C_19
REMARK    7  A    between atoms: C_18  and  C_20
REMARK    8  A    between atoms: C_18  and  C_21
REMARK    9  A    between atoms: C_22  and  C_23
REMARK   10  A    between atoms: N_24  and  C_25
REMARK   11  A    between atoms: C_25  and  C_26
REMARK                            x       y       z     vdW  Elec       q    Type
REMARK                         _______ _______ _______ _____ _____    ______ ____
ROOT
ATOM      1  N   UNL     1       1.752   7.907  19.014  0.00  0.00    +0.000 NA
ATOM      2  C   UNL     1       2.659   7.034  18.670  0.00  0.00    +0.000 A 
ATOM      3  S   UNL     1       3.725   7.191  17.223  0.00  0.00    +0.000 S 
ATOM      4  C   UNL     1       4.540   5.642  17.481  0.00  0.00    +0.000 A 
ATOM      5  C   UNL     1       4.020   5.054  18.583  0.00  0.00    +0.000 A 
ATOM      6  C   UNL     1       4.429   3.707  19.132  0.00  0.00    +0.000 C 
ATOM      7  N   UNL     1       2.993   5.797  19.262  0.00  0.00    +0.000 N 
ENDROOT
BRANCH   4   8
ATOM      8  C   UNL     1       5.663   5.142  16.539  0.00  0.00    +0.000 C 
ATOM      9  C   UNL     1       5.477   3.663  16.107  0.00  0.00    +0.000 C 
ATOM     10  C   UNL     1       5.713   5.959  15.222  0.00  0.00    +0.000 C 
ATOM     11  C   UNL     1       7.047   5.213  17.224  0.00  0.00    +0.000 C 
ENDBRANCH   4   8
BRANCH   1  12
ATOM     12  C   UNL     1       1.615   9.136  18.365  0.00  0.00    +0.000 C 
ATOM     13  O   UNL     1       2.519   9.695  17.753  0.00  0.00    +0.000 OA
BRANCH  12  20
ATOM     14  C   UNL     1       0.824  10.771  20.932  0.00  0.00    +0.000 C 
ATOM     15  C   UNL     1      -0.053  10.635  19.714  0.00  0.00    +0.000 A 
ATOM     16  C   UNL     1      -1.291  11.315  19.786  0.00  0.00    +0.000 A 
ATOM     17  C   UNL     1      -2.207  11.260  18.741  0.00  0.00    +0.000 A 
ATOM     18  C   UNL     1      -1.906  10.524  17.593  0.00  0.00    +0.000 A 
ATOM     19  C   UNL     1      -0.655   9.873  17.500  0.00  0.00    +0.000 A 
ATOM     20  C   UNL     1       0.294   9.906  18.538  0.00  0.00    +0.000 A 
BRANCH  18  21
ATOM     21  C   UNL     1      -2.916  10.421  16.476  0.00  0.00    +0.000 C 
ATOM     22  F   UNL     1      -3.027   9.164  15.954  0.00  0.00    +0.000 F 
ATOM     23  F   UNL     1      -4.172  10.769  16.868  0.00  0.00    +0.000 F 
ATOM     24  F   UNL     1      -2.613  11.230  15.423  0.00  0.00    +0.000 F 
ENDBRANCH  18  21
ENDBRANCH  12  20
ENDBRANCH   1  12
BRANCH   7  25
ATOM     25  C   UNL     1       2.508   5.245  20.531  0.00  0.00    +0.000 C 
BRANCH  25  26
ATOM     26  C   UNL     1       1.234   4.485  20.631  0.00  0.00    +0.000 C 
ATOM     27  C   UNL     1       0.871   3.278  19.811  0.00  0.00    +0.000 C 
ATOM     28  C   UNL     1       1.359   3.084  21.212  0.00  0.00    +0.000 C 
ENDBRANCH  25  26
ENDBRANCH   7  25
TORSDOF 6
ENDMDL
MODEL 3
REMARK VINA RESULT:      -8.2      0.626      1.028
REMARK  Name = 
REMARK  11 active torsions:
REMARK  status: ('A' for Active; 'I' for Inactive)
REMARK    1  A    between atoms: C_1  and  C_2
REMARK    2  A    between atoms: C_5  and  C_6
REMARK    3  A    between atoms: C_11  and  C_12
REMARK    4  A    between atoms: C_12  and  N_14
REMARK    5  A    between atoms: C_17  and  C_18
REMARK    6  A    between atoms: C_18  and  C_19
REMARK    7  A    between atoms: C_18  and  C_20
REMARK    8  A    between atoms: C_18  and  C_21
REMARK    9  A    between atoms: C_22  and  C_23
REMARK   10  A    between atoms: N_24  and  C_25
REMARK   11  A    between atoms: C_25  and  C_26
REMARK                            x       y       z     vdW  Elec       q    Type
REMARK                         _______ _______ _______ _____ _____    ______ ____
ROOT
ATOM      1  N   UNL     1       1.783   7.952  18.992  0.00  0.00    +0.000 NA
ATOM      2  C   UNL     1       2.685   7.066  18.672  0.00  0.00    +0.000 A 
ATOM      3  S   UNL     1       3.780   7.198  17.244  0.00  0.00    +0.000 S 
ATOM      4  C   UNL     1       4.571   5.641  17.529  0.00  0.00    +0.000 A 
ATOM      5  C   UNL     1       4.023   5.069  18.626  0.00  0.00    +0.000 A 
ATOM      6  C   UNL     1       4.406   3.722  19.194  0.00  0.00    +0.000 C 
ATOM      7  N   UNL     1       2.993   5.830  19.280  0.00  0.00    +0.000 N 
ENDROOT
BRANCH   4   8
ATOM      8  C   UNL     1       5.705   5.120  16.613  0.00  0.00    +0.000 C 
ATOM      9  C   UNL     1       5.948   6.026  15.376  0.00  0.00    +0.000 C 
ATOM     10  C   UNL     1       7.062   5.058  17.360  0.00  0.00    +0.000 C 
ATOM     11  C   UNL     1       5.378   3.717  16.053  0.00  0.00    +0.000 C 
ENDBRANCH   4   8
BRANCH   1  12
ATOM     12  C   UNL     1       1.673   9.178  18.330  0.00  0.00    +0.000 C 
ATOM     13  O   UNL     1       2.577   9.691  17.680  0.00  0.00    +0.000 OA
BRANCH  12  20
ATOM     14  C   UNL     1       1.429  11.641  20.270  0.00  0.00    +0.000 C 
ATOM     15  C   UNL     1       0.294  11.113  19.429  0.00  0.00    +0.000 A 
ATOM     16  C   UNL     1      -0.925  11.815  19.557  0.00  0.00    +0.000 A 
ATOM     17  C   UNL     1      -2.060  11.424  18.854  0.00  0.00    +0.000 A 
ATOM     18  C   UNL     1      -2.002  10.320  18.001  0.00  0.00    +0.000 A 
ATOM     19  C   UNL     1      -0.775   9.636  17.842  0.00  0.00    +0.000 A 
ATOM     20  C   UNL     1       0.391  10.004  18.538  0.00  0.00    +0.000 A 
BRANCH  18  21
ATOM     21  C   UNL     1      -3.243   9.862  17.274  0.00  0.00    +0.000 C 
ATOM     22  F   UNL     1      -3.906   8.850  17.907  0.00  0.00    +0.000 F 
ATOM     23  F   UNL     1      -4.156  10.858  17.112  0.00  0.00    +0.000 F 
ATOM     24  F   UNL     1      -2.970   9.394  16.023  0.00  0.00    +0.000 F 
ENDBRANCH  18  21
ENDBRANCH  12  20
ENDBRANCH   1  12
BRANCH   7  25
ATOM     25  C   UNL     1       2.478   5.295  20.544  0.00  0.00    +0.000 C 
BRANCH  25  26
ATOM     26  C   UNL     1       1.211   4.520  20.620  0.00  0.00    +0.000 C 
ATOM     27  C   UNL     1       0.867   3.323  19.778  0.00  0.00    +0.000 C 
ATOM     28  C   UNL     1       1.346   3.110  21.180  0.00  0.00    +0.000 C 
ENDBRANCH  25  26
ENDBRANCH   7  25
TORSDOF 6
ENDMDL
MODEL 4
REMARK VINA RESULT:      -7.9      3.754      8.438
REMARK  Name = 
REMARK  11 active torsions:
REMARK  status: ('A' for Active; 'I' for Inactive)
REMARK    1  A    between atoms: C_1  and  C_2
REMARK    2  A    between atoms: C_5  and  C_6
REMARK    3  A    between atoms: C_11  and  C_12
REMARK    4  A    between atoms: C_12  and  N_14
REMARK    5  A    between atoms: C_17  and  C_18
REMARK    6  A    between atoms: C_18  and  C_19
REMARK    7  A    between atoms: C_18  and  C_20
REMARK    8  A    between atoms: C_18  and  C_21
REMARK    9  A    between atoms: C_22  and  C_23
REMARK   10  A    between atoms: N_24  and  C_25
REMARK   11  A    between atoms: C_25  and  C_26
REMARK                            x       y       z     vdW  Elec       q    Type
REMARK                         _______ _______ _______ _____ _____    ______ ____
ROOT
ATOM      1  N   UNL     1       0.447   9.594  17.915  0.00  0.00    +0.000 NA
ATOM      2  C   UNL     1      -0.217  10.485  18.599  0.00  0.00    +0.000 A 
ATOM      3  S   UNL     1       0.506  11.535  19.875  0.00  0.00    +0.000 S 
ATOM      4  C   UNL     1      -1.020  12.332  20.283  0.00  0.00    +0.000 A 
ATOM      5  C   UNL     1      -2.001  11.817  19.506  0.00  0.00    +0.000 A 
ATOM      6  C   UNL     1      -3.458  12.215  19.558  0.00  0.00    +0.000 C 
ATOM      7  N   UNL     1      -1.591  10.809  18.567  0.00  0.00    +0.000 N 
ENDROOT
BRANCH   4   8
ATOM      8  C   UNL     1      -1.103  13.436  21.365  0.00  0.00    +0.000 C 
ATOM      9  C   UNL     1      -1.814  14.721  20.865  0.00  0.00    +0.000 C 
ATOM     10  C   UNL     1      -1.908  12.966  22.603  0.00  0.00    +0.000 C 
ATOM     11  C   UNL     1       0.305  13.882  21.824  0.00  0.00    +0.000 C 
ENDBRANCH   4   8
BRANCH   1  12
ATOM     12  C   UNL     1       1.835   9.466  18.006  0.00  0.00    +0.000 C 
ATOM     13  O   UNL     1       2.628  10.351  17.705  0.00  0.00    +0.000 OA
BRANCH  12  20
ATOM     14  C   UNL     1       1.362   8.004  20.751  0.00  0.00    +0.000 C 
ATOM     15  C   UNL     1       2.199   7.444  19.629  0.00  0.00    +0.000 A 
ATOM     16  C   UNL     1       2.771   6.177  19.882  0.00  0.00    +0.000 A 
ATOM     17  C   UNL     1       3.582   5.550  18.941  0.00  0.00    +0.000 A 
ATOM     18  C   UNL     1       3.839   6.176  17.719  0.00  0.00    +0.000 A 
ATOM     19  C   UNL     1       3.239   7.427  17.447  0.00  0.00    +0.000 A 
ATOM     20  C   UNL     1       2.415   8.089  18.375  0.00  0.00    +0.000 A 
BRANCH  18  21
ATOM     21  C   UNL     1       4.758   5.524  16.715  0.00  0.00    +0.000 C 
ATOM     22  F   UNL     1       4.313   4.311  16.273  0.00  0.00    +0.000 F 
ATOM     23  F   UNL     1       4.938   6.280  15.598  0.00  0.00    +0.000 F 
ATOM     24  F   UNL     1       6.003   5.296  17.220  0.00  0.00    +0.000 F 
ENDBRANCH  18  21
ENDBRANCH  12  20
ENDBRANCH   1  12
BRANCH   7  25
ATOM     25  C   UNL     1      -2.607  10.332  17.623  0.00  0.00    +0.000 C 
BRANCH  25  26
ATOM     26  C   UNL     1      -2.588  10.703  16.183  0.00  0.00    +0.000 C 
ATOM     27  C   UNL     1      -3.032   9.822  15.048  0.00  0.00    +0.000 C 
ATOM     28  C   UNL     1      -3.957  10.888  15.543  0.00  0.00    +0.000 C 
ENDBRANCH  25  26
ENDBRANCH   7  25
TORSDOF 6
ENDMDL
MODEL 5
REMARK VINA RESULT:      -7.8      2.939      3.501
REMARK  Name = 
REMARK  11 active torsions:
REMARK  status: ('A' for Active; 'I' for Inactive)
REMARK    1  A    between atoms: C_1  and  C_2
REMARK    2  A    between atoms: C_5  and  C_6
REMARK    3  A    between atoms: C_11  and  C_12
REMARK    4  A    between atoms: C_12  and  N_14
REMARK    5  A    between atoms: C_17  and  C_18
REMARK    6  A    between atoms: C_18  and  C_19
REMARK    7  A    between atoms: C_18  and  C_20
REMARK    8  A    between atoms: C_18  and  C_21
REMARK    9  A    between atoms: C_22  and  C_23
REMARK   10  A    between atoms: N_24  and  C_25
REMARK   11  A    between atoms: C_25  and  C_26
REMARK                            x       y       z     vdW  Elec       q    Type
REMARK                         _______ _______ _______ _____ _____    ______ ____
ROOT
ATOM      1  N   UNL     1       1.850   7.480  18.608  0.00  0.00    +0.000 NA
ATOM      2  C   UNL     1       2.975   6.820  18.592  0.00  0.00    +0.000 A 
ATOM      3  S   UNL     1       4.524   7.465  17.931  0.00  0.00    +0.000 S 
ATOM      4  C   UNL     1       5.438   5.983  18.242  0.00  0.00    +0.000 A 
ATOM      5  C   UNL     1       4.609   5.069  18.797  0.00  0.00    +0.000 A 
ATOM      6  C   UNL     1       4.997   3.664  19.195  0.00  0.00    +0.000 C 
ATOM      7  N   UNL     1       3.255   5.501  19.010  0.00  0.00    +0.000 N 
ENDROOT
BRANCH   4   8
ATOM      8  C   UNL     1       6.944   5.865  17.904  0.00  0.00    +0.000 C 
ATOM      9  C   UNL     1       7.822   5.567  19.149  0.00  0.00    +0.000 C 
ATOM     10  C   UNL     1       7.219   4.706  16.911  0.00  0.00    +0.000 C 
ATOM     11  C   UNL     1       7.493   7.179  17.302  0.00  0.00    +0.000 C 
ENDBRANCH   4   8
BRANCH   1  12
ATOM     12  C   UNL     1       1.768   8.825  18.238  0.00  0.00    +0.000 C 
ATOM     13  O   UNL     1       2.155   9.266  17.161  0.00  0.00    +0.000 OA
BRANCH  12  20
ATOM     14  C   UNL     1       2.190  11.935  18.038  0.00  0.00    +0.000 C 
ATOM     15  C   UNL     1       1.500  11.248  19.190  0.00  0.00    +0.000 A 
ATOM     16  C   UNL     1       1.027  12.109  20.206  0.00  0.00    +0.000 A 
ATOM     17  C   UNL     1       0.388  11.609  21.336  0.00  0.00    +0.000 A 
ATOM     18  C   UNL     1       0.202  10.233  21.476  0.00  0.00    +0.000 A 
ATOM     19  C   UNL     1       0.641   9.370  20.446  0.00  0.00    +0.000 A 
ATOM     20  C   UNL     1       1.292   9.841  19.290  0.00  0.00    +0.000 A 
BRANCH  18  21
ATOM     21  C   UNL     1      -0.446   9.681  22.723  0.00  0.00    +0.000 C 
ATOM     22  F   UNL     1       0.418   9.534  23.769  0.00  0.00    +0.000 F 
ATOM     23  F   UNL     1      -1.455  10.470  23.184  0.00  0.00    +0.000 F 
ATOM     24  F   UNL     1      -0.993   8.449  22.523  0.00  0.00    +0.000 F 
ENDBRANCH  18  21
ENDBRANCH  12  20
ENDBRANCH   1  12
BRANCH   7  25
ATOM     25  C   UNL     1       2.372   4.579  19.732  0.00  0.00    +0.000 C 
BRANCH  25  26
ATOM     26  C   UNL     1       1.350   3.752  19.036  0.00  0.00    +0.000 C 
ATOM     27  C   UNL     1       1.624   2.492  18.264  0.00  0.00    +0.000 C 
ATOM     28  C   UNL     1       1.090   2.386  19.657  0.00  0.00    +0.000 C 
ENDBRANCH  25  26
ENDBRANCH   7  25
TORSDOF 6
ENDMDL
MODEL 6
REMARK VINA RESULT:      -7.8      3.760      8.510
REMARK  Name = 
REMARK  11 active torsions:
REMARK  status: ('A' for Active; 'I' for Inactive)
REMARK    1  A    between atoms: C_1  and  C_2
REMARK    2  A    between atoms: C_5  and  C_6
REMARK    3  A    between atoms: C_11  and  C_12
REMARK    4  A    between atoms: C_12  and  N_14
REMARK    5  A    between atoms: C_17  and  C_18
REMARK    6  A    between atoms: C_18  and  C_19
REMARK    7  A    between atoms: C_18  and  C_20
REMARK    8  A    between atoms: C_18  and  C_21
REMARK    9  A    between atoms: C_22  and  C_23
REMARK   10  A    between atoms: N_24  and  C_25
REMARK   11  A    between atoms: C_25  and  C_26
REMARK                            x       y       z     vdW  Elec       q    Type
REMARK                         _______ _______ _______ _____ _____    ______ ____
ROOT
ATOM      1  N   UNL     1       0.412   9.657  17.875  0.00  0.00    +0.000 NA
ATOM      2  C   UNL     1      -0.366  10.472  18.533  0.00  0.00    +0.000 A 
ATOM      3  S   UNL     1       0.170  11.500  19.915  0.00  0.00    +0.000 S 
ATOM      4  C   UNL     1      -1.434  12.184  20.212  0.00  0.00    +0.000 A 
ATOM      5  C   UNL     1      -2.306  11.651  19.325  0.00  0.00    +0.000 A 
ATOM      6  C   UNL     1      -3.784  11.959  19.258  0.00  0.00    +0.000 C 
ATOM      7  N   UNL     1      -1.749  10.716  18.386  0.00  0.00    +0.000 N 
ENDROOT
BRANCH   4   8
ATOM      8  C   UNL     1      -1.684  13.227  21.329  0.00  0.00    +0.000 C 
ATOM      9  C   UNL     1      -2.817  12.809  22.304  0.00  0.00    +0.000 C 
ATOM     10  C   UNL     1      -0.427  13.434  22.211  0.00  0.00    +0.000 C 
ATOM     11  C   UNL     1      -2.112  14.592  20.740  0.00  0.00    +0.000 C 
ENDBRANCH   4   8
BRANCH   1  12
ATOM     12  C   UNL     1       1.792   9.607  18.091  0.00  0.00    +0.000 C 
ATOM     13  O   UNL     1       2.542  10.568  17.967  0.00  0.00    +0.000 OA
BRANCH  12  20
ATOM     14  C   UNL     1       1.352   7.920  20.709  0.00  0.00    +0.000 C 
ATOM     15  C   UNL     1       2.233   7.488  19.564  0.00  0.00    +0.000 A 
ATOM     16  C   UNL     1       2.865   6.235  19.733  0.00  0.00    +0.000 A 
ATOM     17  C   UNL     1       3.720   5.722  18.762  0.00  0.00    +0.000 A 
ATOM     18  C   UNL     1       3.962   6.450  17.596  0.00  0.00    +0.000 A 
ATOM     19  C   UNL     1       3.305   7.687  17.407  0.00  0.00    +0.000 A 
ATOM     20  C   UNL     1       2.435   8.236  18.367  0.00  0.00    +0.000 A 
BRANCH  18  21
ATOM     21  C   UNL     1       4.928   5.922  16.563  0.00  0.00    +0.000 C 
ATOM     22  F   UNL     1       4.907   6.618  15.389  0.00  0.00    +0.000 F 
ATOM     23  F   UNL     1       6.221   5.951  16.987  0.00  0.00    +0.000 F 
ATOM     24  F   UNL     1       4.671   4.626  16.226  0.00  0.00    +0.000 F 
ENDBRANCH  18  21
ENDBRANCH  12  20
ENDBRANCH   1  12
BRANCH   7  25
ATOM     25  C   UNL     1      -2.643  10.227  17.331  0.00  0.00    +0.000 C 
BRANCH  25  26
ATOM     26  C   UNL     1      -2.608  10.769  15.947  0.00  0.00    +0.000 C 
ATOM     27  C   UNL     1      -3.028  10.029  14.708  0.00  0.00    +0.000 C 
ATOM     28  C   UNL     1      -3.970  11.019  15.314  0.00  0.00    +0.000 C 
ENDBRANCH  25  26
ENDBRANCH   7  25
TORSDOF 6
ENDMDL
MODEL 7
REMARK VINA RESULT:      -7.8      2.885      3.395
REMARK  Name = 
REMARK  11 active torsions:
REMARK  status: ('A' for Active; 'I' for Inactive)
REMARK    1  A    between atoms: C_1  and  C_2
REMARK    2  A    between atoms: C_5  and  C_6
REMARK    3  A    between atoms: C_11  and  C_12
REMARK    4  A    between atoms: C_12  and  N_14
REMARK    5  A    between atoms: C_17  and  C_18
REMARK    6  A    between atoms: C_18  and  C_19
REMARK    7  A    between atoms: C_18  and  C_20
REMARK    8  A    between atoms: C_18  and  C_21
REMARK    9  A    between atoms: C_22  and  C_23
REMARK   10  A    between atoms: N_24  and  C_25
REMARK   11  A    between atoms: C_25  and  C_26
REMARK                            x       y       z     vdW  Elec       q    Type
REMARK                         _______ _______ _______ _____ _____    ______ ____
ROOT
ATOM      1  N   UNL     1       2.011   7.376  19.195  0.00  0.00    +0.000 NA
ATOM      2  C   UNL     1       2.947   6.560  18.793  0.00  0.00    +0.000 A 
ATOM      3  S   UNL     1       4.039   6.874  17.392  0.00  0.00    +0.000 S 
ATOM      4  C   UNL     1       4.887   5.327  17.527  0.00  0.00    +0.000 A 
ATOM      5  C   UNL     1       4.358   4.629  18.558  0.00  0.00    +0.000 A 
ATOM      6  C   UNL     1       4.790   3.247  18.991  0.00  0.00    +0.000 C 
ATOM      7  N   UNL     1       3.300   5.282  19.278  0.00  0.00    +0.000 N 
ENDROOT
BRANCH   4   8
ATOM      8  C   UNL     1       6.042   4.942  16.570  0.00  0.00    +0.000 C 
ATOM      9  C   UNL     1       5.749   3.653  15.756  0.00  0.00    +0.000 C 
ATOM     10  C   UNL     1       6.308   6.050  15.518  0.00  0.00    +0.000 C 
ATOM     11  C   UNL     1       7.350   4.665  17.346  0.00  0.00    +0.000 C 
ENDBRANCH   4   8
BRANCH   1  12
ATOM     12  C   UNL     1       1.857   8.656  18.657  0.00  0.00    +0.000 C 
ATOM     13  O   UNL     1       2.257   8.988  17.547  0.00  0.00    +0.000 OA
BRANCH  12  20
ATOM     14  C   UNL     1       2.067  11.740  18.075  0.00  0.00    +0.000 C 
ATOM     15  C   UNL     1       1.388  11.154  19.286  0.00  0.00    +0.000 A 
ATOM     16  C   UNL     1       0.822  12.098  20.173  0.00  0.00    +0.000 A 
ATOM     17  C   UNL     1       0.181  11.697  21.341  0.00  0.00    +0.000 A 
ATOM     18  C   UNL     1       0.087  10.339  21.650  0.00  0.00    +0.000 A 
ATOM     19  C   UNL     1       0.620   9.389  20.749  0.00  0.00    +0.000 A 
ATOM     20  C   UNL     1       1.275   9.759  19.560  0.00  0.00    +0.000 A 
BRANCH  18  21
ATOM     21  C   UNL     1      -0.563   9.901  22.941  0.00  0.00    +0.000 C 
ATOM     22  F   UNL     1      -1.227   8.713  22.842  0.00  0.00    +0.000 F 
ATOM     23  F   UNL     1       0.332   9.742  23.953  0.00  0.00    +0.000 F 
ATOM     24  F   UNL     1      -1.483  10.800  23.390  0.00  0.00    +0.000 F 
ENDBRANCH  18  21
ENDBRANCH  12  20
ENDBRANCH   1  12
BRANCH   7  25
ATOM     25  C   UNL     1       2.802   4.605  20.480  0.00  0.00    +0.000 C 
BRANCH  25  26
ATOM     26  C   UNL     1       1.411   4.088  20.580  0.00  0.00    +0.000 C 
ATOM     27  C   UNL     1       0.844   2.946  19.784  0.00  0.00    +0.000 C 
ATOM     28  C   UNL     1       1.278   2.701  21.194  0.00  0.00    +0.000 C 
ENDBRANCH  25  26
ENDBRANCH   7  25
TORSDOF 6
ENDMDL
MODEL 8
REMARK VINA RESULT:      -7.8      2.929      3.402
REMARK  Name = 
REMARK  11 active torsions:
REMARK  status: ('A' for Active; 'I' for Inactive)
REMARK    1  A    between atoms: C_1  and  C_2
REMARK    2  A    between atoms: C_5  and  C_6
REMARK    3  A    between atoms: C_11  and  C_12
REMARK    4  A    between atoms: C_12  and  N_14
REMARK    5  A    between atoms: C_17  and  C_18
REMARK    6  A    between atoms: C_18  and  C_19
REMARK    7  A    between atoms: C_18  and  C_20
REMARK    8  A    between atoms: C_18  and  C_21
REMARK    9  A    between atoms: C_22  and  C_23
REMARK   10  A    between atoms: N_24  and  C_25
REMARK   11  A    between atoms: C_25  and  C_26
REMARK                            x       y       z     vdW  Elec       q    Type
REMARK                         _______ _______ _______ _____ _____    ______ ____
ROOT
ATOM      1  N   UNL     1       1.868   7.464  18.853  0.00  0.00    +0.000 NA
ATOM      2  C   UNL     1       2.964   6.785  18.655  0.00  0.00    +0.000 A 
ATOM      3  S   UNL     1       4.356   7.364  17.663  0.00  0.00    +0.000 S 
ATOM      4  C   UNL     1       5.305   5.886  17.877  0.00  0.00    +0.000 A 
ATOM      5  C   UNL     1       4.597   5.021  18.639  0.00  0.00    +0.000 A 
ATOM      6  C   UNL     1       5.048   3.634  19.036  0.00  0.00    +0.000 C 
ATOM      7  N   UNL     1       3.314   5.487  19.088  0.00  0.00    +0.000 N 
ENDROOT
BRANCH   4   8
ATOM      8  C   UNL     1       6.714   5.723  17.256  0.00  0.00    +0.000 C 
ATOM      9  C   UNL     1       6.679   5.115  15.829  0.00  0.00    +0.000 C 
ATOM     10  C   UNL     1       7.439   7.086  17.113  0.00  0.00    +0.000 C 
ATOM     11  C   UNL     1       7.596   4.773  18.100  0.00  0.00    +0.000 C 
ENDBRANCH   4   8
BRANCH   1  12
ATOM     12  C   UNL     1       1.722   8.786  18.426  0.00  0.00    +0.000 C 
ATOM     13  O   UNL     1       2.069   9.194  17.323  0.00  0.00    +0.000 OA
BRANCH  12  20
ATOM     14  C   UNL     1       2.080  11.896  18.121  0.00  0.00    +0.000 C 
ATOM     15  C   UNL     1       1.403  11.235  19.294  0.00  0.00    +0.000 A 
ATOM     16  C   UNL     1       0.912  12.120  20.280  0.00  0.00    +0.000 A 
ATOM     17  C   UNL     1       0.282  11.646  21.427  0.00  0.00    +0.000 A 
ATOM     18  C   UNL     1       0.124  10.271  21.614  0.00  0.00    +0.000 A 
ATOM     19  C   UNL     1       0.582   9.383  20.614  0.00  0.00    +0.000 A 
ATOM     20  C   UNL     1       1.224   9.828  19.443  0.00  0.00    +0.000 A 
BRANCH  18  21
ATOM     21  C   UNL     1      -0.514   9.749  22.878  0.00  0.00    +0.000 C 
ATOM     22  F   UNL     1      -1.481  10.570  23.382  0.00  0.00    +0.000 F 
ATOM     23  F   UNL     1      -1.110   8.538  22.705  0.00  0.00    +0.000 F 
ATOM     24  F   UNL     1       0.389   9.584  23.886  0.00  0.00    +0.000 F 
ENDBRANCH  18  21
ENDBRANCH  12  20
ENDBRANCH   1  12
BRANCH   7  25
ATOM     25  C   UNL     1       2.587   4.624  20.024  0.00  0.00    +0.000 C 
BRANCH  25  26
ATOM     26  C   UNL     1       1.373   3.863  19.621  0.00  0.00    +0.000 C 
ATOM     27  C   UNL     1       1.222   3.066  18.356  0.00  0.00    +0.000 C 
ATOM     28  C   UNL     1       1.524   2.348  19.633  0.00  0.00    +0.000 C 
ENDBRANCH  25  26
ENDBRANCH   7  25
TORSDOF 6
ENDMDL
MODEL 9
REMARK VINA RESULT:      -7.7      1.118      1.400
REMARK  Name = 
REMARK  11 active torsions:
REMARK  status: ('A' for Active; 'I' for Inactive)
REMARK    1  A    between atoms: C_1  and  C_2
REMARK    2  A    between atoms: C_5  and  C_6
REMARK    3  A    between atoms: C_11  and  C_12
REMARK    4  A    between atoms: C_12  and  N_14
REMARK    5  A    between atoms: C_17  and  C_18
REMARK    6  A    between atoms: C_18  and  C_19
REMARK    7  A    between atoms: C_18  and  C_20
REMARK    8  A    between atoms: C_18  and  C_21
REMARK    9  A    between atoms: C_22  and  C_23
REMARK   10  A    between atoms: N_24  and  C_25
REMARK   11  A    between atoms: C_25  and  C_26
REMARK                            x       y       z     vdW  Elec       q    Type
REMARK                         _______ _______ _______ _____ _____    ______ ____
ROOT
ATOM      1  N   UNL     1       2.097   7.301  19.389  0.00  0.00    +0.000 NA
ATOM      2  C   UNL     1       2.997   6.459  18.960  0.00  0.00    +0.000 A 
ATOM      3  S   UNL     1       4.047   6.737  17.520  0.00  0.00    +0.000 S 
ATOM      4  C   UNL     1       4.859   5.170  17.634  0.00  0.00    +0.000 A 
ATOM      5  C   UNL     1       4.349   4.491  18.687  0.00  0.00    +0.000 A 
ATOM      6  C   UNL     1       4.760   3.100  19.113  0.00  0.00    +0.000 C 
ATOM      7  N   UNL     1       3.333   5.174  19.439  0.00  0.00    +0.000 N 
ENDROOT
BRANCH   4   8
ATOM      8  C   UNL     1       5.969   4.750  16.639  0.00  0.00    +0.000 C 
ATOM      9  C   UNL     1       6.211   5.802  15.524  0.00  0.00    +0.000 C 
ATOM     10  C   UNL     1       7.336   4.569  17.349  0.00  0.00    +0.000 C 
ATOM     11  C   UNL     1       5.607   3.435  15.911  0.00  0.00    +0.000 C 
ENDBRANCH   4   8
BRANCH   1  12
ATOM     12  C   UNL     1       1.957   8.582  18.849  0.00  0.00    +0.000 C 
ATOM     13  O   UNL     1       2.705   9.056  18.001  0.00  0.00    +0.000 OA
BRANCH  12  20
ATOM     14  C   UNL     1       1.328   8.835  21.921  0.00  0.00    +0.000 C 
ATOM     15  C   UNL     1       0.606   9.606  20.845  0.00  0.00    +0.000 A 
ATOM     16  C   UNL     1      -0.397  10.487  21.308  0.00  0.00    +0.000 A 
ATOM     17  C   UNL     1      -1.155  11.247  20.422  0.00  0.00    +0.000 A 
ATOM     18  C   UNL     1      -0.925  11.146  19.049  0.00  0.00    +0.000 A 
ATOM     19  C   UNL     1       0.101  10.294  18.583  0.00  0.00    +0.000 A 
ATOM     20  C   UNL     1       0.886   9.510  19.449  0.00  0.00    +0.000 A 
BRANCH  18  21
ATOM     21  C   UNL     1      -1.777  11.931  18.081  0.00  0.00    +0.000 C 
ATOM     22  F   UNL     1      -1.165  13.050  17.597  0.00  0.00    +0.000 F 
ATOM     23  F   UNL     1      -2.137  11.204  16.988  0.00  0.00    +0.000 F 
ATOM     24  F   UNL     1      -2.940  12.364  18.645  0.00  0.00    +0.000 F 
ENDBRANCH  18  21
ENDBRANCH  12  20
ENDBRANCH   1  12
BRANCH   7  25
ATOM     25  C   UNL     1       2.861   4.517  20.662  0.00  0.00    +0.000 C 
BRANCH  25  26
ATOM     26  C   UNL     1       1.467   4.019  20.807  0.00  0.00    +0.000 C 
ATOM     27  C   UNL     1       0.877   2.847  20.073  0.00  0.00    +0.000 C 
ATOM     28  C   UNL     1       1.330   2.663  21.486  0.00  0.00    +0.000 C 
ENDBRANCH  25  26
ENDBRANCH   7  25
TORSDOF 6
ENDMDL
