MODEL 1
REMARK VINA RESULT:      -7.5      0.000      0.000
REMARK  Name = 
REMARK  9 active torsions:
REMARK  status: ('A' for Active; 'I' for Inactive)
REMARK    1  A    between atoms: C_1  and  O_2
REMARK    2  A    between atoms: O_2  and  C_3
REMARK    3  A    between atoms: C_7  and  C_8
REMARK    4  A    between atoms: C_8  and  C_9
REMARK    5  A    between atoms: C_9  and  N_10
REMARK    6  A    between atoms: N_20  and  C_21
REMARK    7  A    between atoms: N_24  and  C_25
REMARK    8  A    between atoms: C_27  and  O_28
REMARK    9  A    between atoms: O_28  and  C_29
REMARK                            x       y       z     vdW  Elec       q    Type
REMARK                         _______ _______ _______ _____ _____    ______ ____
ROOT
ATOM      1  N   UNL     1       2.708   6.522  18.269  0.00  0.00    +0.000 NA
ATOM      2  C   UNL     1       2.954   7.788  17.547  0.00  0.00    +0.000 C 
ATOM      3  C   UNL     1       1.952   8.915  17.843  0.00  0.00    +0.000 C 
ATOM      4  N   UNL     1       1.508   8.897  19.223  0.00  0.00    +0.000 N 
ATOM      5  C   UNL     1       1.867   7.936  20.136  0.00  0.00    +0.000 A 
ATOM      6  N   UNL     1       1.348   8.200  21.325  0.00  0.00    +0.000 NA
ATOM      7  C   UNL     1       0.574   9.306  21.124  0.00  0.00    +0.000 A 
ATOM      8  C   UNL     1       0.626   9.735  19.828  0.00  0.00    +0.000 A 
ATOM      9  C   UNL     1      -0.134  10.825  19.335  0.00  0.00    +0.000 A 
ATOM     10  O   UNL     1      -0.080  11.197  18.166  0.00  0.00    +0.000 OA
ATOM     11  N   UNL     1      -0.939  11.411  20.315  0.00  0.00    +0.000 N 
ATOM     12  C   UNL     1      -1.788  12.520  19.925  0.00  0.00    +0.000 C 
ATOM     13  C   UNL     1      -0.976  11.042  21.676  0.00  0.00    +0.000 A 
ATOM     14  O   UNL     1      -1.674  11.663  22.483  0.00  0.00    +0.000 OA
ATOM     15  N   UNL     1      -0.192   9.953  22.063  0.00  0.00    +0.000 N 
ATOM     16  C   UNL     1      -0.166   9.517  23.448  0.00  0.00    +0.000 C 
ATOM     17  C   UNL     1       2.739   6.787  19.731  0.00  0.00    +0.000 C 
ENDROOT
BRANCH   1  18
ATOM     18  C   UNL     1       1.457   5.830  17.873  0.00  0.00    +0.000 C 
BRANCH  18  19
ATOM     19  C   UNL     1       1.637   4.310  17.712  0.00  0.00    +0.000 C 
BRANCH  19  24
ATOM     20  C   UNL     1       3.627   2.563  20.504  0.00  0.00    +0.000 A 
ATOM     21  C   UNL     1       2.636   2.507  21.496  0.00  0.00    +0.000 A 
ATOM     22  C   UNL     1       1.328   2.901  21.223  0.00  0.00    +0.000 A 
ATOM     23  C   UNL     1       1.010   3.423  19.975  0.00  0.00    +0.000 A 
ATOM     24  C   UNL     1       2.004   3.587  18.996  0.00  0.00    +0.000 A 
ATOM     25  C   UNL     1       3.321   3.134  19.249  0.00  0.00    +0.000 A 
BRANCH  20  27
ATOM     26  C   UNL     1       5.129   0.718  20.471  0.00  0.00    +0.000 C 
ATOM     27  O   UNL     1       4.894   2.098  20.742  0.00  0.00    +0.000 OA
ENDBRANCH  20  27
BRANCH  25  28
ATOM     28  O   UNL     1       4.169   3.290  18.181  0.00  0.00    +0.000 OA
ATOM     29  C   UNL     1       5.257   4.195  18.290  0.00  0.00    +0.000 C 
ENDBRANCH  25  28
ENDBRANCH  19  24
ENDBRANCH  18  19
ENDBRANCH   1  18
TORSDOF 5
ENDMDL
MODEL 2
REMARK VINA RESULT:      -7.5      3.334      7.673
REMARK  Name = 
REMARK  9 active torsions:
REMARK  status: ('A' for Active; 'I' for Inactive)
REMARK    1  A    between atoms: C_1  and  O_2
REMARK    2  A    between atoms: O_2  and  C_3
REMARK    3  A    between atoms: C_7  and  C_8
REMARK    4  A    between atoms: C_8  and  C_9
REMARK    5  A    between atoms: C_9  and  N_10
REMARK    6  A    between atoms: N_20  and  C_21
REMARK    7  A    between atoms: N_24  and  C_25
REMARK    8  A    between atoms: C_27  and  O_28
REMARK    9  A    between atoms: O_28  and  C_29
REMARK                            x       y       z     vdW  Elec       q    Type
REMARK                         _______ _______ _______ _____ _____    ______ ____
ROOT
ATOM      1  N   UNL     1       1.887   2.965  20.426  0.00  0.00    +0.000 NA
ATOM      2  C   UNL     1       1.934   2.076  19.245  0.00  0.00    +0.000 C 
ATOM      3  C   UNL     1       2.712   2.628  18.040  0.00  0.00    +0.000 C 
ATOM      4  N   UNL     1       3.860   3.413  18.450  0.00  0.00    +0.000 N 
ATOM      5  C   UNL     1       4.167   3.705  19.757  0.00  0.00    +0.000 A 
ATOM      6  N   UNL     1       5.293   4.399  19.831  0.00  0.00    +0.000 NA
ATOM      7  C   UNL     1       5.647   4.619  18.531  0.00  0.00    +0.000 A 
ATOM      8  C   UNL     1       4.761   4.052  17.659  0.00  0.00    +0.000 A 
ATOM      9  C   UNL     1       4.858   4.183  16.251  0.00  0.00    +0.000 A 
ATOM     10  O   UNL     1       4.052   3.672  15.479  0.00  0.00    +0.000 OA
ATOM     11  N   UNL     1       5.954   4.952  15.854  0.00  0.00    +0.000 N 
ATOM     12  C   UNL     1       6.145   5.184  14.435  0.00  0.00    +0.000 C 
ATOM     13  C   UNL     1       6.927   5.501  16.715  0.00  0.00    +0.000 A 
ATOM     14  O   UNL     1       7.900   6.115  16.264  0.00  0.00    +0.000 OA
ATOM     15  N   UNL     1       6.742   5.319  18.087  0.00  0.00    +0.000 N 
ATOM     16  C   UNL     1       7.705   5.843  19.038  0.00  0.00    +0.000 C 
ATOM     17  C   UNL     1       3.276   3.246  20.871  0.00  0.00    +0.000 C 
ENDROOT
BRANCH   1  18
ATOM     18  C   UNL     1       1.125   4.219  20.212  0.00  0.00    +0.000 C 
BRANCH  18  19
ATOM     19  C   UNL     1       1.833   5.457  20.789  0.00  0.00    +0.000 C 
BRANCH  19  24
ATOM     20  C   UNL     1       1.576   9.046  19.425  0.00  0.00    +0.000 A 
ATOM     21  C   UNL     1       2.144   8.854  18.156  0.00  0.00    +0.000 A 
ATOM     22  C   UNL     1       2.476   7.578  17.708  0.00  0.00    +0.000 A 
ATOM     23  C   UNL     1       2.310   6.485  18.548  0.00  0.00    +0.000 A 
ATOM     24  C   UNL     1       1.841   6.659  19.861  0.00  0.00    +0.000 A 
ATOM     25  C   UNL     1       1.447   7.946  20.300  0.00  0.00    +0.000 A 
BRANCH  20  27
ATOM     26  C   UNL     1       0.667  11.163  18.831  0.00  0.00    +0.000 C 
ATOM     27  O   UNL     1       1.169  10.288  19.838  0.00  0.00    +0.000 OA
ENDBRANCH  20  27
BRANCH  25  28
ATOM     28  O   UNL     1       0.940   7.957  21.577  0.00  0.00    +0.000 OA
ATOM     29  C   UNL     1      -0.397   8.383  21.785  0.00  0.00    +0.000 C 
ENDBRANCH  25  28
ENDBRANCH  19  24
ENDBRANCH  18  19
ENDBRANCH   1  18
TORSDOF 5
ENDMDL
MODEL 3
REMARK VINA RESULT:      -7.3      2.802      8.853
REMARK  Name = 
REMARK  9 active torsions:
REMARK  status: ('A' for Active; 'I' for Inactive)
REMARK    1  A    between atoms: C_1  and  O_2
REMARK    2  A    between atoms: O_2  and  C_3
REMARK    3  A    between atoms: C_7  and  C_8
REMARK    4  A    between atoms: C_8  and  C_9
REMARK    5  A    between atoms: C_9  and  N_10
REMARK    6  A    between atoms: N_20  and  C_21
REMARK    7  A    between atoms: N_24  and  C_25
REMARK    8  A    between atoms: C_27  and  O_28
REMARK    9  A    between atoms: O_28  and  C_29
REMARK                            x       y       z     vdW  Elec       q    Type
REMARK                         _______ _______ _______ _____ _____    ______ ____
ROOT
ATOM      1  N   UNL     1       1.234  10.046  18.806  0.00  0.00    +0.000 NA
ATOM      2  C   UNL     1       1.323   9.575  20.204  0.00  0.00    +0.000 C 
ATOM      3  C   UNL     1       1.448   8.053  20.377  0.00  0.00    +0.000 C 
ATOM      4  N   UNL     1       2.233   7.451  19.318  0.00  0.00    +0.000 N 
ATOM      5  C   UNL     1       2.731   8.141  18.239  0.00  0.00    +0.000 A 
ATOM      6  N   UNL     1       3.444   7.343  17.459  0.00  0.00    +0.000 NA
ATOM      7  C   UNL     1       3.312   6.106  18.021  0.00  0.00    +0.000 A 
ATOM      8  C   UNL     1       2.541   6.138  19.148  0.00  0.00    +0.000 A 
ATOM      9  C   UNL     1       2.192   4.982  19.890  0.00  0.00    +0.000 A 
ATOM     10  O   UNL     1       1.494   5.026  20.899  0.00  0.00    +0.000 OA
ATOM     11  N   UNL     1       2.721   3.810  19.345  0.00  0.00    +0.000 N 
ATOM     12  C   UNL     1       2.409   2.553  19.999  0.00  0.00    +0.000 C 
ATOM     13  C   UNL     1       3.572   3.737  18.223  0.00  0.00    +0.000 A 
ATOM     14  O   UNL     1       4.044   2.658  17.853  0.00  0.00    +0.000 OA
ATOM     15  N   UNL     1       3.856   4.932  17.558  0.00  0.00    +0.000 N 
ATOM     16  C   UNL     1       4.733   4.944  16.402  0.00  0.00    +0.000 C 
ATOM     17  C   UNL     1       2.446   9.602  18.070  0.00  0.00    +0.000 C 
ENDROOT
BRANCH   1  18
ATOM     18  C   UNL     1      -0.006   9.630  18.104  0.00  0.00    +0.000 C 
BRANCH  18  19
ATOM     19  C   UNL     1      -1.280  10.200  18.750  0.00  0.00    +0.000 C 
BRANCH  19  24
ATOM     20  C   UNL     1      -4.475  11.605  17.128  0.00  0.00    +0.000 A 
ATOM     21  C   UNL     1      -4.280  11.164  15.809  0.00  0.00    +0.000 A 
ATOM     22  C   UNL     1      -3.215  10.326  15.487  0.00  0.00    +0.000 A 
ATOM     23  C   UNL     1      -2.292   9.974  16.463  0.00  0.00    +0.000 A 
ATOM     24  C   UNL     1      -2.403  10.484  17.767  0.00  0.00    +0.000 A 
ATOM     25  C   UNL     1      -3.515  11.288  18.114  0.00  0.00    +0.000 A 
BRANCH  20  27
ATOM     26  C   UNL     1      -6.700  11.655  17.968  0.00  0.00    +0.000 C 
ATOM     27  O   UNL     1      -5.567  12.360  17.467  0.00  0.00    +0.000 OA
ENDBRANCH  20  27
BRANCH  25  28
ATOM     28  O   UNL     1      -3.534  11.655  19.437  0.00  0.00    +0.000 OA
ATOM     29  C   UNL     1      -2.975  12.904  19.815  0.00  0.00    +0.000 C 
ENDBRANCH  25  28
ENDBRANCH  19  24
ENDBRANCH  18  19
ENDBRANCH   1  18
TORSDOF 5
ENDMDL
MODEL 4
REMARK VINA RESULT:      -7.1      2.679      8.748
REMARK  Name = 
REMARK  9 active torsions:
REMARK  status: ('A' for Active; 'I' for Inactive)
REMARK    1  A    between atoms: C_1  and  O_2
REMARK    2  A    between atoms: O_2  and  C_3
REMARK    3  A    between atoms: C_7  and  C_8
REMARK    4  A    between atoms: C_8  and  C_9
REMARK    5  A    between atoms: C_9  and  N_10
REMARK    6  A    between atoms: N_20  and  C_21
REMARK    7  A    between atoms: N_24  and  C_25
REMARK    8  A    between atoms: C_27  and  O_28
REMARK    9  A    between atoms: O_28  and  C_29
REMARK                            x       y       z     vdW  Elec       q    Type
REMARK                         _______ _______ _______ _____ _____    ______ ____
ROOT
ATOM      1  N   UNL     1       0.743  10.217  19.088  0.00  0.00    +0.000 NA
ATOM      2  C   UNL     1       0.982   9.763  20.475  0.00  0.00    +0.000 C 
ATOM      3  C   UNL     1       1.321   8.272  20.627  0.00  0.00    +0.000 C 
ATOM      4  N   UNL     1       2.111   7.780  19.516  0.00  0.00    +0.000 N 
ATOM      5  C   UNL     1       2.444   8.530  18.414  0.00  0.00    +0.000 A 
ATOM      6  N   UNL     1       3.207   7.834  17.586  0.00  0.00    +0.000 NA
ATOM      7  C   UNL     1       3.277   6.591  18.145  0.00  0.00    +0.000 A 
ATOM      8  C   UNL     1       2.581   6.520  19.318  0.00  0.00    +0.000 A 
ATOM      9  C   UNL     1       2.437   5.328  20.070  0.00  0.00    +0.000 A 
ATOM     10  O   UNL     1       1.804   5.278  21.121  0.00  0.00    +0.000 OA
ATOM     11  N   UNL     1       3.083   4.237  19.484  0.00  0.00    +0.000 N 
ATOM     12  C   UNL     1       2.984   2.951  20.146  0.00  0.00    +0.000 C 
ATOM     13  C   UNL     1       3.865   4.279  18.311  0.00  0.00    +0.000 A 
ATOM     14  O   UNL     1       4.453   3.273  17.904  0.00  0.00    +0.000 OA
ATOM     15  N   UNL     1       3.944   5.501  17.640  0.00  0.00    +0.000 N 
ATOM     16  C   UNL     1       4.737   5.630  16.431  0.00  0.00    +0.000 C 
ATOM     17  C   UNL     1       1.955   9.940  18.275  0.00  0.00    +0.000 C 
ENDROOT
BRANCH   1  18
ATOM     18  C   UNL     1      -0.471   9.638  18.461  0.00  0.00    +0.000 C 
BRANCH  18  19
ATOM     19  C   UNL     1      -1.209  10.636  17.552  0.00  0.00    +0.000 C 
BRANCH  19  24
ATOM     20  C   UNL     1      -4.820  11.602  18.467  0.00  0.00    +0.000 A 
ATOM     21  C   UNL     1      -4.573  12.352  19.627  0.00  0.00    +0.000 A 
ATOM     22  C   UNL     1      -3.271  12.647  20.024  0.00  0.00    +0.000 A 
ATOM     23  C   UNL     1      -2.197  12.137  19.305  0.00  0.00    +0.000 A 
ATOM     24  C   UNL     1      -2.413  11.297  18.200  0.00  0.00    +0.000 A 
ATOM     25  C   UNL     1      -3.734  11.042  17.759  0.00  0.00    +0.000 A 
BRANCH  20  27
ATOM     26  C   UNL     1      -6.881  10.454  18.778  0.00  0.00    +0.000 C 
ATOM     27  O   UNL     1      -6.099  11.379  18.026  0.00  0.00    +0.000 OA
ENDBRANCH  20  27
BRANCH  25  28
ATOM     28  O   UNL     1      -3.793  10.267  16.628  0.00  0.00    +0.000 OA
ATOM     29  C   UNL     1      -3.801  10.899  15.357  0.00  0.00    +0.000 C 
ENDBRANCH  25  28
ENDBRANCH  19  24
ENDBRANCH  18  19
ENDBRANCH   1  18
TORSDOF 5
ENDMDL
MODEL 5
REMARK VINA RESULT:      -6.9      2.344      8.705
REMARK  Name = 
REMARK  9 active torsions:
REMARK  status: ('A' for Active; 'I' for Inactive)
REMARK    1  A    between atoms: C_1  and  O_2
REMARK    2  A    between atoms: O_2  and  C_3
REMARK    3  A    between atoms: C_7  and  C_8
REMARK    4  A    between atoms: C_8  and  C_9
REMARK    5  A    between atoms: C_9  and  N_10
REMARK    6  A    between atoms: N_20  and  C_21
REMARK    7  A    between atoms: N_24  and  C_25
REMARK    8  A    between atoms: C_27  and  O_28
REMARK    9  A    between atoms: O_28  and  C_29
REMARK                            x       y       z     vdW  Elec       q    Type
REMARK                         _______ _______ _______ _____ _____    ______ ____
ROOT
ATOM      1  N   UNL     1       0.726  10.271  18.963  0.00  0.00    +0.000 NA
ATOM      2  C   UNL     1       0.924   9.839  20.363  0.00  0.00    +0.000 C 
ATOM      3  C   UNL     1       1.235   8.345  20.549  0.00  0.00    +0.000 C 
ATOM      4  N   UNL     1       2.045   7.821  19.466  0.00  0.00    +0.000 N 
ATOM      5  C   UNL     1       2.416   8.547  18.360  0.00  0.00    +0.000 A 
ATOM      6  N   UNL     1       3.188   7.825  17.562  0.00  0.00    +0.000 NA
ATOM      7  C   UNL     1       3.224   6.591  18.144  0.00  0.00    +0.000 A 
ATOM      8  C   UNL     1       2.498   6.551  19.301  0.00  0.00    +0.000 A 
ATOM      9  C   UNL     1       2.318   5.375  20.070  0.00  0.00    +0.000 A 
ATOM     10  O   UNL     1       1.659   5.353  21.105  0.00  0.00    +0.000 OA
ATOM     11  N   UNL     1       2.960   4.264  19.519  0.00  0.00    +0.000 N 
ATOM     12  C   UNL     1       2.825   2.991  20.200  0.00  0.00    +0.000 C 
ATOM     13  C   UNL     1       3.771   4.273  18.364  0.00  0.00    +0.000 A 
ATOM     14  O   UNL     1       4.352   3.251  17.989  0.00  0.00    +0.000 OA
ATOM     15  N   UNL     1       3.885   5.482  17.674  0.00  0.00    +0.000 N 
ATOM     16  C   UNL     1       4.710   5.577  16.484  0.00  0.00    +0.000 C 
ATOM     17  C   UNL     1       1.953   9.961  18.185  0.00  0.00    +0.000 C 
ENDROOT
BRANCH   1  18
ATOM     18  C   UNL     1      -0.481   9.701  18.317  0.00  0.00    +0.000 C 
BRANCH  18  19
ATOM     19  C   UNL     1      -1.296  10.749  17.539  0.00  0.00    +0.000 C 
BRANCH  19  24
ATOM     20  C   UNL     1      -4.283  12.247  19.447  0.00  0.00    +0.000 A 
ATOM     21  C   UNL     1      -5.328  11.529  18.845  0.00  0.00    +0.000 A 
ATOM     22  C   UNL     1      -5.061  10.499  17.947  0.00  0.00    +0.000 A 
ATOM     23  C   UNL     1      -3.750  10.219  17.585  0.00  0.00    +0.000 A 
ATOM     24  C   UNL     1      -2.690  10.989  18.091  0.00  0.00    +0.000 A 
ATOM     25  C   UNL     1      -2.951  11.999  19.049  0.00  0.00    +0.000 A 
BRANCH  20  27
ATOM     26  C   UNL     1      -5.268  12.788  21.544  0.00  0.00    +0.000 C 
ATOM     27  O   UNL     1      -4.536  13.206  20.394  0.00  0.00    +0.000 OA
ENDBRANCH  20  27
BRANCH  25  28
ATOM     28  O   UNL     1      -1.818  12.621  19.511  0.00  0.00    +0.000 OA
ATOM     29  C   UNL     1      -1.447  12.459  20.871  0.00  0.00    +0.000 C 
ENDBRANCH  25  28
ENDBRANCH  19  24
ENDBRANCH  18  19
ENDBRANCH   1  18
TORSDOF 5
ENDMDL
MODEL 6
REMARK VINA RESULT:      -6.8      2.838      8.051
REMARK  Name = 
REMARK  9 active torsions:
REMARK  status: ('A' for Active; 'I' for Inactive)
REMARK    1  A    between atoms: C_1  and  O_2
REMARK    2  A    between atoms: O_2  and  C_3
REMARK    3  A    between atoms: C_7  and  C_8
REMARK    4  A    between atoms: C_8  and  C_9
REMARK    5  A    between atoms: C_9  and  N_10
REMARK    6  A    between atoms: N_20  and  C_21
REMARK    7  A    between atoms: N_24  and  C_25
REMARK    8  A    between atoms: C_27  and  O_28
REMARK    9  A    between atoms: O_28  and  C_29
REMARK                            x       y       z     vdW  Elec       q    Type
REMARK                         _______ _______ _______ _____ _____    ______ ____
ROOT
ATOM      1  N   UNL     1       1.412   4.332  20.823  0.00  0.00    +0.000 NA
ATOM      2  C   UNL     1       1.238   3.185  19.907  0.00  0.00    +0.000 C 
ATOM      3  C   UNL     1       2.052   3.258  18.605  0.00  0.00    +0.000 C 
ATOM      4  N   UNL     1       3.344   3.884  18.807  0.00  0.00    +0.000 N 
ATOM      5  C   UNL     1       3.758   4.429  19.999  0.00  0.00    +0.000 A 
ATOM      6  N   UNL     1       4.995   4.889  19.899  0.00  0.00    +0.000 NA
ATOM      7  C   UNL     1       5.326   4.705  18.588  0.00  0.00    +0.000 A 
ATOM      8  C   UNL     1       4.312   4.120  17.884  0.00  0.00    +0.000 A 
ATOM      9  C   UNL     1       4.369   3.874  16.489  0.00  0.00    +0.000 A 
ATOM     10  O   UNL     1       3.448   3.351  15.869  0.00  0.00    +0.000 OA
ATOM     11  N   UNL     1       5.571   4.294  15.915  0.00  0.00    +0.000 N 
ATOM     12  C   UNL     1       5.738   4.124  14.484  0.00  0.00    +0.000 C 
ATOM     13  C   UNL     1       6.667   4.844  16.612  0.00  0.00    +0.000 A 
ATOM     14  O   UNL     1       7.716   5.126  16.025  0.00  0.00    +0.000 OA
ATOM     15  N   UNL     1       6.512   5.048  17.985  0.00  0.00    +0.000 N 
ATOM     16  C   UNL     1       7.597   5.599  18.777  0.00  0.00    +0.000 C 
ATOM     17  C   UNL     1       2.847   4.443  21.189  0.00  0.00    +0.000 C 
ENDROOT
BRANCH   1  18
ATOM     18  C   UNL     1       0.888   5.615  20.295  0.00  0.00    +0.000 C 
BRANCH  18  19
ATOM     19  C   UNL     1       1.698   6.834  20.771  0.00  0.00    +0.000 C 
BRANCH  19  24
ATOM     20  C   UNL     1       0.503  10.345  19.746  0.00  0.00    +0.000 A 
ATOM     21  C   UNL     1       1.237  10.505  18.561  0.00  0.00    +0.000 A 
ATOM     22  C   UNL     1       1.992   9.455  18.042  0.00  0.00    +0.000 A 
ATOM     23  C   UNL     1       2.078   8.256  18.737  0.00  0.00    +0.000 A 
ATOM     24  C   UNL     1       1.438   8.103  19.978  0.00  0.00    +0.000 A 
ATOM     25  C   UNL     1       0.623   9.145  20.481  0.00  0.00    +0.000 A 
BRANCH  20  27
ATOM     26  C   UNL     1      -1.375  11.756  19.366  0.00  0.00    +0.000 C 
ATOM     27  O   UNL     1      -0.307  11.346  20.217  0.00  0.00    +0.000 OA
ENDBRANCH  20  27
BRANCH  25  28
ATOM     28  O   UNL     1       0.001   8.832  21.664  0.00  0.00    +0.000 OA
ATOM     29  C   UNL     1       0.443   9.453  22.862  0.00  0.00    +0.000 C 
ENDBRANCH  25  28
ENDBRANCH  19  24
ENDBRANCH  18  19
ENDBRANCH   1  18
TORSDOF 5
ENDMDL
MODEL 7
REMARK VINA RESULT:      -6.6      3.361      4.875
REMARK  Name = 
REMARK  9 active torsions:
REMARK  status: ('A' for Active; 'I' for Inactive)
REMARK    1  A    between atoms: C_1  and  O_2
REMARK    2  A    between atoms: O_2  and  C_3
REMARK    3  A    between atoms: C_7  and  C_8
REMARK    4  A    between atoms: C_8  and  C_9
REMARK    5  A    between atoms: C_9  and  N_10
REMARK    6  A    between atoms: N_20  and  C_21
REMARK    7  A    between atoms: N_24  and  C_25
REMARK    8  A    between atoms: C_27  and  O_28
REMARK    9  A    between atoms: O_28  and  C_29
REMARK                            x       y       z     vdW  Elec       q    Type
REMARK                         _______ _______ _______ _____ _____    ______ ____
ROOT
ATOM      1  N   UNL     1       0.477   9.439  19.566  0.00  0.00    +0.000 NA
ATOM      2  C   UNL     1      -0.544  10.236  20.278  0.00  0.00    +0.000 C 
ATOM      3  C   UNL     1      -0.034  11.545  20.902  0.00  0.00    +0.000 C 
ATOM      4  N   UNL     1       0.992  12.169  20.090  0.00  0.00    +0.000 N 
ATOM      5  C   UNL     1       1.512  11.615  18.945  0.00  0.00    +0.000 A 
ATOM      6  N   UNL     1       2.398  12.428  18.391  0.00  0.00    +0.000 NA
ATOM      7  C   UNL     1       2.496  13.475  19.262  0.00  0.00    +0.000 A 
ATOM      8  C   UNL     1       1.665  13.323  20.335  0.00  0.00    +0.000 A 
ATOM      9  C   UNL     1       1.616  14.235  21.419  0.00  0.00    +0.000 A 
ATOM     10  O   UNL     1       0.867  14.083  22.380  0.00  0.00    +0.000 OA
ATOM     11  N   UNL     1       2.505  15.301  21.271  0.00  0.00    +0.000 N 
ATOM     12  C   UNL     1       2.569  16.288  22.331  0.00  0.00    +0.000 C 
ATOM     13  C   UNL     1       3.333  15.530  20.151  0.00  0.00    +0.000 A 
ATOM     14  O   UNL     1       4.041  16.539  20.082  0.00  0.00    +0.000 OA
ATOM     15  N   UNL     1       3.312  14.573  19.135  0.00  0.00    +0.000 N 
ATOM     16  C   UNL     1       4.126  14.741  17.945  0.00  0.00    +0.000 C 
ATOM     17  C   UNL     1       1.060  10.265  18.478  0.00  0.00    +0.000 C 
ENDROOT
BRANCH   1  18
ATOM     18  C   UNL     1       1.534   8.880  20.445  0.00  0.00    +0.000 C 
BRANCH  18  19
ATOM     19  C   UNL     1       1.484   7.346  20.542  0.00  0.00    +0.000 C 
BRANCH  19  24
ATOM     20  C   UNL     1       3.696   4.646  18.921  0.00  0.00    +0.000 A 
ATOM     21  C   UNL     1       4.070   5.323  17.751  0.00  0.00    +0.000 A 
ATOM     22  C   UNL     1       3.727   6.659  17.558  0.00  0.00    +0.000 A 
ATOM     23  C   UNL     1       2.944   7.315  18.500  0.00  0.00    +0.000 A 
ATOM     24  C   UNL     1       2.467   6.632  19.631  0.00  0.00    +0.000 A 
ATOM     25  C   UNL     1       2.862   5.292  19.860  0.00  0.00    +0.000 A 
BRANCH  20  27
ATOM     26  C   UNL     1       3.601   2.360  18.268  0.00  0.00    +0.000 C 
ATOM     27  O   UNL     1       4.102   3.358  19.154  0.00  0.00    +0.000 OA
ENDBRANCH  20  27
BRANCH  25  28
ATOM     28  O   UNL     1       2.382   4.774  21.037  0.00  0.00    +0.000 OA
ATOM     29  C   UNL     1       1.401   3.750  20.992  0.00  0.00    +0.000 C 
ENDBRANCH  25  28
ENDBRANCH  19  24
ENDBRANCH  18  19
ENDBRANCH   1  18
TORSDOF 5
ENDMDL
MODEL 8
REMARK VINA RESULT:      -6.6      2.433      3.511
REMARK  Name = 
REMARK  9 active torsions:
REMARK  status: ('A' for Active; 'I' for Inactive)
REMARK    1  A    between atoms: C_1  and  O_2
REMARK    2  A    between atoms: O_2  and  C_3
REMARK    3  A    between atoms: C_7  and  C_8
REMARK    4  A    between atoms: C_8  and  C_9
REMARK    5  A    between atoms: C_9  and  N_10
REMARK    6  A    between atoms: N_20  and  C_21
REMARK    7  A    between atoms: N_24  and  C_25
REMARK    8  A    between atoms: C_27  and  O_28
REMARK    9  A    between atoms: O_28  and  C_29
REMARK                            x       y       z     vdW  Elec       q    Type
REMARK                         _______ _______ _______ _____ _____    ______ ____
ROOT
ATOM      1  N   UNL     1       1.287   9.474  17.852  0.00  0.00    +0.000 NA
ATOM      2  C   UNL     1      -0.174   9.680  17.940  0.00  0.00    +0.000 C 
ATOM      3  C   UNL     1      -0.649  10.497  19.152  0.00  0.00    +0.000 C 
ATOM      4  N   UNL     1       0.292  11.543  19.503  0.00  0.00    +0.000 N 
ATOM      5  C   UNL     1       1.505  11.728  18.884  0.00  0.00    +0.000 A 
ATOM      6  N   UNL     1       2.130  12.783  19.382  0.00  0.00    +0.000 NA
ATOM      7  C   UNL     1       1.324  13.213  20.397  0.00  0.00    +0.000 A 
ATOM      8  C   UNL     1       0.202  12.444  20.515  0.00  0.00    +0.000 A 
ATOM      9  C   UNL     1      -0.772  12.633  21.529  0.00  0.00    +0.000 A 
ATOM     10  O   UNL     1      -1.774  11.931  21.626  0.00  0.00    +0.000 OA
ATOM     11  N   UNL     1      -0.459  13.688  22.389  0.00  0.00    +0.000 N 
ATOM     12  C   UNL     1      -1.365  13.963  23.487  0.00  0.00    +0.000 C 
ATOM     13  C   UNL     1       0.654  14.546  22.265  0.00  0.00    +0.000 A 
ATOM     14  O   UNL     1       0.812  15.495  23.039  0.00  0.00    +0.000 OA
ATOM     15  N   UNL     1       1.557  14.276  21.235  0.00  0.00    +0.000 N 
ATOM     16  C   UNL     1       2.721  15.119  21.033  0.00  0.00    +0.000 C 
ATOM     17  C   UNL     1       1.958  10.798  17.799  0.00  0.00    +0.000 C 
ENDROOT
BRANCH   1  18
ATOM     18  C   UNL     1       1.846   8.628  18.934  0.00  0.00    +0.000 C 
BRANCH  18  19
ATOM     19  C   UNL     1       2.905   7.632  18.430  0.00  0.00    +0.000 C 
BRANCH  19  24
ATOM     20  C   UNL     1       3.442   3.895  19.174  0.00  0.00    +0.000 A 
ATOM     21  C   UNL     1       2.714   3.788  20.368  0.00  0.00    +0.000 A 
ATOM     22  C   UNL     1       1.963   4.859  20.845  0.00  0.00    +0.000 A 
ATOM     23  C   UNL     1       1.986   6.074  20.172  0.00  0.00    +0.000 A 
ATOM     24  C   UNL     1       2.789   6.242  19.031  0.00  0.00    +0.000 A 
ATOM     25  C   UNL     1       3.507   5.139  18.510  0.00  0.00    +0.000 A 
BRANCH  20  27
ATOM     26  C   UNL     1       3.389   1.595  18.565  0.00  0.00    +0.000 C 
ATOM     27  O   UNL     1       4.115   2.818  18.656  0.00  0.00    +0.000 OA
ENDBRANCH  20  27
BRANCH  25  28
ATOM     28  O   UNL     1       4.189   5.427  17.353  0.00  0.00    +0.000 OA
ATOM     29  C   UNL     1       5.600   5.573  17.401  0.00  0.00    +0.000 C 
ENDBRANCH  25  28
ENDBRANCH  19  24
ENDBRANCH  18  19
ENDBRANCH   1  18
TORSDOF 5
ENDMDL
MODEL 9
REMARK VINA RESULT:      -6.6      2.268      3.891
REMARK  Name = 
REMARK  9 active torsions:
REMARK  status: ('A' for Active; 'I' for Inactive)
REMARK    1  A    between atoms: C_1  and  O_2
REMARK    2  A    between atoms: O_2  and  C_3
REMARK    3  A    between atoms: C_7  and  C_8
REMARK    4  A    between atoms: C_8  and  C_9
REMARK    5  A    between atoms: C_9  and  N_10
REMARK    6  A    between atoms: N_20  and  C_21
REMARK    7  A    between atoms: N_24  and  C_25
REMARK    8  A    between atoms: C_27  and  O_28
REMARK    9  A    between atoms: O_28  and  C_29
REMARK                            x       y       z     vdW  Elec       q    Type
REMARK                         _______ _______ _______ _____ _____    ______ ____
ROOT
ATOM      1  N   UNL     1       1.490   9.416  19.690  0.00  0.00    +0.000 NA
ATOM      2  C   UNL     1       1.257   9.682  18.255  0.00  0.00    +0.000 C 
ATOM      3  C   UNL     1      -0.193  10.025  17.879  0.00  0.00    +0.000 C 
ATOM      4  N   UNL     1      -0.854  10.795  18.914  0.00  0.00    +0.000 N 
ATOM      5  C   UNL     1      -0.285  11.106  20.125  0.00  0.00    +0.000 A 
ATOM      6  N   UNL     1      -1.102  11.854  20.850  0.00  0.00    +0.000 NA
ATOM      7  C   UNL     1      -2.243  11.936  20.105  0.00  0.00    +0.000 A 
ATOM      8  C   UNL     1      -2.129  11.261  18.923  0.00  0.00    +0.000 A 
ATOM      9  C   UNL     1      -3.190  11.133  17.991  0.00  0.00    +0.000 A 
ATOM     10  O   UNL     1      -3.075  10.520  16.934  0.00  0.00    +0.000 OA
ATOM     11  N   UNL     1      -4.360  11.769  18.413  0.00  0.00    +0.000 N 
ATOM     12  C   UNL     1      -5.528  11.684  17.557  0.00  0.00    +0.000 C 
ATOM     13  C   UNL     1      -4.503  12.529  19.593  0.00  0.00    +0.000 A 
ATOM     14  O   UNL     1      -5.561  13.110  19.849  0.00  0.00    +0.000 OA
ATOM     15  N   UNL     1      -3.400  12.594  20.447  0.00  0.00    +0.000 N 
ATOM     16  C   UNL     1      -3.462  13.364  21.676  0.00  0.00    +0.000 C 
ATOM     17  C   UNL     1       1.088  10.613  20.473  0.00  0.00    +0.000 C 
ENDROOT
BRANCH   1  18
ATOM     18  C   UNL     1       0.824   8.192  20.197  0.00  0.00    +0.000 C 
BRANCH  18  19
ATOM     19  C   UNL     1       1.818   7.140  20.718  0.00  0.00    +0.000 C 
BRANCH  19  24
ATOM     20  C   UNL     1       2.472   4.068  18.496  0.00  0.00    +0.000 A 
ATOM     21  C   UNL     1       3.227   4.672  17.479  0.00  0.00    +0.000 A 
ATOM     22  C   UNL     1       3.624   6.003  17.580  0.00  0.00    +0.000 A 
ATOM     23  C   UNL     1       3.212   6.768  18.664  0.00  0.00    +0.000 A 
ATOM     24  C   UNL     1       2.370   6.219  19.645  0.00  0.00    +0.000 A 
ATOM     25  C   UNL     1       2.012   4.851  19.577  0.00  0.00    +0.000 A 
BRANCH  20  27
ATOM     26  C   UNL     1       3.238   1.815  18.468  0.00  0.00    +0.000 C 
ATOM     27  O   UNL     1       2.150   2.736  18.442  0.00  0.00    +0.000 OA
ENDBRANCH  20  27
BRANCH  25  28
ATOM     28  O   UNL     1       1.247   4.432  20.638  0.00  0.00    +0.000 OA
ATOM     29  C   UNL     1       1.813   3.542  21.588  0.00  0.00    +0.000 C 
ENDBRANCH  25  28
ENDBRANCH  19  24
ENDBRANCH  18  19
ENDBRANCH   1  18
TORSDOF 5
ENDMDL
