MODEL 1
REMARK VINA RESULT:      -8.9      0.000      0.000
REMARK  Name = 
REMARK  4 active torsions:
REMARK  status: ('A' for Active; 'I' for Inactive)
REMARK    1  A    between atoms: C_2  and  C_11
REMARK    2  A    between atoms: N_3  and  C_4
REMARK    3  A    between atoms: C_4  and  C_5
REMARK    4  A    between atoms: C_16  and  C_17
REMARK                            x       y       z     vdW  Elec       q    Type
REMARK                         _______ _______ _______ _____ _____    ______ ____
ROOT
ATOM      1  C   UNL     1       2.235   5.074  19.674  0.00  0.00    +0.000 A 
ATOM      2  C   UNL     1       1.188   4.514  20.436  0.00  0.00    +0.000 A 
ATOM      3  C   UNL     1       1.015   3.133  20.495  0.00  0.00    +0.000 A 
ATOM      4  C   UNL     1       1.880   2.304  19.796  0.00  0.00    +0.000 A 
ATOM      5  C   UNL     1       2.934   2.852  19.060  0.00  0.00    +0.000 A 
ATOM      6  C   UNL     1       3.161   4.247  18.986  0.00  0.00    +0.000 A 
ENDROOT
BRANCH   6   7
ATOM      7  C   UNL     1       4.349   4.727  18.221  0.00  0.00    +0.000 A 
ATOM      8  C   UNL     1       4.307   4.869  16.821  0.00  0.00    +0.000 A 
ATOM      9  C   UNL     1       5.398   5.371  16.113  0.00  0.00    +0.000 A 
ATOM     10  F   UNL     1       5.326   5.460  14.779  0.00  0.00    +0.000 F 
ATOM     11  C   UNL     1       6.543   5.796  16.764  0.00  0.00    +0.000 A 
ATOM     12  C   UNL     1       6.612   5.661  18.140  0.00  0.00    +0.000 A 
ATOM     13 CL   UNL     1       7.979   6.266  18.993  0.00  0.00    +0.000 Cl
ATOM     14  C   UNL     1       5.557   5.081  18.852  0.00  0.00    +0.000 A 
ENDBRANCH   6   7
BRANCH   1  16
ATOM     15  O   UNL     1       2.656   7.183  18.672  0.00  0.00    +0.000 OA
ATOM     16  C   UNL     1       2.262   6.577  19.662  0.00  0.00    +0.000 C 
ATOM     17  N   UNL     1       1.833   7.189  20.816  0.00  0.00    +0.000 N 
ATOM     18  H   UNL     1       1.606   6.613  21.613  0.00  0.00    +0.000 HD
BRANCH  17  19
ATOM     19  C   UNL     1       1.602   8.616  20.937  0.00  0.00    +0.000 C 
BRANCH  19  20
ATOM     20  C   UNL     1       0.102   8.924  20.926  0.00  0.00    +0.000 C 
ATOM     21  C   UNL     1      -0.183  10.378  20.511  0.00  0.00    +0.000 C 
ATOM     22  C   UNL     1       0.182  11.380  21.607  0.00  0.00    +0.000 C 
ATOM     23  N   UNL     1      -0.477  11.069  22.875  0.00  0.00    +0.000 NA
ATOM     24  C   UNL     1      -0.160   9.715  23.332  0.00  0.00    +0.000 C 
ATOM     25  C   UNL     1      -0.547   8.661  22.292  0.00  0.00    +0.000 C 
ATOM     26  H   UNL     1      -1.486  11.144  22.747  0.00  0.00    +0.000 HD
ENDBRANCH  19  20
ENDBRANCH  17  19
ENDBRANCH   1  16
TORSDOF 4
ENDMDL
MODEL 2
REMARK VINA RESULT:      -8.9      1.484      1.772
REMARK  Name = 
REMARK  4 active torsions:
REMARK  status: ('A' for Active; 'I' for Inactive)
REMARK    1  A    between atoms: C_2  and  C_11
REMARK    2  A    between atoms: N_3  and  C_4
REMARK    3  A    between atoms: C_4  and  C_5
REMARK    4  A    between atoms: C_16  and  C_17
REMARK                            x       y       z     vdW  Elec       q    Type
REMARK                         _______ _______ _______ _____ _____    ______ ____
ROOT
ATOM      1  C   UNL     1       2.286   5.093  19.755  0.00  0.00    +0.000 A 
ATOM      2  C   UNL     1       1.194   4.534  20.449  0.00  0.00    +0.000 A 
ATOM      3  C   UNL     1       1.056   3.152  20.558  0.00  0.00    +0.000 A 
ATOM      4  C   UNL     1       2.001   2.322  19.974  0.00  0.00    +0.000 A 
ATOM      5  C   UNL     1       3.099   2.871  19.307  0.00  0.00    +0.000 A 
ATOM      6  C   UNL     1       3.292   4.268  19.188  0.00  0.00    +0.000 A 
ENDROOT
BRANCH   6   7
ATOM      7  C   UNL     1       4.529   4.752  18.505  0.00  0.00    +0.000 A 
ATOM      8  C   UNL     1       5.636   5.213  19.243  0.00  0.00    +0.000 A 
ATOM      9  C   UNL     1       6.811   5.612  18.607  0.00  0.00    +0.000 A 
ATOM     10  F   UNL     1       7.829   6.073  19.345  0.00  0.00    +0.000 F 
ATOM     11  C   UNL     1       6.951   5.521  17.233  0.00  0.00    +0.000 A 
ATOM     12  C   UNL     1       5.874   5.076  16.484  0.00  0.00    +0.000 A 
ATOM     13 CL   UNL     1       6.042   4.859  14.786  0.00  0.00    +0.000 Cl
ATOM     14  C   UNL     1       4.662   4.754  17.104  0.00  0.00    +0.000 A 
ENDBRANCH   6   7
BRANCH   1  16
ATOM     15  O   UNL     1       2.620   7.165  18.647  0.00  0.00    +0.000 OA
ATOM     16  C   UNL     1       2.272   6.595  19.674  0.00  0.00    +0.000 C 
ATOM     17  N   UNL     1       1.861   7.248  20.813  0.00  0.00    +0.000 N 
ATOM     18  H   UNL     1       1.674   6.702  21.642  0.00  0.00    +0.000 HD
BRANCH  17  19
ATOM     19  C   UNL     1       1.595   8.672  20.877  0.00  0.00    +0.000 C 
BRANCH  19  20
ATOM     20  C   UNL     1       0.088   8.939  20.912  0.00  0.00    +0.000 C 
ATOM     21  C   UNL     1      -0.247  10.396  20.546  0.00  0.00    +0.000 C 
ATOM     22  C   UNL     1       0.119  11.376  21.662  0.00  0.00    +0.000 C 
ATOM     23  N   UNL     1      -0.499  11.011  22.936  0.00  0.00    +0.000 NA
ATOM     24  C   UNL     1      -0.136   9.653  23.345  0.00  0.00    +0.000 C 
ATOM     25  C   UNL     1      -0.520   8.619  22.284  0.00  0.00    +0.000 C 
ATOM     26  H   UNL     1      -1.514  11.062  22.835  0.00  0.00    +0.000 HD
ENDBRANCH  19  20
ENDBRANCH  17  19
ENDBRANCH   1  16
TORSDOF 4
ENDMDL
MODEL 3
REMARK VINA RESULT:      -8.3      1.924      2.270
REMARK  Name = 
REMARK  4 active torsions:
REMARK  status: ('A' for Active; 'I' for Inactive)
REMARK    1  A    between atoms: C_2  and  C_11
REMARK    2  A    between atoms: N_3  and  C_4
REMARK    3  A    between atoms: C_4  and  C_5
REMARK    4  A    between atoms: C_16  and  C_17
REMARK                            x       y       z     vdW  Elec       q    Type
REMARK                         _______ _______ _______ _____ _____    ______ ____
ROOT
ATOM      1  C   UNL     1       2.559   5.116  19.814  0.00  0.00    +0.000 A 
ATOM      2  C   UNL     1       1.528   4.734  20.696  0.00  0.00    +0.000 A 
ATOM      3  C   UNL     1       1.543   3.479  21.303  0.00  0.00    +0.000 A 
ATOM      4  C   UNL     1       2.582   2.600  21.033  0.00  0.00    +0.000 A 
ATOM      5  C   UNL     1       3.620   2.984  20.179  0.00  0.00    +0.000 A 
ATOM      6  C   UNL     1       3.657   4.254  19.556  0.00  0.00    +0.000 A 
ENDROOT
BRANCH   6   7
ATOM      7  C   UNL     1       4.840   4.587  18.708  0.00  0.00    +0.000 A 
ATOM      8  C   UNL     1       5.952   5.266  19.241  0.00  0.00    +0.000 A 
ATOM      9  C   UNL     1       7.080   5.526  18.464  0.00  0.00    +0.000 A 
ATOM     10  F   UNL     1       8.103   6.201  19.003  0.00  0.00    +0.000 F 
ATOM     11  C   UNL     1       7.169   5.083  17.156  0.00  0.00    +0.000 A 
ATOM     12  C   UNL     1       6.086   4.418  16.606  0.00  0.00    +0.000 A 
ATOM     13 CL   UNL     1       6.196   3.769  15.016  0.00  0.00    +0.000 Cl
ATOM     14  C   UNL     1       4.917   4.226  17.349  0.00  0.00    +0.000 A 
ENDBRANCH   6   7
BRANCH   1  16
ATOM     15  O   UNL     1       2.474   6.621  17.982  0.00  0.00    +0.000 OA
ATOM     16  C   UNL     1       2.379   6.474  19.194  0.00  0.00    +0.000 C 
ATOM     17  N   UNL     1       2.120   7.499  20.073  0.00  0.00    +0.000 N 
ATOM     18  H   UNL     1       2.144   7.304  21.064  0.00  0.00    +0.000 HD
BRANCH  17  19
ATOM     19  C   UNL     1       1.727   8.834  19.666  0.00  0.00    +0.000 C 
BRANCH  19  20
ATOM     20  C   UNL     1       0.457   9.272  20.400  0.00  0.00    +0.000 C 
ATOM     21  C   UNL     1      -0.612   9.806  19.430  0.00  0.00    +0.000 C 
ATOM     22  C   UNL     1      -0.260  11.187  18.875  0.00  0.00    +0.000 C 
ATOM     23  N   UNL     1      -0.003  12.155  19.940  0.00  0.00    +0.000 NA
ATOM     24  C   UNL     1       1.065  11.705  20.836  0.00  0.00    +0.000 C 
ATOM     25  C   UNL     1       0.746  10.345  21.459  0.00  0.00    +0.000 C 
ATOM     26  H   UNL     1      -0.857  12.278  20.485  0.00  0.00    +0.000 HD
ENDBRANCH  19  20
ENDBRANCH  17  19
ENDBRANCH   1  16
TORSDOF 4
ENDMDL
MODEL 4
REMARK VINA RESULT:      -8.1      1.351      1.573
REMARK  Name = 
REMARK  4 active torsions:
REMARK  status: ('A' for Active; 'I' for Inactive)
REMARK    1  A    between atoms: C_2  and  C_11
REMARK    2  A    between atoms: N_3  and  C_4
REMARK    3  A    between atoms: C_4  and  C_5
REMARK    4  A    between atoms: C_16  and  C_17
REMARK                            x       y       z     vdW  Elec       q    Type
REMARK                         _______ _______ _______ _____ _____    ______ ____
ROOT
ATOM      1  C   UNL     1       2.587   5.218  19.700  0.00  0.00    +0.000 A 
ATOM      2  C   UNL     1       1.542   4.892  20.589  0.00  0.00    +0.000 A 
ATOM      3  C   UNL     1       1.489   3.636  21.190  0.00  0.00    +0.000 A 
ATOM      4  C   UNL     1       2.473   2.700  20.908  0.00  0.00    +0.000 A 
ATOM      5  C   UNL     1       3.524   3.027  20.047  0.00  0.00    +0.000 A 
ATOM      6  C   UNL     1       3.631   4.295  19.429  0.00  0.00    +0.000 A 
ENDROOT
BRANCH   6   7
ATOM      7  C   UNL     1       4.824   4.563  18.573  0.00  0.00    +0.000 A 
ATOM      8  C   UNL     1       4.918   4.042  17.269  0.00  0.00    +0.000 A 
ATOM      9  C   UNL     1       6.007   4.340  16.450  0.00  0.00    +0.000 A 
ATOM     10  F   UNL     1       6.071   3.798  15.227  0.00  0.00    +0.000 F 
ATOM     11  C   UNL     1       7.009   5.197  16.869  0.00  0.00    +0.000 A 
ATOM     12  C   UNL     1       6.943   5.717  18.151  0.00  0.00    +0.000 A 
ATOM     13 CL   UNL     1       8.119   6.860  18.673  0.00  0.00    +0.000 Cl
ATOM     14  C   UNL     1       5.900   5.359  19.011  0.00  0.00    +0.000 A 
ENDBRANCH   6   7
BRANCH   1  16
ATOM     15  O   UNL     1       2.828   6.778  17.929  0.00  0.00    +0.000 OA
ATOM     16  C   UNL     1       2.481   6.588  19.088  0.00  0.00    +0.000 C 
ATOM     17  N   UNL     1       1.991   7.572  19.914  0.00  0.00    +0.000 N 
ATOM     18  H   UNL     1       1.810   7.345  20.882  0.00  0.00    +0.000 HD
BRANCH  17  19
ATOM     19  C   UNL     1       1.634   8.903  19.463  0.00  0.00    +0.000 C 
BRANCH  19  20
ATOM     20  C   UNL     1       0.408   9.419  20.221  0.00  0.00    +0.000 C 
ATOM     21  C   UNL     1      -0.638  10.032  19.272  0.00  0.00    +0.000 C 
ATOM     22  C   UNL     1      -0.201  11.390  18.721  0.00  0.00    +0.000 C 
ATOM     23  N   UNL     1       0.138  12.331  19.788  0.00  0.00    +0.000 NA
ATOM     24  C   UNL     1       1.187  11.803  20.663  0.00  0.00    +0.000 C 
ATOM     25  C   UNL     1       0.787  10.462  21.282  0.00  0.00    +0.000 C 
ATOM     26  H   UNL     1      -0.697  12.507  20.348  0.00  0.00    +0.000 HD
ENDBRANCH  19  20
ENDBRANCH  17  19
ENDBRANCH   1  16
TORSDOF 4
ENDMDL
MODEL 5
REMARK VINA RESULT:      -8.0      3.558      6.234
REMARK  Name = 
REMARK  4 active torsions:
REMARK  status: ('A' for Active; 'I' for Inactive)
REMARK    1  A    between atoms: C_2  and  C_11
REMARK    2  A    between atoms: N_3  and  C_4
REMARK    3  A    between atoms: C_4  and  C_5
REMARK    4  A    between atoms: C_16  and  C_17
REMARK                            x       y       z     vdW  Elec       q    Type
REMARK                         _______ _______ _______ _____ _____    ______ ____
ROOT
ATOM      1  C   UNL     1       3.635   3.783  18.874  0.00  0.00    +0.000 A 
ATOM      2  C   UNL     1       3.675   2.391  18.654  0.00  0.00    +0.000 A 
ATOM      3  C   UNL     1       2.497   1.649  18.597  0.00  0.00    +0.000 A 
ATOM      4  C   UNL     1       1.276   2.288  18.760  0.00  0.00    +0.000 A 
ATOM      5  C   UNL     1       1.231   3.672  18.952  0.00  0.00    +0.000 A 
ATOM      6  C   UNL     1       2.399   4.469  18.998  0.00  0.00    +0.000 A 
ENDROOT
BRANCH   6   7
ATOM      7  C   UNL     1       2.238   5.945  19.150  0.00  0.00    +0.000 A 
ATOM      8  C   UNL     1       2.367   6.810  18.047  0.00  0.00    +0.000 A 
ATOM      9  C   UNL     1       2.160   8.183  18.178  0.00  0.00    +0.000 A 
ATOM     10  F   UNL     1       2.323   8.973  17.109  0.00  0.00    +0.000 F 
ATOM     11  C   UNL     1       1.771   8.739  19.383  0.00  0.00    +0.000 A 
ATOM     12  C   UNL     1       1.643   7.910  20.486  0.00  0.00    +0.000 A 
ATOM     13 CL   UNL     1       1.069   8.550  21.977  0.00  0.00    +0.000 Cl
ATOM     14  C   UNL     1       1.930   6.545  20.386  0.00  0.00    +0.000 A 
ENDBRANCH   6   7
BRANCH   1  16
ATOM     15  O   UNL     1       5.245   5.198  19.891  0.00  0.00    +0.000 OA
ATOM     16  C   UNL     1       4.986   4.438  18.966  0.00  0.00    +0.000 C 
ATOM     17  N   UNL     1       5.866   4.131  17.956  0.00  0.00    +0.000 N 
ATOM     18  H   UNL     1       5.540   3.564  17.187  0.00  0.00    +0.000 HD
BRANCH  17  19
ATOM     19  C   UNL     1       7.268   4.503  17.963  0.00  0.00    +0.000 C 
BRANCH  19  20
ATOM     20  C   UNL     1       7.609   5.349  16.734  0.00  0.00    +0.000 C 
ATOM     21  C   UNL     1       7.331   6.845  16.971  0.00  0.00    +0.000 C 
ATOM     22  C   UNL     1       5.835   7.165  16.982  0.00  0.00    +0.000 C 
ATOM     23  N   UNL     1       5.168   6.705  15.764  0.00  0.00    +0.000 NA
ATOM     24  C   UNL     1       5.354   5.268  15.555  0.00  0.00    +0.000 C 
ATOM     25  C   UNL     1       6.836   4.892  15.490  0.00  0.00    +0.000 C 
ATOM     26  H   UNL     1       5.560   7.205  14.966  0.00  0.00    +0.000 HD
ENDBRANCH  19  20
ENDBRANCH  17  19
ENDBRANCH   1  16
TORSDOF 4
ENDMDL
MODEL 6
REMARK VINA RESULT:      -8.0      1.693      2.212
REMARK  Name = 
REMARK  4 active torsions:
REMARK  status: ('A' for Active; 'I' for Inactive)
REMARK    1  A    between atoms: C_2  and  C_11
REMARK    2  A    between atoms: N_3  and  C_4
REMARK    3  A    between atoms: C_4  and  C_5
REMARK    4  A    between atoms: C_16  and  C_17
REMARK                            x       y       z     vdW  Elec       q    Type
REMARK                         _______ _______ _______ _____ _____    ______ ____
ROOT
ATOM      1  C   UNL     1       2.632   5.125  19.974  0.00  0.00    +0.000 A 
ATOM      2  C   UNL     1       1.658   4.661  20.882  0.00  0.00    +0.000 A 
ATOM      3  C   UNL     1       1.715   3.359  21.376  0.00  0.00    +0.000 A 
ATOM      4  C   UNL     1       2.738   2.515  20.969  0.00  0.00    +0.000 A 
ATOM      5  C   UNL     1       3.720   2.979  20.090  0.00  0.00    +0.000 A 
ATOM      6  C   UNL     1       3.715   4.298  19.577  0.00  0.00    +0.000 A 
ENDROOT
BRANCH   6   7
ATOM      7  C   UNL     1       4.843   4.713  18.690  0.00  0.00    +0.000 A 
ATOM      8  C   UNL     1       5.952   5.414  19.200  0.00  0.00    +0.000 A 
ATOM      9  C   UNL     1       7.031   5.750  18.383  0.00  0.00    +0.000 A 
ATOM     10  F   UNL     1       8.051   6.445  18.903  0.00  0.00    +0.000 F 
ATOM     11  C   UNL     1       7.075   5.364  17.056  0.00  0.00    +0.000 A 
ATOM     12  C   UNL     1       5.993   4.679  16.528  0.00  0.00    +0.000 A 
ATOM     13 CL   UNL     1       6.053   4.099  14.909  0.00  0.00    +0.000 Cl
ATOM     14  C   UNL     1       4.869   4.410  17.316  0.00  0.00    +0.000 A 
ENDBRANCH   6   7
BRANCH   1  16
ATOM     15  O   UNL     1       2.746   6.854  18.353  0.00  0.00    +0.000 OA
ATOM     16  C   UNL     1       2.410   6.531  19.486  0.00  0.00    +0.000 C 
ATOM     17  N   UNL     1       1.831   7.389  20.390  0.00  0.00    +0.000 N 
ATOM     18  H   UNL     1       1.665   7.062  21.331  0.00  0.00    +0.000 HD
BRANCH  17  19
ATOM     19  C   UNL     1       1.361   8.720  20.055  0.00  0.00    +0.000 C 
BRANCH  19  20
ATOM     20  C   UNL     1       1.630   9.694  21.204  0.00  0.00    +0.000 C 
ATOM     21  C   UNL     1       1.099   9.159  22.547  0.00  0.00    +0.000 C 
ATOM     22  C   UNL     1      -0.427   9.219  22.635  0.00  0.00    +0.000 C 
ATOM     23  N   UNL     1      -0.938  10.566  22.379  0.00  0.00    +0.000 NA
ATOM     24  C   UNL     1      -0.508  11.069  21.073  0.00  0.00    +0.000 C 
ATOM     25  C   UNL     1       1.016  11.076  20.942  0.00  0.00    +0.000 C 
ATOM     26  H   UNL     1      -0.587  11.193  23.103  0.00  0.00    +0.000 HD
ENDBRANCH  19  20
ENDBRANCH  17  19
ENDBRANCH   1  16
TORSDOF 4
ENDMDL
MODEL 7
REMARK VINA RESULT:      -8.0      4.262      5.932
REMARK  Name = 
REMARK  4 active torsions:
REMARK  status: ('A' for Active; 'I' for Inactive)
REMARK    1  A    between atoms: C_2  and  C_11
REMARK    2  A    between atoms: N_3  and  C_4
REMARK    3  A    between atoms: C_4  and  C_5
REMARK    4  A    between atoms: C_16  and  C_17
REMARK                            x       y       z     vdW  Elec       q    Type
REMARK                         _______ _______ _______ _____ _____    ______ ____
ROOT
ATOM      1  C   UNL     1       5.164   4.964  15.881  0.00  0.00    +0.000 A 
ATOM      2  C   UNL     1       4.683   4.239  14.771  0.00  0.00    +0.000 A 
ATOM      3  C   UNL     1       5.527   3.932  13.707  0.00  0.00    +0.000 A 
ATOM      4  C   UNL     1       6.851   4.345  13.740  0.00  0.00    +0.000 A 
ATOM      5  C   UNL     1       7.338   5.041  14.849  0.00  0.00    +0.000 A 
ATOM      6  C   UNL     1       6.524   5.359  15.962  0.00  0.00    +0.000 A 
ENDROOT
BRANCH   6   7
ATOM      7  C   UNL     1       7.158   6.055  17.122  0.00  0.00    +0.000 A 
ATOM      8  C   UNL     1       7.564   5.343  18.266  0.00  0.00    +0.000 A 
ATOM      9  C   UNL     1       8.207   5.984  19.324  0.00  0.00    +0.000 A 
ATOM     10  F   UNL     1       8.548   5.274  20.407  0.00  0.00    +0.000 F 
ATOM     11  C   UNL     1       8.515   7.331  19.268  0.00  0.00    +0.000 A 
ATOM     12  C   UNL     1       8.120   8.056  18.155  0.00  0.00    +0.000 A 
ATOM     13 CL   UNL     1       8.569   9.711  18.006  0.00  0.00    +0.000 Cl
ATOM     14  C   UNL     1       7.400   7.442  17.125  0.00  0.00    +0.000 A 
ENDBRANCH   6   7
BRANCH   1  16
ATOM     15  O   UNL     1       3.980   6.411  17.342  0.00  0.00    +0.000 OA
ATOM     16  C   UNL     1       4.125   5.268  16.925  0.00  0.00    +0.000 C 
ATOM     17  N   UNL     1       3.389   4.192  17.363  0.00  0.00    +0.000 N 
ATOM     18  H   UNL     1       3.633   3.271  17.029  0.00  0.00    +0.000 HD
BRANCH  17  19
ATOM     19  C   UNL     1       2.221   4.304  18.215  0.00  0.00    +0.000 C 
BRANCH  19  20
ATOM     20  C   UNL     1       1.792   2.927  18.728  0.00  0.00    +0.000 C 
ATOM     21  C   UNL     1       0.800   3.033  19.900  0.00  0.00    +0.000 C 
ATOM     22  C   UNL     1       1.474   3.488  21.195  0.00  0.00    +0.000 C 
ATOM     23  N   UNL     1       2.604   2.632  21.555  0.00  0.00    +0.000 NA
ATOM     24  C   UNL     1       3.601   2.574  20.484  0.00  0.00    +0.000 C 
ATOM     25  C   UNL     1       2.993   2.080  19.170  0.00  0.00    +0.000 C 
ATOM     26  H   UNL     1       2.258   1.689  21.731  0.00  0.00    +0.000 HD
ENDBRANCH  19  20
ENDBRANCH  17  19
ENDBRANCH   1  16
TORSDOF 4
ENDMDL
MODEL 8
REMARK VINA RESULT:      -7.9      3.800      5.795
REMARK  Name = 
REMARK  4 active torsions:
REMARK  status: ('A' for Active; 'I' for Inactive)
REMARK    1  A    between atoms: C_2  and  C_11
REMARK    2  A    between atoms: N_3  and  C_4
REMARK    3  A    between atoms: C_4  and  C_5
REMARK    4  A    between atoms: C_16  and  C_17
REMARK                            x       y       z     vdW  Elec       q    Type
REMARK                         _______ _______ _______ _____ _____    ______ ____
ROOT
ATOM      1  C   UNL     1       5.552   4.131  15.740  0.00  0.00    +0.000 A 
ATOM      2  C   UNL     1       5.171   3.431  14.577  0.00  0.00    +0.000 A 
ATOM      3  C   UNL     1       5.825   3.659  13.368  0.00  0.00    +0.000 A 
ATOM      4  C   UNL     1       6.857   4.584  13.310  0.00  0.00    +0.000 A 
ATOM      5  C   UNL     1       7.255   5.261  14.466  0.00  0.00    +0.000 A 
ATOM      6  C   UNL     1       6.635   5.049  15.720  0.00  0.00    +0.000 A 
ENDROOT
BRANCH   6   7
ATOM      7  C   UNL     1       7.174   5.779  16.905  0.00  0.00    +0.000 A 
ATOM      8  C   UNL     1       7.633   5.087  18.042  0.00  0.00    +0.000 A 
ATOM      9  C   UNL     1       8.190   5.767  19.125  0.00  0.00    +0.000 A 
ATOM     10  F   UNL     1       8.585   5.073  20.199  0.00  0.00    +0.000 F 
ATOM     11  C   UNL     1       8.358   7.141  19.101  0.00  0.00    +0.000 A 
ATOM     12  C   UNL     1       7.909   7.845  17.997  0.00  0.00    +0.000 A 
ATOM     13 CL   UNL     1       8.187   9.540  17.890  0.00  0.00    +0.000 Cl
ATOM     14  C   UNL     1       7.272   7.183  16.941  0.00  0.00    +0.000 A 
ENDBRANCH   6   7
BRANCH   1  16
ATOM     15  O   UNL     1       4.459   2.660  17.247  0.00  0.00    +0.000 OA
ATOM     16  C   UNL     1       4.721   3.821  16.955  0.00  0.00    +0.000 C 
ATOM     17  N   UNL     1       4.289   4.910  17.673  0.00  0.00    +0.000 N 
ATOM     18  H   UNL     1       4.479   5.834  17.313  0.00  0.00    +0.000 HD
BRANCH  17  19
ATOM     19  C   UNL     1       3.645   4.820  18.970  0.00  0.00    +0.000 C 
BRANCH  19  20
ATOM     20  C   UNL     1       2.161   5.180  18.863  0.00  0.00    +0.000 C 
ATOM     21  C   UNL     1       1.476   5.210  20.241  0.00  0.00    +0.000 C 
ATOM     22  C   UNL     1       1.264   3.810  20.819  0.00  0.00    +0.000 C 
ATOM     23  N   UNL     1       0.528   2.943  19.898  0.00  0.00    +0.000 NA
ATOM     24  C   UNL     1       1.200   2.836  18.602  0.00  0.00    +0.000 C 
ATOM     25  C   UNL     1       1.399   4.207  17.951  0.00  0.00    +0.000 C 
ATOM     26  H   UNL     1      -0.403   3.334  19.753  0.00  0.00    +0.000 HD
ENDBRANCH  19  20
ENDBRANCH  17  19
ENDBRANCH   1  16
TORSDOF 4
ENDMDL
MODEL 9
REMARK VINA RESULT:      -7.9      1.813      2.199
REMARK  Name = 
REMARK  4 active torsions:
REMARK  status: ('A' for Active; 'I' for Inactive)
REMARK    1  A    between atoms: C_2  and  C_11
REMARK    2  A    between atoms: N_3  and  C_4
REMARK    3  A    between atoms: C_4  and  C_5
REMARK    4  A    between atoms: C_16  and  C_17
REMARK                            x       y       z     vdW  Elec       q    Type
REMARK                         _______ _______ _______ _____ _____    ______ ____
ROOT
ATOM      1  C   UNL     1       2.340   4.542  19.006  0.00  0.00    +0.000 A 
ATOM      2  C   UNL     1       1.183   4.038  19.635  0.00  0.00    +0.000 A 
ATOM      3  C   UNL     1       0.929   2.669  19.659  0.00  0.00    +0.000 A 
ATOM      4  C   UNL     1       1.823   1.795  19.057  0.00  0.00    +0.000 A 
ATOM      5  C   UNL     1       2.984   2.287  18.455  0.00  0.00    +0.000 A 
ATOM      6  C   UNL     1       3.294   3.668  18.422  0.00  0.00    +0.000 A 
ENDROOT
BRANCH   6   7
ATOM      7  C   UNL     1       4.589   4.084  17.806  0.00  0.00    +0.000 A 
ATOM      8  C   UNL     1       5.677   4.492  18.600  0.00  0.00    +0.000 A 
ATOM      9  C   UNL     1       6.903   4.826  18.027  0.00  0.00    +0.000 A 
ATOM     10  F   UNL     1       7.903   5.239  18.817  0.00  0.00    +0.000 F 
ATOM     11  C   UNL     1       7.112   4.720  16.663  0.00  0.00    +0.000 A 
ATOM     12  C   UNL     1       6.055   4.327  15.859  0.00  0.00    +0.000 A 
ATOM     13 CL   UNL     1       6.303   4.091  14.173  0.00  0.00    +0.000 Cl
ATOM     14  C   UNL     1       4.797   4.071  16.413  0.00  0.00    +0.000 A 
ENDBRANCH   6   7
BRANCH   1  16
ATOM     15  O   UNL     1       2.853   6.638  18.021  0.00  0.00    +0.000 OA
ATOM     16  C   UNL     1       2.451   6.042  19.012  0.00  0.00    +0.000 C 
ATOM     17  N   UNL     1       2.087   6.660  20.185  0.00  0.00    +0.000 N 
ATOM     18  H   UNL     1       1.850   6.086  20.981  0.00  0.00    +0.000 HD
BRANCH  17  19
ATOM     19  C   UNL     1       1.940   8.095  20.331  0.00  0.00    +0.000 C 
BRANCH  19  20
ATOM     20  C   UNL     1       0.978   8.426  21.475  0.00  0.00    +0.000 C 
ATOM     21  C   UNL     1      -0.480   8.522  20.991  0.00  0.00    +0.000 C 
ATOM     22  C   UNL     1      -0.744   9.793  20.182  0.00  0.00    +0.000 C 
ATOM     23  N   UNL     1      -0.367  10.999  20.918  0.00  0.00    +0.000 NA
ATOM     24  C   UNL     1       1.039  10.967  21.326  0.00  0.00    +0.000 C 
ATOM     25  C   UNL     1       1.354   9.737  22.180  0.00  0.00    +0.000 C 
ATOM     26  H   UNL     1      -0.948  11.068  21.754  0.00  0.00    +0.000 HD
ENDBRANCH  19  20
ENDBRANCH  17  19
ENDBRANCH   1  16
TORSDOF 4
ENDMDL
