MODEL 1
REMARK VINA RESULT:      -8.9      0.000      0.000
REMARK  Name = 
REMARK  3 active torsions:
REMARK  status: ('A' for Active; 'I' for Inactive)
REMARK    1  A    between atoms: S_2  and  C_4
REMARK    2  A    between atoms: S_2  and  N_14
REMARK    3  A    between atoms: C_16  and  C_17
REMARK                            x       y       z     vdW  Elec       q    Type
REMARK                         _______ _______ _______ _____ _____    ______ ____
ROOT
ATOM      1  N   UNL     1       2.594   7.575  18.411  0.00  0.00    +0.000 N 
ATOM      2  C   UNL     1       3.663   7.357  17.573  0.00  0.00    +0.000 A 
ATOM      3  C   UNL     1       4.189   6.124  17.884  0.00  0.00    +0.000 A 
ATOM      4  C   UNL     1       3.392   5.558  18.922  0.00  0.00    +0.000 A 
ATOM      5  C   UNL     1       3.443   4.338  19.628  0.00  0.00    +0.000 A 
ATOM      6  C   UNL     1       2.462   4.062  20.577  0.00  0.00    +0.000 A 
ATOM      7  F   UNL     1       2.510   2.904  21.249  0.00  0.00    +0.000 F 
ATOM      8  C   UNL     1       1.432   4.955  20.834  0.00  0.00    +0.000 A 
ATOM      9  C   UNL     1       1.357   6.174  20.154  0.00  0.00    +0.000 A 
ATOM     10  C   UNL     1       2.359   6.470  19.210  0.00  0.00    +0.000 A 
ENDROOT
BRANCH   3  11
ATOM     11  C   UNL     1       5.321   5.547  17.237  0.00  0.00    +0.000 C 
ATOM     12  C   UNL     1       5.266   4.936  16.042  0.00  0.00    +0.000 C 
ATOM     13  C   UNL     1       6.457   4.303  15.383  0.00  0.00    +0.000 C 
ATOM     14  N   UNL     1       7.740   4.608  16.021  0.00  0.00    +0.000 NA
ATOM     15  C   UNL     1       7.622   4.565  17.484  0.00  0.00    +0.000 C 
ATOM     16  C   UNL     1       6.620   5.608  18.007  0.00  0.00    +0.000 C 
ATOM     17  H   UNL     1       8.025   5.544  15.740  0.00  0.00    +0.000 HD
ENDBRANCH   3  11
BRANCH   1  19
ATOM     18  O   UNL     1       0.434   8.452  17.527  0.00  0.00    +0.000 OA
ATOM     19  S   UNL     1       1.578   8.941  18.273  0.00  0.00    +0.000 S 
ATOM     20  O   UNL     1       2.431  10.001  17.764  0.00  0.00    +0.000 OA
BRANCH  19  21
ATOM     21  C   UNL     1       1.004   9.470  19.876  0.00  0.00    +0.000 A 
ATOM     22  C   UNL     1       1.531   8.905  21.043  0.00  0.00    +0.000 A 
ATOM     23  C   UNL     1       1.015   9.274  22.283  0.00  0.00    +0.000 A 
ATOM     24  C   UNL     1      -0.007  10.217  22.364  0.00  0.00    +0.000 A 
ATOM     25  C   UNL     1      -0.515  10.839  21.216  0.00  0.00    +0.000 A 
ATOM     26  C   UNL     1      -1.515  11.819  21.342  0.00  0.00    +0.000 A 
ATOM     27  C   UNL     1      -2.020  12.480  20.225  0.00  0.00    +0.000 A 
ATOM     28  C   UNL     1      -1.534  12.162  18.967  0.00  0.00    +0.000 A 
ATOM     29  C   UNL     1      -0.552  11.176  18.826  0.00  0.00    +0.000 A 
ATOM     30  C   UNL     1      -0.010  10.481  19.939  0.00  0.00    +0.000 A 
ENDBRANCH  19  21
ENDBRANCH   1  19
TORSDOF 3
ENDMDL
MODEL 2
REMARK VINA RESULT:      -8.8      3.782      5.457
REMARK  Name = 
REMARK  3 active torsions:
REMARK  status: ('A' for Active; 'I' for Inactive)
REMARK    1  A    between atoms: S_2  and  C_4
REMARK    2  A    between atoms: S_2  and  N_14
REMARK    3  A    between atoms: C_16  and  C_17
REMARK                            x       y       z     vdW  Elec       q    Type
REMARK                         _______ _______ _______ _____ _____    ______ ____
ROOT
ATOM      1  N   UNL     1       4.421   3.649  17.059  0.00  0.00    +0.000 N 
ATOM      2  C   UNL     1       4.696   3.553  15.716  0.00  0.00    +0.000 A 
ATOM      3  C   UNL     1       5.839   4.281  15.473  0.00  0.00    +0.000 A 
ATOM      4  C   UNL     1       6.292   4.809  16.717  0.00  0.00    +0.000 A 
ATOM      5  C   UNL     1       7.392   5.613  17.086  0.00  0.00    +0.000 A 
ATOM      6  C   UNL     1       7.583   5.924  18.430  0.00  0.00    +0.000 A 
ATOM      7  F   UNL     1       8.626   6.688  18.781  0.00  0.00    +0.000 F 
ATOM      8  C   UNL     1       6.724   5.453  19.411  0.00  0.00    +0.000 A 
ATOM      9  C   UNL     1       5.623   4.659  19.076  0.00  0.00    +0.000 A 
ATOM     10  C   UNL     1       5.409   4.360  17.717  0.00  0.00    +0.000 A 
ENDROOT
BRANCH   3  11
ATOM     11  C   UNL     1       6.436   4.434  14.187  0.00  0.00    +0.000 C 
ATOM     12  C   UNL     1       6.227   3.589  13.164  0.00  0.00    +0.000 C 
ATOM     13  C   UNL     1       6.885   3.739  11.823  0.00  0.00    +0.000 C 
ATOM     14  N   UNL     1       7.588   5.010  11.627  0.00  0.00    +0.000 NA
ATOM     15  C   UNL     1       8.327   5.392  12.836  0.00  0.00    +0.000 C 
ATOM     16  C   UNL     1       7.390   5.596  14.038  0.00  0.00    +0.000 C 
ATOM     17  H   UNL     1       6.899   5.730  11.419  0.00  0.00    +0.000 HD
ENDBRANCH   3  11
BRANCH   1  19
ATOM     18  O   UNL     1       3.741   1.495  18.114  0.00  0.00    +0.000 OA
ATOM     19  S   UNL     1       3.151   2.784  17.805  0.00  0.00    +0.000 S 
ATOM     20  O   UNL     1       2.020   2.914  16.903  0.00  0.00    +0.000 OA
BRANCH  19  21
ATOM     21  C   UNL     1       2.674   3.552  19.341  0.00  0.00    +0.000 A 
ATOM     22  C   UNL     1       2.562   2.792  20.512  0.00  0.00    +0.000 A 
ATOM     23  C   UNL     1       2.113   3.394  21.685  0.00  0.00    +0.000 A 
ATOM     24  C   UNL     1       1.796   4.750  21.700  0.00  0.00    +0.000 A 
ATOM     25  C   UNL     1       1.951   5.546  20.557  0.00  0.00    +0.000 A 
ATOM     26  C   UNL     1       1.665   6.920  20.623  0.00  0.00    +0.000 A 
ATOM     27  C   UNL     1       1.838   7.746  19.516  0.00  0.00    +0.000 A 
ATOM     28  C   UNL     1       2.294   7.203  18.326  0.00  0.00    +0.000 A 
ATOM     29  C   UNL     1       2.567   5.834  18.240  0.00  0.00    +0.000 A 
ATOM     30  C   UNL     1       2.405   4.959  19.347  0.00  0.00    +0.000 A 
ENDBRANCH  19  21
ENDBRANCH   1  19
TORSDOF 3
ENDMDL
MODEL 3
REMARK VINA RESULT:      -8.4      3.587      6.072
REMARK  Name = 
REMARK  3 active torsions:
REMARK  status: ('A' for Active; 'I' for Inactive)
REMARK    1  A    between atoms: S_2  and  C_4
REMARK    2  A    between atoms: S_2  and  N_14
REMARK    3  A    between atoms: C_16  and  C_17
REMARK                            x       y       z     vdW  Elec       q    Type
REMARK                         _______ _______ _______ _____ _____    ______ ____
ROOT
ATOM      1  N   UNL     1       0.396  12.041  19.772  0.00  0.00    +0.000 N 
ATOM      2  C   UNL     1       1.286  11.037  20.076  0.00  0.00    +0.000 A 
ATOM      3  C   UNL     1       0.905   9.918  19.370  0.00  0.00    +0.000 A 
ATOM      4  C   UNL     1      -0.233  10.263  18.585  0.00  0.00    +0.000 A 
ATOM      5  C   UNL     1      -1.040   9.544  17.678  0.00  0.00    +0.000 A 
ATOM      6  C   UNL     1      -2.077  10.203  17.024  0.00  0.00    +0.000 A 
ATOM      7  F   UNL     1      -2.845   9.520  16.163  0.00  0.00    +0.000 F 
ATOM      8  C   UNL     1      -2.328  11.550  17.237  0.00  0.00    +0.000 A 
ATOM      9  C   UNL     1      -1.549  12.289  18.133  0.00  0.00    +0.000 A 
ATOM     10  C   UNL     1      -0.513  11.623  18.817  0.00  0.00    +0.000 A 
ENDROOT
BRANCH   3  11
ATOM     11  C   UNL     1       1.578   8.662  19.432  0.00  0.00    +0.000 C 
ATOM     12  C   UNL     1       2.238   8.119  18.396  0.00  0.00    +0.000 C 
ATOM     13  C   UNL     1       2.917   6.781  18.460  0.00  0.00    +0.000 C 
ATOM     14  N   UNL     1       3.015   6.212  19.807  0.00  0.00    +0.000 NA
ATOM     15  C   UNL     1       1.772   6.423  20.558  0.00  0.00    +0.000 C 
ATOM     16  C   UNL     1       1.464   7.918  20.743  0.00  0.00    +0.000 C 
ATOM     17  H   UNL     1       3.780   6.673  20.296  0.00  0.00    +0.000 HD
ENDBRANCH   3  11
BRANCH   1  19
ATOM     18  O   UNL     1       1.040  14.374  19.177  0.00  0.00    +0.000 OA
ATOM     19  S   UNL     1       0.581  13.640  20.342  0.00  0.00    +0.000 S 
ATOM     20  O   UNL     1       1.387  13.527  21.544  0.00  0.00    +0.000 OA
BRANCH  19  21
ATOM     21  C   UNL     1      -0.988  14.324  20.839  0.00  0.00    +0.000 A 
ATOM     22  C   UNL     1      -1.444  15.530  20.291  0.00  0.00    +0.000 A 
ATOM     23  C   UNL     1      -2.636  16.088  20.748  0.00  0.00    +0.000 A 
ATOM     24  C   UNL     1      -3.381  15.442  21.730  0.00  0.00    +0.000 A 
ATOM     25  C   UNL     1      -2.976  14.208  22.256  0.00  0.00    +0.000 A 
ATOM     26  C   UNL     1      -3.778  13.563  23.214  0.00  0.00    +0.000 A 
ATOM     27  C   UNL     1      -3.422  12.322  23.734  0.00  0.00    +0.000 A 
ATOM     28  C   UNL     1      -2.254  11.713  23.306  0.00  0.00    +0.000 A 
ATOM     29  C   UNL     1      -1.437  12.350  22.366  0.00  0.00    +0.000 A 
ATOM     30  C   UNL     1      -1.765  13.616  21.811  0.00  0.00    +0.000 A 
ENDBRANCH  19  21
ENDBRANCH   1  19
TORSDOF 3
ENDMDL
MODEL 4
REMARK VINA RESULT:      -8.3      4.572      9.505
REMARK  Name = 
REMARK  3 active torsions:
REMARK  status: ('A' for Active; 'I' for Inactive)
REMARK    1  A    between atoms: S_2  and  C_4
REMARK    2  A    between atoms: S_2  and  N_14
REMARK    3  A    between atoms: C_16  and  C_17
REMARK                            x       y       z     vdW  Elec       q    Type
REMARK                         _______ _______ _______ _____ _____    ______ ____
ROOT
ATOM      1  N   UNL     1      -1.890  12.294  19.510  0.00  0.00    +0.000 N 
ATOM      2  C   UNL     1      -2.939  12.686  20.308  0.00  0.00    +0.000 A 
ATOM      3  C   UNL     1      -4.102  12.431  19.619  0.00  0.00    +0.000 A 
ATOM      4  C   UNL     1      -3.750  11.832  18.374  0.00  0.00    +0.000 A 
ATOM      5  C   UNL     1      -4.502  11.361  17.278  0.00  0.00    +0.000 A 
ATOM      6  C   UNL     1      -3.839  10.772  16.204  0.00  0.00    +0.000 A 
ATOM      7  F   UNL     1      -4.553  10.325  15.161  0.00  0.00    +0.000 F 
ATOM      8  C   UNL     1      -2.460  10.630  16.194  0.00  0.00    +0.000 A 
ATOM      9  C   UNL     1      -1.687  11.092  17.264  0.00  0.00    +0.000 A 
ATOM     10  C   UNL     1      -2.348  11.711  18.342  0.00  0.00    +0.000 A 
ENDROOT
BRANCH   3  11
ATOM     11  C   UNL     1      -5.409  12.716  20.115  0.00  0.00    +0.000 C 
ATOM     12  C   UNL     1      -6.337  11.774  20.351  0.00  0.00    +0.000 C 
ATOM     13  C   UNL     1      -7.721  12.085  20.842  0.00  0.00    +0.000 C 
ATOM     14  N   UNL     1      -7.916  13.470  21.279  0.00  0.00    +0.000 NA
ATOM     15  C   UNL     1      -7.252  14.407  20.364  0.00  0.00    +0.000 C 
ATOM     16  C   UNL     1      -5.732  14.178  20.317  0.00  0.00    +0.000 C 
ATOM     17  H   UNL     1      -7.514  13.574  22.208  0.00  0.00    +0.000 HD
ENDBRANCH   3  11
BRANCH   1  19
ATOM     18  O   UNL     1      -0.268  13.297  21.116  0.00  0.00    +0.000 OA
ATOM     19  S   UNL     1      -0.266  12.323  20.041  0.00  0.00    +0.000 S 
ATOM     20  O   UNL     1       0.526  12.507  18.838  0.00  0.00    +0.000 OA
BRANCH  19  21
ATOM     21  C   UNL     1       0.205  10.747  20.729  0.00  0.00    +0.000 A 
ATOM     22  C   UNL     1      -0.114  10.425  22.054  0.00  0.00    +0.000 A 
ATOM     23  C   UNL     1       0.329   9.222  22.598  0.00  0.00    +0.000 A 
ATOM     24  C   UNL     1       1.070   8.333  21.823  0.00  0.00    +0.000 A 
ATOM     25  C   UNL     1       1.358   8.606  20.479  0.00  0.00    +0.000 A 
ATOM     26  C   UNL     1       2.069   7.664  19.716  0.00  0.00    +0.000 A 
ATOM     27  C   UNL     1       2.345   7.888  18.370  0.00  0.00    +0.000 A 
ATOM     28  C   UNL     1       1.916   9.062  17.773  0.00  0.00    +0.000 A 
ATOM     29  C   UNL     1       1.222  10.016  18.524  0.00  0.00    +0.000 A 
ATOM     30  C   UNL     1       0.920   9.825  19.899  0.00  0.00    +0.000 A 
ENDBRANCH  19  21
ENDBRANCH   1  19
TORSDOF 3
ENDMDL
MODEL 5
REMARK VINA RESULT:      -8.3      4.086      6.481
REMARK  Name = 
REMARK  3 active torsions:
REMARK  status: ('A' for Active; 'I' for Inactive)
REMARK    1  A    between atoms: S_2  and  C_4
REMARK    2  A    between atoms: S_2  and  N_14
REMARK    3  A    between atoms: C_16  and  C_17
REMARK                            x       y       z     vdW  Elec       q    Type
REMARK                         _______ _______ _______ _____ _____    ______ ____
ROOT
ATOM      1  N   UNL     1      -0.051  11.832  20.094  0.00  0.00    +0.000 N 
ATOM      2  C   UNL     1       0.990  10.938  20.190  0.00  0.00    +0.000 A 
ATOM      3  C   UNL     1       0.789   9.962  19.241  0.00  0.00    +0.000 A 
ATOM      4  C   UNL     1      -0.397  10.292  18.521  0.00  0.00    +0.000 A 
ATOM      5  C   UNL     1      -1.085   9.679  17.452  0.00  0.00    +0.000 A 
ATOM      6  C   UNL     1      -2.219  10.297  16.933  0.00  0.00    +0.000 A 
ATOM      7  F   UNL     1      -2.874   9.714  15.919  0.00  0.00    +0.000 F 
ATOM      8  C   UNL     1      -2.680  11.505  17.435  0.00  0.00    +0.000 A 
ATOM      9  C   UNL     1      -2.022  12.135  18.496  0.00  0.00    +0.000 A 
ATOM     10  C   UNL     1      -0.889  11.503  19.043  0.00  0.00    +0.000 A 
ENDROOT
BRANCH   3  11
ATOM     11  C   UNL     1       1.653   8.847  19.039  0.00  0.00    +0.000 C 
ATOM     12  C   UNL     1       2.320   8.619  17.896  0.00  0.00    +0.000 C 
ATOM     13  C   UNL     1       3.204   7.425  17.680  0.00  0.00    +0.000 C 
ATOM     14  N   UNL     1       3.482   6.646  18.889  0.00  0.00    +0.000 NA
ATOM     15  C   UNL     1       2.275   6.506  19.712  0.00  0.00    +0.000 C 
ATOM     16  C   UNL     1       1.747   7.870  20.188  0.00  0.00    +0.000 C 
ATOM     17  H   UNL     1       4.196   7.132  19.429  0.00  0.00    +0.000 HD
ENDBRANCH   3  11
BRANCH   1  19
ATOM     18  O   UNL     1       1.032  13.179  21.891  0.00  0.00    +0.000 OA
ATOM     19  S   UNL     1      -0.120  13.270  21.013  0.00  0.00    +0.000 S 
ATOM     20  O   UNL     1      -1.476  13.329  21.529  0.00  0.00    +0.000 OA
BRANCH  19  21
ATOM     21  C   UNL     1       0.095  14.701  19.972  0.00  0.00    +0.000 A 
ATOM     22  C   UNL     1      -0.938  15.634  19.822  0.00  0.00    +0.000 A 
ATOM     23  C   UNL     1      -0.781  16.704  18.945  0.00  0.00    +0.000 A 
ATOM     24  C   UNL     1       0.407  16.858  18.233  0.00  0.00    +0.000 A 
ATOM     25  C   UNL     1       1.477  15.969  18.404  0.00  0.00    +0.000 A 
ATOM     26  C   UNL     1       2.676  16.183  17.702  0.00  0.00    +0.000 A 
ATOM     27  C   UNL     1       3.770  15.339  17.872  0.00  0.00    +0.000 A 
ATOM     28  C   UNL     1       3.674  14.266  18.743  0.00  0.00    +0.000 A 
ATOM     29  C   UNL     1       2.482  14.031  19.435  0.00  0.00    +0.000 A 
ATOM     30  C   UNL     1       1.344  14.869  19.290  0.00  0.00    +0.000 A 
ENDBRANCH  19  21
ENDBRANCH   1  19
TORSDOF 3
ENDMDL
MODEL 6
REMARK VINA RESULT:      -8.3      3.469      5.928
REMARK  Name = 
REMARK  3 active torsions:
REMARK  status: ('A' for Active; 'I' for Inactive)
REMARK    1  A    between atoms: S_2  and  C_4
REMARK    2  A    between atoms: S_2  and  N_14
REMARK    3  A    between atoms: C_16  and  C_17
REMARK                            x       y       z     vdW  Elec       q    Type
REMARK                         _______ _______ _______ _____ _____    ______ ____
ROOT
ATOM      1  N   UNL     1       0.526  11.975  19.571  0.00  0.00    +0.000 N 
ATOM      2  C   UNL     1       1.462  10.978  19.716  0.00  0.00    +0.000 A 
ATOM      3  C   UNL     1       1.020   9.886  19.004  0.00  0.00    +0.000 A 
ATOM      4  C   UNL     1      -0.209  10.243  18.377  0.00  0.00    +0.000 A 
ATOM      5  C   UNL     1      -1.105   9.550  17.535  0.00  0.00    +0.000 A 
ATOM      6  C   UNL     1      -2.223  10.217  17.041  0.00  0.00    +0.000 A 
ATOM      7  F   UNL     1      -3.076   9.560  16.243  0.00  0.00    +0.000 F 
ATOM      8  C   UNL     1      -2.469  11.546  17.350  0.00  0.00    +0.000 A 
ATOM      9  C   UNL     1      -1.602  12.258  18.185  0.00  0.00    +0.000 A 
ATOM     10  C   UNL     1      -0.482  11.583  18.708  0.00  0.00    +0.000 A 
ENDROOT
BRANCH   3  11
ATOM     11  C   UNL     1       1.716   8.644  18.923  0.00  0.00    +0.000 C 
ATOM     12  C   UNL     1       1.811   7.776  19.944  0.00  0.00    +0.000 C 
ATOM     13  C   UNL     1       2.572   6.485  19.861  0.00  0.00    +0.000 C 
ATOM     14  N   UNL     1       3.006   6.119  18.510  0.00  0.00    +0.000 NA
ATOM     15  C   UNL     1       3.503   7.294  17.782  0.00  0.00    +0.000 C 
ATOM     16  C   UNL     1       2.411   8.363  17.612  0.00  0.00    +0.000 C 
ATOM     17  H   UNL     1       2.209   5.733  18.009  0.00  0.00    +0.000 HD
ENDBRANCH   3  11
BRANCH   1  19
ATOM     18  O   UNL     1       1.196  14.318  19.049  0.00  0.00    +0.000 OA
ATOM     19  S   UNL     1       0.751  13.549  20.195  0.00  0.00    +0.000 S 
ATOM     20  O   UNL     1       1.581  13.377  21.374  0.00  0.00    +0.000 OA
BRANCH  19  21
ATOM     21  C   UNL     1      -0.796  14.238  20.752  0.00  0.00    +0.000 A 
ATOM     22  C   UNL     1      -1.255  15.459  20.243  0.00  0.00    +0.000 A 
ATOM     23  C   UNL     1      -2.426  16.020  20.747  0.00  0.00    +0.000 A 
ATOM     24  C   UNL     1      -3.149  15.361  21.738  0.00  0.00    +0.000 A 
ATOM     25  C   UNL     1      -2.742  14.113  22.226  0.00  0.00    +0.000 A 
ATOM     26  C   UNL     1      -3.522  13.457  23.194  0.00  0.00    +0.000 A 
ATOM     27  C   UNL     1      -3.164  12.201  23.678  0.00  0.00    +0.000 A 
ATOM     28  C   UNL     1      -2.016  11.590  23.203  0.00  0.00    +0.000 A 
ATOM     29  C   UNL     1      -1.220  12.238  22.253  0.00  0.00    +0.000 A 
ATOM     30  C   UNL     1      -1.551  13.518  21.733  0.00  0.00    +0.000 A 
ENDBRANCH  19  21
ENDBRANCH   1  19
TORSDOF 3
ENDMDL
MODEL 7
REMARK VINA RESULT:      -8.3      3.077      5.549
REMARK  Name = 
REMARK  3 active torsions:
REMARK  status: ('A' for Active; 'I' for Inactive)
REMARK    1  A    between atoms: S_2  and  C_4
REMARK    2  A    between atoms: S_2  and  N_14
REMARK    3  A    between atoms: C_16  and  C_17
REMARK                            x       y       z     vdW  Elec       q    Type
REMARK                         _______ _______ _______ _____ _____    ______ ____
ROOT
ATOM      1  N   UNL     1      -0.366  11.270  19.504  0.00  0.00    +0.000 N 
ATOM      2  C   UNL     1       0.371  10.401  18.733  0.00  0.00    +0.000 A 
ATOM      3  C   UNL     1       0.899   9.447  19.572  0.00  0.00    +0.000 A 
ATOM      4  C   UNL     1       0.440   9.725  20.893  0.00  0.00    +0.000 A 
ATOM      5  C   UNL     1       0.644   9.100  22.142  0.00  0.00    +0.000 A 
ATOM      6  C   UNL     1      -0.002   9.607  23.266  0.00  0.00    +0.000 A 
ATOM      7  F   UNL     1       0.192   9.016  24.453  0.00  0.00    +0.000 F 
ATOM      8  C   UNL     1      -0.848  10.703  23.183  0.00  0.00    +0.000 A 
ATOM      9  C   UNL     1      -1.067  11.345  21.961  0.00  0.00    +0.000 A 
ATOM     10  C   UNL     1      -0.398  10.854  20.824  0.00  0.00    +0.000 A 
ENDROOT
BRANCH   3  11
ATOM     11  C   UNL     1       1.737   8.376  19.144  0.00  0.00    +0.000 C 
ATOM     12  C   UNL     1       2.064   7.330  19.920  0.00  0.00    +0.000 C 
ATOM     13  C   UNL     1       2.973   6.222  19.473  0.00  0.00    +0.000 C 
ATOM     14  N   UNL     1       3.291   6.235  18.043  0.00  0.00    +0.000 NA
ATOM     15  C   UNL     1       3.541   7.603  17.573  0.00  0.00    +0.000 C 
ATOM     16  C   UNL     1       2.306   8.502  17.750  0.00  0.00    +0.000 C 
ATOM     17  H   UNL     1       2.498   5.850  17.533  0.00  0.00    +0.000 HD
ENDBRANCH   3  11
BRANCH   1  19
ATOM     18  O   UNL     1      -0.613  12.854  17.596  0.00  0.00    +0.000 OA
ATOM     19  S   UNL     1      -1.297  12.535  18.834  0.00  0.00    +0.000 S 
ATOM     20  O   UNL     1      -1.445  13.507  19.903  0.00  0.00    +0.000 OA
BRANCH  19  21
ATOM     21  C   UNL     1      -2.938  11.970  18.425  0.00  0.00    +0.000 A 
ATOM     22  C   UNL     1      -3.192  11.357  17.192  0.00  0.00    +0.000 A 
ATOM     23  C   UNL     1      -4.494  10.991  16.858  0.00  0.00    +0.000 A 
ATOM     24  C   UNL     1      -5.536  11.216  17.754  0.00  0.00    +0.000 A 
ATOM     25  C   UNL     1      -5.302  11.779  19.016  0.00  0.00    +0.000 A 
ATOM     26  C   UNL     1      -6.373  11.948  19.911  0.00  0.00    +0.000 A 
ATOM     27  C   UNL     1      -6.171  12.474  21.185  0.00  0.00    +0.000 A 
ATOM     28  C   UNL     1      -4.894  12.842  21.575  0.00  0.00    +0.000 A 
ATOM     29  C   UNL     1      -3.822  12.695  20.689  0.00  0.00    +0.000 A 
ATOM     30  C   UNL     1      -3.986  12.162  19.383  0.00  0.00    +0.000 A 
ENDBRANCH  19  21
ENDBRANCH   1  19
TORSDOF 3
ENDMDL
MODEL 8
REMARK VINA RESULT:      -8.3      5.441     10.019
REMARK  Name = 
REMARK  3 active torsions:
REMARK  status: ('A' for Active; 'I' for Inactive)
REMARK    1  A    between atoms: S_2  and  C_4
REMARK    2  A    between atoms: S_2  and  N_14
REMARK    3  A    between atoms: C_16  and  C_17
REMARK                            x       y       z     vdW  Elec       q    Type
REMARK                         _______ _______ _______ _____ _____    ______ ____
ROOT
ATOM      1  N   UNL     1      -2.250  13.056  19.799  0.00  0.00    +0.000 N 
ATOM      2  C   UNL     1      -2.737  13.686  20.921  0.00  0.00    +0.000 A 
ATOM      3  C   UNL     1      -4.073  13.371  21.027  0.00  0.00    +0.000 A 
ATOM      4  C   UNL     1      -4.400  12.491  19.954  0.00  0.00    +0.000 A 
ATOM      5  C   UNL     1      -5.591  11.847  19.557  0.00  0.00    +0.000 A 
ATOM      6  C   UNL     1      -5.566  10.992  18.458  0.00  0.00    +0.000 A 
ATOM      7  F   UNL     1      -6.697  10.381  18.080  0.00  0.00    +0.000 F 
ATOM      8  C   UNL     1      -4.396  10.754  17.753  0.00  0.00    +0.000 A 
ATOM      9  C   UNL     1      -3.201  11.381  18.119  0.00  0.00    +0.000 A 
ATOM     10  C   UNL     1      -3.224  12.266  19.215  0.00  0.00    +0.000 A 
ENDROOT
BRANCH   3  11
ATOM     11  C   UNL     1      -4.931  13.849  22.060  0.00  0.00    +0.000 C 
ATOM     12  C   UNL     1      -5.549  13.049  22.945  0.00  0.00    +0.000 C 
ATOM     13  C   UNL     1      -6.477  13.558  24.010  0.00  0.00    +0.000 C 
ATOM     14  N   UNL     1      -6.477  15.014  24.173  0.00  0.00    +0.000 NA
ATOM     15  C   UNL     1      -6.442  15.688  22.869  0.00  0.00    +0.000 C 
ATOM     16  C   UNL     1      -5.168  15.341  22.081  0.00  0.00    +0.000 C 
ATOM     17  H   UNL     1      -5.650  15.279  24.704  0.00  0.00    +0.000 HD
ENDBRANCH   3  11
BRANCH   1  19
ATOM     18  O   UNL     1       0.003  13.966  20.353  0.00  0.00    +0.000 OA
ATOM     19  S   UNL     1      -0.597  13.083  19.371  0.00  0.00    +0.000 S 
ATOM     20  O   UNL     1      -0.576  13.386  17.951  0.00  0.00    +0.000 OA
BRANCH  19  21
ATOM     21  C   UNL     1       0.136  11.469  19.562  0.00  0.00    +0.000 A 
ATOM     22  C   UNL     1       0.862  10.889  18.515  0.00  0.00    +0.000 A 
ATOM     23  C   UNL     1       1.362   9.596  18.655  0.00  0.00    +0.000 A 
ATOM     24  C   UNL     1       1.158   8.890  19.838  0.00  0.00    +0.000 A 
ATOM     25  C   UNL     1       0.482   9.467  20.921  0.00  0.00    +0.000 A 
ATOM     26  C   UNL     1       0.335   8.740  22.115  0.00  0.00    +0.000 A 
ATOM     27  C   UNL     1      -0.303   9.294  23.222  0.00  0.00    +0.000 A 
ATOM     28  C   UNL     1      -0.808  10.581  23.144  0.00  0.00    +0.000 A 
ATOM     29  C   UNL     1      -0.684  11.310  21.957  0.00  0.00    +0.000 A 
ATOM     30  C   UNL     1      -0.040  10.782  20.807  0.00  0.00    +0.000 A 
ENDBRANCH  19  21
ENDBRANCH   1  19
TORSDOF 3
ENDMDL
MODEL 9
REMARK VINA RESULT:      -8.3      3.891      8.499
REMARK  Name = 
REMARK  3 active torsions:
REMARK  status: ('A' for Active; 'I' for Inactive)
REMARK    1  A    between atoms: S_2  and  C_4
REMARK    2  A    between atoms: S_2  and  N_14
REMARK    3  A    between atoms: C_16  and  C_17
REMARK                            x       y       z     vdW  Elec       q    Type
REMARK                         _______ _______ _______ _____ _____    ______ ____
ROOT
ATOM      1  N   UNL     1      -0.058  10.167  20.035  0.00  0.00    +0.000 N 
ATOM      2  C   UNL     1      -1.241   9.977  19.360  0.00  0.00    +0.000 A 
ATOM      3  C   UNL     1      -1.588  11.177  18.783  0.00  0.00    +0.000 A 
ATOM      4  C   UNL     1      -0.563  12.120  19.089  0.00  0.00    +0.000 A 
ATOM      5  C   UNL     1      -0.372  13.482  18.772  0.00  0.00    +0.000 A 
ATOM      6  C   UNL     1       0.790  14.120  19.196  0.00  0.00    +0.000 A 
ATOM      7  F   UNL     1       0.971  15.414  18.897  0.00  0.00    +0.000 F 
ATOM      8  C   UNL     1       1.766  13.445  19.914  0.00  0.00    +0.000 A 
ATOM      9  C   UNL     1       1.604  12.097  20.247  0.00  0.00    +0.000 A 
ATOM     10  C   UNL     1       0.420  11.451  19.842  0.00  0.00    +0.000 A 
ENDROOT
BRANCH   3  11
ATOM     11  C   UNL     1      -2.766  11.386  18.008  0.00  0.00    +0.000 C 
ATOM     12  C   UNL     1      -3.953  11.732  18.534  0.00  0.00    +0.000 C 
ATOM     13  C   UNL     1      -5.196  11.918  17.715  0.00  0.00    +0.000 C 
ATOM     14  N   UNL     1      -4.975  11.933  16.266  0.00  0.00    +0.000 NA
ATOM     15  C   UNL     1      -4.003  10.904  15.873  0.00  0.00    +0.000 C 
ATOM     16  C   UNL     1      -2.629  11.139  16.524  0.00  0.00    +0.000 C 
ATOM     17  H   UNL     1      -4.611  12.847  16.005  0.00  0.00    +0.000 HD
ENDBRANCH   3  11
BRANCH   1  19
ATOM     18  O   UNL     1      -0.257   7.970  21.196  0.00  0.00    +0.000 OA
ATOM     19  S   UNL     1       0.789   8.890  20.790  0.00  0.00    +0.000 S 
ATOM     20  O   UNL     1       1.665   9.531  21.755  0.00  0.00    +0.000 OA
BRANCH  19  21
ATOM     21  C   UNL     1       1.840   8.046  19.623  0.00  0.00    +0.000 A 
ATOM     22  C   UNL     1       2.346   8.720  18.505  0.00  0.00    +0.000 A 
ATOM     23  C   UNL     1       3.102   8.025  17.564  0.00  0.00    +0.000 A 
ATOM     24  C   UNL     1       3.370   6.671  17.743  0.00  0.00    +0.000 A 
ATOM     25  C   UNL     1       2.921   5.984  18.879  0.00  0.00    +0.000 A 
ATOM     26  C   UNL     1       3.251   4.628  19.047  0.00  0.00    +0.000 A 
ATOM     27  C   UNL     1       2.849   3.924  20.179  0.00  0.00    +0.000 A 
ATOM     28  C   UNL     1       2.106   4.569  21.155  0.00  0.00    +0.000 A 
ATOM     29  C   UNL     1       1.756   5.914  20.993  0.00  0.00    +0.000 A 
ATOM     30  C   UNL     1       2.148   6.667  19.854  0.00  0.00    +0.000 A 
ENDBRANCH  19  21
ENDBRANCH   1  19
TORSDOF 3
ENDMDL
