MODEL 1
REMARK VINA RESULT:      -7.9      0.000      0.000
REMARK  Name = 
REMARK  10 active torsions:
REMARK  status: ('A' for Active; 'I' for Inactive)
REMARK    1  A    between atoms: C_1  and  C_2
REMARK    2  A    between atoms: C_6  and  N_7
REMARK    3  A    between atoms: C_8  and  C_10
REMARK    4  A    between atoms: C_10  and  N_11
REMARK    5  A    between atoms: C_15  and  C_17
REMARK    6  A    between atoms: C_18  and  C_19
REMARK    7  A    between atoms: N_21  and  C_22
REMARK    8  A    between atoms: C_22  and  C_23
REMARK    9  A    between atoms: C_29  and  C_30
REMARK   10  A    between atoms: C_33  and  C_34
REMARK                            x       y       z     vdW  Elec       q    Type
REMARK                         _______ _______ _______ _____ _____    ______ ____
ROOT
ATOM      1  N   UNL     1       0.801   9.819  18.994  0.00  0.00    +0.000 NA
ATOM      2  C   UNL     1       1.326   9.064  17.834  0.00  0.00    +0.000 C 
ATOM      3  C   UNL     1       2.459   8.064  18.135  0.00  0.00    +0.000 C 
ATOM      4  N   UNL     1       2.327   7.270  19.372  0.00  0.00    +0.000 N 
ATOM      5  C   UNL     1       2.889   5.994  19.622  0.00  0.00    +0.000 C 
ATOM      6  O   UNL     1       2.729   5.438  20.708  0.00  0.00    +0.000 OA
ATOM      7  C   UNL     1       1.780   8.004  20.502  0.00  0.00    +0.000 C 
ATOM      8  C   UNL     1       0.533   8.803  20.060  0.00  0.00    +0.000 C 
ENDROOT
BRANCH   5   9
ATOM      9  C   UNL     1       3.633   5.313  18.558  0.00  0.00    +0.000 A 
ATOM     10  C   UNL     1       3.124   4.441  17.545  0.00  0.00    +0.000 A 
ATOM     11  C   UNL     1       1.740   3.938  17.328  0.00  0.00    +0.000 C 
ATOM     12  N   UNL     1       4.082   4.035  16.703  0.00  0.00    +0.000 NA
ATOM     13  N   UNL     1       5.208   4.594  17.176  0.00  0.00    +0.000 N 
ATOM     14  C   UNL     1       5.019   5.219  18.386  0.00  0.00    +0.000 A 
ATOM     15  C   UNL     1       6.156   5.615  19.252  0.00  0.00    +0.000 C 
BRANCH  13  16
ATOM     16  C   UNL     1       6.483   4.287  16.530  0.00  0.00    +0.000 C 
BRANCH  16  17
ATOM     17  C   UNL     1       6.494   4.431  15.023  0.00  0.00    +0.000 A 
ATOM     18  C   UNL     1       7.441   5.255  14.390  0.00  0.00    +0.000 A 
ATOM     19  C   UNL     1       7.646   5.170  13.008  0.00  0.00    +0.000 A 
ATOM     20  C   UNL     1       6.901   4.274  12.246  0.00  0.00    +0.000 A 
ATOM     21  C   UNL     1       5.904   3.512  12.849  0.00  0.00    +0.000 A 
ATOM     22  C   UNL     1       5.689   3.602  14.228  0.00  0.00    +0.000 A 
ENDBRANCH  16  17
ENDBRANCH  13  16
ENDBRANCH   5   9
BRANCH   1  23
ATOM     23  C   UNL     1       1.737  10.841  19.531  0.00  0.00    +0.000 C 
BRANCH  23  25
ATOM     24  N   UNL     1      -0.254  12.045  20.334  0.00  0.00    +0.000 N 
ATOM     25  C   UNL     1       1.115  11.953  20.380  0.00  0.00    +0.000 C 
ATOM     26  O   UNL     1       1.864  12.641  21.085  0.00  0.00    +0.000 OA
ATOM     27  H   UNL     1      -0.699  11.282  19.810  0.00  0.00    +0.000 HD
BRANCH  24  33
ATOM     28  C   UNL     1      -3.142  13.669  24.122  0.00  0.00    +0.000 C 
ATOM     29  C   UNL     1      -2.492  13.827  22.775  0.00  0.00    +0.000 A 
ATOM     30  C   UNL     1      -2.653  15.060  22.113  0.00  0.00    +0.000 A 
ATOM     31  C   UNL     1      -2.053  15.271  20.888  0.00  0.00    +0.000 A 
ATOM     32  C   UNL     1      -1.268  14.275  20.316  0.00  0.00    +0.000 A 
ATOM     33  C   UNL     1      -1.064  13.035  20.943  0.00  0.00    +0.000 A 
ATOM     34  C   UNL     1      -1.713  12.793  22.180  0.00  0.00    +0.000 A 
ATOM     35  C   UNL     1      -1.577  11.493  22.944  0.00  0.00    +0.000 C 
ENDBRANCH  24  33
ENDBRANCH  23  25
ENDBRANCH   1  23
TORSDOF 6
ENDMDL
MODEL 2
REMARK VINA RESULT:      -7.8      3.407     11.381
REMARK  Name = 
REMARK  10 active torsions:
REMARK  status: ('A' for Active; 'I' for Inactive)
REMARK    1  A    between atoms: C_1  and  C_2
REMARK    2  A    between atoms: C_6  and  N_7
REMARK    3  A    between atoms: C_8  and  C_10
REMARK    4  A    between atoms: C_10  and  N_11
REMARK    5  A    between atoms: C_15  and  C_17
REMARK    6  A    between atoms: C_18  and  C_19
REMARK    7  A    between atoms: N_21  and  C_22
REMARK    8  A    between atoms: C_22  and  C_23
REMARK    9  A    between atoms: C_29  and  C_30
REMARK   10  A    between atoms: C_33  and  C_34
REMARK                            x       y       z     vdW  Elec       q    Type
REMARK                         _______ _______ _______ _____ _____    ______ ____
ROOT
ATOM      1  N   UNL     1       0.795   9.650  19.135  0.00  0.00    +0.000 NA
ATOM      2  C   UNL     1      -0.686   9.640  19.109  0.00  0.00    +0.000 C 
ATOM      3  C   UNL     1      -1.387  10.456  20.212  0.00  0.00    +0.000 C 
ATOM      4  N   UNL     1      -0.790  11.764  20.547  0.00  0.00    +0.000 N 
ATOM      5  C   UNL     1      -1.462  12.885  21.092  0.00  0.00    +0.000 C 
ATOM      6  O   UNL     1      -0.849  13.920  21.352  0.00  0.00    +0.000 OA
ATOM      7  C   UNL     1       0.664  11.781  20.539  0.00  0.00    +0.000 C 
ATOM      8  C   UNL     1       1.194  11.087  19.264  0.00  0.00    +0.000 C 
ENDROOT
BRANCH   5   9
ATOM      9  C   UNL     1      -2.910  12.822  21.309  0.00  0.00    +0.000 A 
ATOM     10  C   UNL     1      -3.615  12.773  22.552  0.00  0.00    +0.000 A 
ATOM     11  C   UNL     1      -3.089  12.710  23.943  0.00  0.00    +0.000 C 
ATOM     12  N   UNL     1      -4.943  12.771  22.378  0.00  0.00    +0.000 NA
ATOM     13  N   UNL     1      -5.110  12.774  21.046  0.00  0.00    +0.000 N 
ATOM     14  C   UNL     1      -3.925  12.622  20.365  0.00  0.00    +0.000 A 
ATOM     15  C   UNL     1      -3.885  12.270  18.924  0.00  0.00    +0.000 C 
BRANCH  13  16
ATOM     16  C   UNL     1      -6.461  12.691  20.495  0.00  0.00    +0.000 C 
BRANCH  16  17
ATOM     17  C   UNL     1      -6.998  11.287  20.313  0.00  0.00    +0.000 A 
ATOM     18  C   UNL     1      -6.660  10.534  19.175  0.00  0.00    +0.000 A 
ATOM     19  C   UNL     1      -6.907   9.157  19.135  0.00  0.00    +0.000 A 
ATOM     20  C   UNL     1      -7.504   8.523  20.222  0.00  0.00    +0.000 A 
ATOM     21  C   UNL     1      -7.916   9.272  21.321  0.00  0.00    +0.000 A 
ATOM     22  C   UNL     1      -7.682  10.650  21.360  0.00  0.00    +0.000 A 
ENDBRANCH  16  17
ENDBRANCH  13  16
ENDBRANCH   5   9
BRANCH   1  23
ATOM     23  C   UNL     1       1.390   8.884  20.261  0.00  0.00    +0.000 C 
BRANCH  23  25
ATOM     24  N   UNL     1       2.397   7.237  18.734  0.00  0.00    +0.000 N 
ATOM     25  C   UNL     1       1.807   7.443  19.957  0.00  0.00    +0.000 C 
ATOM     26  O   UNL     1       1.646   6.587  20.836  0.00  0.00    +0.000 OA
ATOM     27  H   UNL     1       2.579   8.105  18.215  0.00  0.00    +0.000 HD
BRANCH  24  33
ATOM     28  C   UNL     1       5.663   4.365  16.203  0.00  0.00    +0.000 C 
ATOM     29  C   UNL     1       4.360   4.593  16.918  0.00  0.00    +0.000 A 
ATOM     30  C   UNL     1       3.505   3.486  17.086  0.00  0.00    +0.000 A 
ATOM     31  C   UNL     1       2.310   3.632  17.761  0.00  0.00    +0.000 A 
ATOM     32  C   UNL     1       1.959   4.867  18.298  0.00  0.00    +0.000 A 
ATOM     33  C   UNL     1       2.784   5.997  18.171  0.00  0.00    +0.000 A 
ATOM     34  C   UNL     1       3.992   5.867  17.441  0.00  0.00    +0.000 A 
ATOM     35  C   UNL     1       4.956   7.014  17.228  0.00  0.00    +0.000 C 
ENDBRANCH  24  33
ENDBRANCH  23  25
ENDBRANCH   1  23
TORSDOF 6
ENDMDL
MODEL 3
REMARK VINA RESULT:      -7.7      1.480      2.414
REMARK  Name = 
REMARK  10 active torsions:
REMARK  status: ('A' for Active; 'I' for Inactive)
REMARK    1  A    between atoms: C_1  and  C_2
REMARK    2  A    between atoms: C_6  and  N_7
REMARK    3  A    between atoms: C_8  and  C_10
REMARK    4  A    between atoms: C_10  and  N_11
REMARK    5  A    between atoms: C_15  and  C_17
REMARK    6  A    between atoms: C_18  and  C_19
REMARK    7  A    between atoms: N_21  and  C_22
REMARK    8  A    between atoms: C_22  and  C_23
REMARK    9  A    between atoms: C_29  and  C_30
REMARK   10  A    between atoms: C_33  and  C_34
REMARK                            x       y       z     vdW  Elec       q    Type
REMARK                         _______ _______ _______ _____ _____    ______ ____
ROOT
ATOM      1  N   UNL     1       0.925   9.804  18.947  0.00  0.00    +0.000 NA
ATOM      2  C   UNL     1       1.458   9.056  17.785  0.00  0.00    +0.000 C 
ATOM      3  C   UNL     1       2.564   8.028  18.092  0.00  0.00    +0.000 C 
ATOM      4  N   UNL     1       2.393   7.218  19.315  0.00  0.00    +0.000 N 
ATOM      5  C   UNL     1       2.924   5.928  19.555  0.00  0.00    +0.000 C 
ATOM      6  O   UNL     1       2.733   5.359  20.629  0.00  0.00    +0.000 OA
ATOM      7  C   UNL     1       1.839   7.946  20.445  0.00  0.00    +0.000 C 
ATOM      8  C   UNL     1       0.617   8.777  19.992  0.00  0.00    +0.000 C 
ENDROOT
BRANCH   5   9
ATOM      9  C   UNL     1       3.675   5.249  18.495  0.00  0.00    +0.000 A 
ATOM     10  C   UNL     1       3.179   4.347  17.502  0.00  0.00    +0.000 A 
ATOM     11  C   UNL     1       1.806   3.806  17.307  0.00  0.00    +0.000 C 
ATOM     12  N   UNL     1       4.139   3.951  16.657  0.00  0.00    +0.000 NA
ATOM     13  N   UNL     1       5.255   4.546  17.109  0.00  0.00    +0.000 N 
ATOM     14  C   UNL     1       5.061   5.186  18.311  0.00  0.00    +0.000 A 
ATOM     15  C   UNL     1       6.196   5.626  19.159  0.00  0.00    +0.000 C 
BRANCH  13  16
ATOM     16  C   UNL     1       6.531   4.261  16.457  0.00  0.00    +0.000 C 
BRANCH  16  17
ATOM     17  C   UNL     1       6.533   4.411  14.949  0.00  0.00    +0.000 A 
ATOM     18  C   UNL     1       7.474   5.240  14.314  0.00  0.00    +0.000 A 
ATOM     19  C   UNL     1       7.670   5.161  12.931  0.00  0.00    +0.000 A 
ATOM     20  C   UNL     1       6.923   4.266  12.169  0.00  0.00    +0.000 A 
ATOM     21  C   UNL     1       5.932   3.499  12.776  0.00  0.00    +0.000 A 
ATOM     22  C   UNL     1       5.724   3.583  14.156  0.00  0.00    +0.000 A 
ENDBRANCH  16  17
ENDBRANCH  13  16
ENDBRANCH   5   9
BRANCH   1  23
ATOM     23  C   UNL     1       1.871  10.798  19.517  0.00  0.00    +0.000 C 
BRANCH  23  25
ATOM     24  N   UNL     1       0.825  12.987  19.097  0.00  0.00    +0.000 N 
ATOM     25  C   UNL     1       1.255  12.095  20.049  0.00  0.00    +0.000 C 
ATOM     26  O   UNL     1       1.129  12.226  21.273  0.00  0.00    +0.000 OA
ATOM     27  H   UNL     1       0.880  12.621  18.139  0.00  0.00    +0.000 HD
BRANCH  24  33
ATOM     28  C   UNL     1       1.217  17.995  18.792  0.00  0.00    +0.000 C 
ATOM     29  C   UNL     1       0.504  16.732  19.193  0.00  0.00    +0.000 A 
ATOM     30  C   UNL     1      -0.777  16.859  19.767  0.00  0.00    +0.000 A 
ATOM     31  C   UNL     1      -1.489  15.733  20.126  0.00  0.00    +0.000 A 
ATOM     32  C   UNL     1      -0.953  14.468  19.900  0.00  0.00    +0.000 A 
ATOM     33  C   UNL     1       0.313  14.288  19.317  0.00  0.00    +0.000 A 
ATOM     34  C   UNL     1       1.069  15.441  18.986  0.00  0.00    +0.000 A 
ATOM     35  C   UNL     1       2.448  15.373  18.364  0.00  0.00    +0.000 C 
ENDBRANCH  24  33
ENDBRANCH  23  25
ENDBRANCH   1  23
TORSDOF 6
ENDMDL
MODEL 4
REMARK VINA RESULT:      -7.7      4.418      7.351
REMARK  Name = 
REMARK  10 active torsions:
REMARK  status: ('A' for Active; 'I' for Inactive)
REMARK    1  A    between atoms: C_1  and  C_2
REMARK    2  A    between atoms: C_6  and  N_7
REMARK    3  A    between atoms: C_8  and  C_10
REMARK    4  A    between atoms: C_10  and  N_11
REMARK    5  A    between atoms: C_15  and  C_17
REMARK    6  A    between atoms: C_18  and  C_19
REMARK    7  A    between atoms: N_21  and  C_22
REMARK    8  A    between atoms: C_22  and  C_23
REMARK    9  A    between atoms: C_29  and  C_30
REMARK   10  A    between atoms: C_33  and  C_34
REMARK                            x       y       z     vdW  Elec       q    Type
REMARK                         _______ _______ _______ _____ _____    ______ ____
ROOT
ATOM      1  N   UNL     1       1.441  14.578  18.339  0.00  0.00    +0.000 NA
ATOM      2  C   UNL     1       2.227  13.323  18.297  0.00  0.00    +0.000 C 
ATOM      3  C   UNL     1       1.848  12.252  19.337  0.00  0.00    +0.000 C 
ATOM      4  N   UNL     1       0.406  12.063  19.595  0.00  0.00    +0.000 N 
ATOM      5  C   UNL     1      -0.221  10.882  20.060  0.00  0.00    +0.000 C 
ATOM      6  O   UNL     1      -1.434  10.852  20.262  0.00  0.00    +0.000 OA
ATOM      7  C   UNL     1      -0.369  13.293  19.604  0.00  0.00    +0.000 C 
ATOM      8  C   UNL     1       0.004  14.162  18.382  0.00  0.00    +0.000 C 
ENDROOT
BRANCH   5   9
ATOM      9  C   UNL     1       0.581   9.672  20.263  0.00  0.00    +0.000 A 
ATOM     10  C   UNL     1       0.924   9.037  21.498  0.00  0.00    +0.000 A 
ATOM     11  C   UNL     1       0.623   9.450  22.896  0.00  0.00    +0.000 C 
ATOM     12  N   UNL     1       1.632   7.917  21.308  0.00  0.00    +0.000 NA
ATOM     13  N   UNL     1       1.791   7.837  19.977  0.00  0.00    +0.000 N 
ATOM     14  C   UNL     1       1.335   8.958  19.324  0.00  0.00    +0.000 A 
ATOM     15  C   UNL     1       1.694   9.246  17.914  0.00  0.00    +0.000 C 
BRANCH  13  16
ATOM     16  C   UNL     1       2.601   6.758  19.418  0.00  0.00    +0.000 C 
BRANCH  16  17
ATOM     17  C   UNL     1       1.911   5.413  19.326  0.00  0.00    +0.000 A 
ATOM     18  C   UNL     1       1.926   4.682  18.126  0.00  0.00    +0.000 A 
ATOM     19  C   UNL     1       1.551   3.334  18.110  0.00  0.00    +0.000 A 
ATOM     20  C   UNL     1       1.147   2.708  19.287  0.00  0.00    +0.000 A 
ATOM     21  C   UNL     1       1.051   3.443  20.465  0.00  0.00    +0.000 A 
ATOM     22  C   UNL     1       1.414   4.793  20.482  0.00  0.00    +0.000 A 
ENDBRANCH  16  17
ENDBRANCH  13  16
ENDBRANCH   5   9
BRANCH   1  23
ATOM     23  C   UNL     1       1.727  15.436  19.519  0.00  0.00    +0.000 C 
BRANCH  23  25
ATOM     24  N   UNL     1       4.145  15.732  19.871  0.00  0.00    +0.000 N 
ATOM     25  C   UNL     1       2.980  16.312  19.433  0.00  0.00    +0.000 C 
ATOM     26  O   UNL     1       2.876  17.438  18.930  0.00  0.00    +0.000 OA
ATOM     27  H   UNL     1       4.045  14.738  20.107  0.00  0.00    +0.000 HD
BRANCH  24  33
ATOM     28  C   UNL     1       8.855  16.485  18.266  0.00  0.00    +0.000 C 
ATOM     29  C   UNL     1       7.720  16.708  19.227  0.00  0.00    +0.000 A 
ATOM     30  C   UNL     1       7.918  17.634  20.270  0.00  0.00    +0.000 A 
ATOM     31  C   UNL     1       6.900  17.900  21.162  0.00  0.00    +0.000 A 
ATOM     32  C   UNL     1       5.666  17.271  21.020  0.00  0.00    +0.000 A 
ATOM     33  C   UNL     1       5.414  16.351  19.989  0.00  0.00    +0.000 A 
ATOM     34  C   UNL     1       6.469  16.039  19.094  0.00  0.00    +0.000 A 
ATOM     35  C   UNL     1       6.319  15.057  17.952  0.00  0.00    +0.000 C 
ENDBRANCH  24  33
ENDBRANCH  23  25
ENDBRANCH   1  23
TORSDOF 6
ENDMDL
MODEL 5
REMARK VINA RESULT:      -7.6      6.367      8.868
REMARK  Name = 
REMARK  10 active torsions:
REMARK  status: ('A' for Active; 'I' for Inactive)
REMARK    1  A    between atoms: C_1  and  C_2
REMARK    2  A    between atoms: C_6  and  N_7
REMARK    3  A    between atoms: C_8  and  C_10
REMARK    4  A    between atoms: C_10  and  N_11
REMARK    5  A    between atoms: C_15  and  C_17
REMARK    6  A    between atoms: C_18  and  C_19
REMARK    7  A    between atoms: N_21  and  C_22
REMARK    8  A    between atoms: C_22  and  C_23
REMARK    9  A    between atoms: C_29  and  C_30
REMARK   10  A    between atoms: C_33  and  C_34
REMARK                            x       y       z     vdW  Elec       q    Type
REMARK                         _______ _______ _______ _____ _____    ______ ____
ROOT
ATOM      1  N   UNL     1      -3.426  14.723  24.780  0.00  0.00    +0.000 NA
ATOM      2  C   UNL     1      -3.541  13.408  24.108  0.00  0.00    +0.000 C 
ATOM      3  C   UNL     1      -2.679  13.217  22.846  0.00  0.00    +0.000 C 
ATOM      4  N   UNL     1      -1.307  13.761  22.893  0.00  0.00    +0.000 N 
ATOM      5  C   UNL     1      -0.191  13.306  22.151  0.00  0.00    +0.000 C 
ATOM      6  O   UNL     1       0.903  13.858  22.259  0.00  0.00    +0.000 OA
ATOM      7  C   UNL     1      -1.191  15.036  23.583  0.00  0.00    +0.000 C 
ATOM      8  C   UNL     1      -1.959  14.985  24.923  0.00  0.00    +0.000 C 
ENDROOT
BRANCH   5   9
ATOM      9  C   UNL     1      -0.334  12.137  21.278  0.00  0.00    +0.000 A 
ATOM     10  C   UNL     1      -0.402  10.759  21.652  0.00  0.00    +0.000 A 
ATOM     11  C   UNL     1      -0.287  10.130  22.997  0.00  0.00    +0.000 C 
ATOM     12  N   UNL     1      -0.584   9.958  20.595  0.00  0.00    +0.000 NA
ATOM     13  N   UNL     1      -0.592  10.788  19.539  0.00  0.00    +0.000 N 
ATOM     14  C   UNL     1      -0.266  12.080  19.881  0.00  0.00    +0.000 A 
ATOM     15  C   UNL     1       0.109  13.091  18.862  0.00  0.00    +0.000 C 
BRANCH  13  16
ATOM     16  C   UNL     1      -0.691  10.229  18.192  0.00  0.00    +0.000 C 
BRANCH  16  17
ATOM     17  C   UNL     1      -2.047  10.371  17.533  0.00  0.00    +0.000 A 
ATOM     18  C   UNL     1      -3.067  11.118  18.147  0.00  0.00    +0.000 A 
ATOM     19  C   UNL     1      -4.206  11.493  17.427  0.00  0.00    +0.000 A 
ATOM     20  C   UNL     1      -4.344  11.115  16.093  0.00  0.00    +0.000 A 
ATOM     21  C   UNL     1      -3.379  10.306  15.498  0.00  0.00    +0.000 A 
ATOM     22  C   UNL     1      -2.245   9.920  16.219  0.00  0.00    +0.000 A 
ENDBRANCH  16  17
ENDBRANCH  13  16
ENDBRANCH   5   9
BRANCH   1  23
ATOM     23  C   UNL     1      -4.043  15.848  24.030  0.00  0.00    +0.000 C 
BRANCH  23  25
ATOM     24  N   UNL     1      -4.647  15.512  21.667  0.00  0.00    +0.000 N 
ATOM     25  C   UNL     1      -5.080  15.468  22.969  0.00  0.00    +0.000 C 
ATOM     26  O   UNL     1      -6.198  15.095  23.348  0.00  0.00    +0.000 OA
ATOM     27  H   UNL     1      -3.641  15.697  21.576  0.00  0.00    +0.000 HD
BRANCH  24  33
ATOM     28  C   UNL     1      -6.880  17.213  17.490  0.00  0.00    +0.000 C 
ATOM     29  C   UNL     1      -6.535  16.128  18.474  0.00  0.00    +0.000 A 
ATOM     30  C   UNL     1      -6.965  14.819  18.180  0.00  0.00    +0.000 A 
ATOM     31  C   UNL     1      -6.651  13.780  19.033  0.00  0.00    +0.000 A 
ATOM     32  C   UNL     1      -5.888  14.020  20.173  0.00  0.00    +0.000 A 
ATOM     33  C   UNL     1      -5.424  15.304  20.502  0.00  0.00    +0.000 A 
ATOM     34  C   UNL     1      -5.780  16.384  19.655  0.00  0.00    +0.000 A 
ATOM     35  C   UNL     1      -5.347  17.812  19.912  0.00  0.00    +0.000 C 
ENDBRANCH  24  33
ENDBRANCH  23  25
ENDBRANCH   1  23
TORSDOF 6
ENDMDL
MODEL 6
REMARK VINA RESULT:      -7.4      2.225     11.788
REMARK  Name = 
REMARK  10 active torsions:
REMARK  status: ('A' for Active; 'I' for Inactive)
REMARK    1  A    between atoms: C_1  and  C_2
REMARK    2  A    between atoms: C_6  and  N_7
REMARK    3  A    between atoms: C_8  and  C_10
REMARK    4  A    between atoms: C_10  and  N_11
REMARK    5  A    between atoms: C_15  and  C_17
REMARK    6  A    between atoms: C_18  and  C_19
REMARK    7  A    between atoms: N_21  and  C_22
REMARK    8  A    between atoms: C_22  and  C_23
REMARK    9  A    between atoms: C_29  and  C_30
REMARK   10  A    between atoms: C_33  and  C_34
REMARK                            x       y       z     vdW  Elec       q    Type
REMARK                         _______ _______ _______ _____ _____    ______ ____
ROOT
ATOM      1  N   UNL     1       0.754   9.786  18.995  0.00  0.00    +0.000 NA
ATOM      2  C   UNL     1      -0.600  10.323  19.268  0.00  0.00    +0.000 C 
ATOM      3  C   UNL     1      -0.672  11.510  20.247  0.00  0.00    +0.000 C 
ATOM      4  N   UNL     1       0.379  12.539  20.116  0.00  0.00    +0.000 N 
ATOM      5  C   UNL     1       0.278  13.902  20.485  0.00  0.00    +0.000 C 
ATOM      6  O   UNL     1       1.235  14.663  20.349  0.00  0.00    +0.000 OA
ATOM      7  C   UNL     1       1.701  12.013  19.816  0.00  0.00    +0.000 C 
ATOM      8  C   UNL     1       1.610  10.972  18.677  0.00  0.00    +0.000 C 
ENDROOT
BRANCH   5   9
ATOM      9  C   UNL     1      -0.996  14.418  20.994  0.00  0.00    +0.000 A 
ATOM     10  C   UNL     1      -1.743  15.545  20.525  0.00  0.00    +0.000 A 
ATOM     11  C   UNL     1      -1.414  16.526  19.454  0.00  0.00    +0.000 C 
ATOM     12  N   UNL     1      -2.892  15.700  21.193  0.00  0.00    +0.000 NA
ATOM     13  N   UNL     1      -2.884  14.723  22.114  0.00  0.00    +0.000 N 
ATOM     14  C   UNL     1      -1.689  14.043  22.151  0.00  0.00    +0.000 A 
ATOM     15  C   UNL     1      -1.323  13.158  23.283  0.00  0.00    +0.000 C 
BRANCH  13  16
ATOM     16  C   UNL     1      -3.972  14.648  23.085  0.00  0.00    +0.000 C 
BRANCH  16  17
ATOM     17  C   UNL     1      -5.045  13.624  22.776  0.00  0.00    +0.000 A 
ATOM     18  C   UNL     1      -5.961  13.227  23.765  0.00  0.00    +0.000 A 
ATOM     19  C   UNL     1      -7.115  12.516  23.420  0.00  0.00    +0.000 A 
ATOM     20  C   UNL     1      -7.359  12.183  22.090  0.00  0.00    +0.000 A 
ATOM     21  C   UNL     1      -6.419  12.500  21.113  0.00  0.00    +0.000 A 
ATOM     22  C   UNL     1      -5.258  13.201  21.456  0.00  0.00    +0.000 A 
ENDBRANCH  16  17
ENDBRANCH  13  16
ENDBRANCH   5   9
BRANCH   1  23
ATOM     23  C   UNL     1       1.359   9.050  20.136  0.00  0.00    +0.000 C 
BRANCH  23  25
ATOM     24  N   UNL     1       2.315   7.365  18.618  0.00  0.00    +0.000 N 
ATOM     25  C   UNL     1       1.787   7.606  19.862  0.00  0.00    +0.000 C 
ATOM     26  O   UNL     1       1.689   6.781  20.779  0.00  0.00    +0.000 OA
ATOM     27  H   UNL     1       2.452   8.216  18.059  0.00  0.00    +0.000 HD
BRANCH  24  33
ATOM     28  C   UNL     1       5.692   4.338  16.437  0.00  0.00    +0.000 C 
ATOM     29  C   UNL     1       4.328   4.633  16.996  0.00  0.00    +0.000 A 
ATOM     30  C   UNL     1       3.397   3.577  17.039  0.00  0.00    +0.000 A 
ATOM     31  C   UNL     1       2.140   3.784  17.570  0.00  0.00    +0.000 A 
ATOM     32  C   UNL     1       1.797   5.031  18.086  0.00  0.00    +0.000 A 
ATOM     33  C   UNL     1       2.694   6.112  18.080  0.00  0.00    +0.000 A 
ATOM     34  C   UNL     1       3.973   5.920  17.496  0.00  0.00    +0.000 A 
ATOM     35  C   UNL     1       5.019   7.011  17.423  0.00  0.00    +0.000 C 
ENDBRANCH  24  33
ENDBRANCH  23  25
ENDBRANCH   1  23
TORSDOF 6
ENDMDL
MODEL 7
REMARK VINA RESULT:      -7.4      2.861     12.533
REMARK  Name = 
REMARK  10 active torsions:
REMARK  status: ('A' for Active; 'I' for Inactive)
REMARK    1  A    between atoms: C_1  and  C_2
REMARK    2  A    between atoms: C_6  and  N_7
REMARK    3  A    between atoms: C_8  and  C_10
REMARK    4  A    between atoms: C_10  and  N_11
REMARK    5  A    between atoms: C_15  and  C_17
REMARK    6  A    between atoms: C_18  and  C_19
REMARK    7  A    between atoms: N_21  and  C_22
REMARK    8  A    between atoms: C_22  and  C_23
REMARK    9  A    between atoms: C_29  and  C_30
REMARK   10  A    between atoms: C_33  and  C_34
REMARK                            x       y       z     vdW  Elec       q    Type
REMARK                         _______ _______ _______ _____ _____    ______ ____
ROOT
ATOM      1  N   UNL     1      -0.023   8.665  21.588  0.00  0.00    +0.000 NA
ATOM      2  C   UNL     1      -0.422   9.455  22.776  0.00  0.00    +0.000 C 
ATOM      3  C   UNL     1      -0.429  10.985  22.600  0.00  0.00    +0.000 C 
ATOM      4  N   UNL     1      -0.953  11.500  21.320  0.00  0.00    +0.000 N 
ATOM      5  C   UNL     1      -1.539  12.770  21.096  0.00  0.00    +0.000 C 
ATOM      6  O   UNL     1      -1.919  13.098  19.973  0.00  0.00    +0.000 OA
ATOM      7  C   UNL     1      -0.588  10.706  20.158  0.00  0.00    +0.000 C 
ATOM      8  C   UNL     1      -0.826   9.206  20.446  0.00  0.00    +0.000 C 
ENDROOT
BRANCH   5   9
ATOM      9  C   UNL     1      -1.730  13.685  22.225  0.00  0.00    +0.000 A 
ATOM     10  C   UNL     1      -0.811  14.651  22.743  0.00  0.00    +0.000 A 
ATOM     11  C   UNL     1       0.588  14.951  22.332  0.00  0.00    +0.000 C 
ATOM     12  N   UNL     1      -1.336  15.352  23.756  0.00  0.00    +0.000 NA
ATOM     13  N   UNL     1      -2.560  14.829  23.932  0.00  0.00    +0.000 N 
ATOM     14  C   UNL     1      -2.772  13.710  23.160  0.00  0.00    +0.000 A 
ATOM     15  C   UNL     1      -3.899  12.781  23.415  0.00  0.00    +0.000 C 
BRANCH  13  16
ATOM     16  C   UNL     1      -3.393  15.314  25.030  0.00  0.00    +0.000 C 
BRANCH  16  17
ATOM     17  C   UNL     1      -4.421  16.359  24.648  0.00  0.00    +0.000 A 
ATOM     18  C   UNL     1      -4.058  17.713  24.543  0.00  0.00    +0.000 A 
ATOM     19  C   UNL     1      -4.910  18.631  23.919  0.00  0.00    +0.000 A 
ATOM     20  C   UNL     1      -6.136  18.209  23.408  0.00  0.00    +0.000 A 
ATOM     21  C   UNL     1      -6.541  16.888  23.579  0.00  0.00    +0.000 A 
ATOM     22  C   UNL     1      -5.696  15.971  24.212  0.00  0.00    +0.000 A 
ENDBRANCH  16  17
ENDBRANCH  13  16
ENDBRANCH   5   9
BRANCH   1  23
ATOM     23  C   UNL     1       1.421   8.764  21.248  0.00  0.00    +0.000 C 
BRANCH  23  25
ATOM     24  N   UNL     1       2.183   6.652  20.239  0.00  0.00    +0.000 N 
ATOM     25  C   UNL     1       1.884   7.974  20.021  0.00  0.00    +0.000 C 
ATOM     26  O   UNL     1       1.900   8.549  18.925  0.00  0.00    +0.000 OA
ATOM     27  H   UNL     1       1.957   6.332  21.188  0.00  0.00    +0.000 HD
BRANCH  24  33
ATOM     28  C   UNL     1       2.171   2.174  17.943  0.00  0.00    +0.000 C 
ATOM     29  C   UNL     1       2.737   3.544  18.195  0.00  0.00    +0.000 A 
ATOM     30  C   UNL     1       3.831   3.954  17.408  0.00  0.00    +0.000 A 
ATOM     31  C   UNL     1       4.372   5.212  17.576  0.00  0.00    +0.000 A 
ATOM     32  C   UNL     1       3.821   6.089  18.507  0.00  0.00    +0.000 A 
ATOM     33  C   UNL     1       2.721   5.734  19.305  0.00  0.00    +0.000 A 
ATOM     34  C   UNL     1       2.188   4.427  19.170  0.00  0.00    +0.000 A 
ATOM     35  C   UNL     1       1.012   3.927  19.981  0.00  0.00    +0.000 C 
ENDBRANCH  24  33
ENDBRANCH  23  25
ENDBRANCH   1  23
TORSDOF 6
ENDMDL
MODEL 8
REMARK VINA RESULT:      -7.4      2.304     12.174
REMARK  Name = 
REMARK  10 active torsions:
REMARK  status: ('A' for Active; 'I' for Inactive)
REMARK    1  A    between atoms: C_1  and  C_2
REMARK    2  A    between atoms: C_6  and  N_7
REMARK    3  A    between atoms: C_8  and  C_10
REMARK    4  A    between atoms: C_10  and  N_11
REMARK    5  A    between atoms: C_15  and  C_17
REMARK    6  A    between atoms: C_18  and  C_19
REMARK    7  A    between atoms: N_21  and  C_22
REMARK    8  A    between atoms: C_22  and  C_23
REMARK    9  A    between atoms: C_29  and  C_30
REMARK   10  A    between atoms: C_33  and  C_34
REMARK                            x       y       z     vdW  Elec       q    Type
REMARK                         _______ _______ _______ _____ _____    ______ ____
ROOT
ATOM      1  N   UNL     1       1.134  10.251  18.232  0.00  0.00    +0.000 NA
ATOM      2  C   UNL     1      -0.273  10.241  18.694  0.00  0.00    +0.000 C 
ATOM      3  C   UNL     1      -0.520  10.767  20.121  0.00  0.00    +0.000 C 
ATOM      4  N   UNL     1       0.247  11.961  20.527  0.00  0.00    +0.000 N 
ATOM      5  C   UNL     1      -0.129  12.917  21.501  0.00  0.00    +0.000 C 
ATOM      6  O   UNL     1       0.610  13.863  21.772  0.00  0.00    +0.000 OA
ATOM      7  C   UNL     1       1.619  11.986  20.044  0.00  0.00    +0.000 C 
ATOM      8  C   UNL     1       1.659  11.618  18.544  0.00  0.00    +0.000 C 
ENDROOT
BRANCH   5   9
ATOM      9  C   UNL     1      -1.432  12.797  22.163  0.00  0.00    +0.000 A 
ATOM     10  C   UNL     1      -1.900  11.740  23.005  0.00  0.00    +0.000 A 
ATOM     11  C   UNL     1      -1.237  10.463  23.387  0.00  0.00    +0.000 C 
ATOM     12  N   UNL     1      -3.128  11.982  23.480  0.00  0.00    +0.000 NA
ATOM     13  N   UNL     1      -3.481  13.154  22.928  0.00  0.00    +0.000 N 
ATOM     14  C   UNL     1      -2.572  13.591  21.992  0.00  0.00    +0.000 A 
ATOM     15  C   UNL     1      -2.896  14.669  21.026  0.00  0.00    +0.000 C 
BRANCH  13  16
ATOM     16  C   UNL     1      -4.820  13.684  23.173  0.00  0.00    +0.000 C 
BRANCH  16  17
ATOM     17  C   UNL     1      -4.866  15.001  23.920  0.00  0.00    +0.000 A 
ATOM     18  C   UNL     1      -3.794  15.397  24.738  0.00  0.00    +0.000 A 
ATOM     19  C   UNL     1      -3.697  16.716  25.194  0.00  0.00    +0.000 A 
ATOM     20  C   UNL     1      -4.673  17.647  24.849  0.00  0.00    +0.000 A 
ATOM     21  C   UNL     1      -5.782  17.247  24.107  0.00  0.00    +0.000 A 
ATOM     22  C   UNL     1      -5.887  15.926  23.659  0.00  0.00    +0.000 A 
ENDBRANCH  16  17
ENDBRANCH  13  16
ENDBRANCH   5   9
BRANCH   1  23
ATOM     23  C   UNL     1       2.001   9.242  18.895  0.00  0.00    +0.000 C 
BRANCH  23  25
ATOM     24  N   UNL     1       2.705   6.905  18.578  0.00  0.00    +0.000 N 
ATOM     25  C   UNL     1       2.572   8.142  17.997  0.00  0.00    +0.000 C 
ATOM     26  O   UNL     1       2.812   8.416  16.814  0.00  0.00    +0.000 OA
ATOM     27  H   UNL     1       2.305   6.851  19.522  0.00  0.00    +0.000 HD
BRANCH  24  33
ATOM     28  C   UNL     1       2.756   1.950  17.704  0.00  0.00    +0.000 C 
ATOM     29  C   UNL     1       3.337   3.332  17.589  0.00  0.00    +0.000 A 
ATOM     30  C   UNL     1       4.501   3.489  16.812  0.00  0.00    +0.000 A 
ATOM     31  C   UNL     1       5.060   4.740  16.648  0.00  0.00    +0.000 A 
ATOM     32  C   UNL     1       4.460   5.853  17.231  0.00  0.00    +0.000 A 
ATOM     33  C   UNL     1       3.291   5.751  18.003  0.00  0.00    +0.000 A 
ATOM     34  C   UNL     1       2.735   4.464  18.213  0.00  0.00    +0.000 A 
ATOM     35  C   UNL     1       1.486   4.228  19.033  0.00  0.00    +0.000 C 
ENDBRANCH  24  33
ENDBRANCH  23  25
ENDBRANCH   1  23
TORSDOF 6
ENDMDL
MODEL 9
REMARK VINA RESULT:      -7.4      3.020     11.666
REMARK  Name = 
REMARK  10 active torsions:
REMARK  status: ('A' for Active; 'I' for Inactive)
REMARK    1  A    between atoms: C_1  and  C_2
REMARK    2  A    between atoms: C_6  and  N_7
REMARK    3  A    between atoms: C_8  and  C_10
REMARK    4  A    between atoms: C_10  and  N_11
REMARK    5  A    between atoms: C_15  and  C_17
REMARK    6  A    between atoms: C_18  and  C_19
REMARK    7  A    between atoms: N_21  and  C_22
REMARK    8  A    between atoms: C_22  and  C_23
REMARK    9  A    between atoms: C_29  and  C_30
REMARK   10  A    between atoms: C_33  and  C_34
REMARK                            x       y       z     vdW  Elec       q    Type
REMARK                         _______ _______ _______ _____ _____    ______ ____
ROOT
ATOM      1  N   UNL     1       1.270  11.409  18.780  0.00  0.00    +0.000 NA
ATOM      2  C   UNL     1      -0.054  12.001  18.482  0.00  0.00    +0.000 C 
ATOM      3  C   UNL     1      -0.920  12.371  19.702  0.00  0.00    +0.000 C 
ATOM      4  N   UNL     1      -0.219  12.985  20.847  0.00  0.00    +0.000 N 
ATOM      5  C   UNL     1      -0.780  13.853  21.815  0.00  0.00    +0.000 C 
ATOM      6  O   UNL     1      -0.099  14.285  22.743  0.00  0.00    +0.000 OA
ATOM      7  C   UNL     1       1.095  12.426  21.117  0.00  0.00    +0.000 C 
ATOM      8  C   UNL     1       1.899  12.303  19.803  0.00  0.00    +0.000 C 
ENDROOT
BRANCH   5   9
ATOM      9  C   UNL     1      -2.179  14.272  21.682  0.00  0.00    +0.000 A 
ATOM     10  C   UNL     1      -2.693  15.441  21.037  0.00  0.00    +0.000 A 
ATOM     11  C   UNL     1      -1.967  16.568  20.389  0.00  0.00    +0.000 C 
ATOM     12  N   UNL     1      -4.031  15.483  21.062  0.00  0.00    +0.000 NA
ATOM     13  N   UNL     1      -4.391  14.386  21.748  0.00  0.00    +0.000 N 
ATOM     14  C   UNL     1      -3.314  13.727  22.293  0.00  0.00    +0.000 A 
ATOM     15  C   UNL     1      -3.475  12.697  23.349  0.00  0.00    +0.000 C 
BRANCH  13  16
ATOM     16  C   UNL     1      -5.805  14.158  22.038  0.00  0.00    +0.000 C 
BRANCH  16  17
ATOM     17  C   UNL     1      -6.340  12.804  21.620  0.00  0.00    +0.000 A 
ATOM     18  C   UNL     1      -7.194  12.079  22.468  0.00  0.00    +0.000 A 
ATOM     19  C   UNL     1      -7.915  10.982  21.983  0.00  0.00    +0.000 A 
ATOM     20  C   UNL     1      -7.780  10.592  20.653  0.00  0.00    +0.000 A 
ATOM     21  C   UNL     1      -6.876  11.251  19.825  0.00  0.00    +0.000 A 
ATOM     22  C   UNL     1      -6.145  12.340  20.310  0.00  0.00    +0.000 A 
ENDBRANCH  16  17
ENDBRANCH  13  16
ENDBRANCH   5   9
BRANCH   1  23
ATOM     23  C   UNL     1       1.212  10.027  19.321  0.00  0.00    +0.000 C 
BRANCH  23  25
ATOM     24  N   UNL     1       2.318   7.844  19.051  0.00  0.00    +0.000 N 
ATOM     25  C   UNL     1       1.750   8.919  18.412  0.00  0.00    +0.000 C 
ATOM     26  O   UNL     1       1.588   9.031  17.190  0.00  0.00    +0.000 OA
ATOM     27  H   UNL     1       2.215   7.874  20.073  0.00  0.00    +0.000 HD
BRANCH  24  33
ATOM     28  C   UNL     1       2.887   2.892  18.356  0.00  0.00    +0.000 C 
ATOM     29  C   UNL     1       3.271   4.327  18.121  0.00  0.00    +0.000 A 
ATOM     30  C   UNL     1       4.306   4.583  17.200  0.00  0.00    +0.000 A 
ATOM     31  C   UNL     1       4.680   5.883  16.923  0.00  0.00    +0.000 A 
ATOM     32  C   UNL     1       4.019   6.944  17.536  0.00  0.00    +0.000 A 
ATOM     33  C   UNL     1       2.972   6.741  18.450  0.00  0.00    +0.000 A 
ATOM     34  C   UNL     1       2.611   5.408  18.773  0.00  0.00    +0.000 A 
ATOM     35  C   UNL     1       1.507   5.066  19.751  0.00  0.00    +0.000 C 
ENDBRANCH  24  33
ENDBRANCH  23  25
ENDBRANCH   1  23
TORSDOF 6
ENDMDL
