MODEL 1
REMARK VINA RESULT:      -9.0      0.000      0.000
REMARK  Name = 
REMARK  5 active torsions:
REMARK  status: ('A' for Active; 'I' for Inactive)
REMARK    1  A    between atoms: C_1  and  C_2
REMARK    2  A    between atoms: N_5  and  C_6
REMARK    3  A    between atoms: C_13  and  O_14
REMARK    4  A    between atoms: C_18  and  C_19
REMARK    5  A    between atoms: C_22  and  C_23
REMARK                            x       y       z     vdW  Elec       q    Type
REMARK                         _______ _______ _______ _____ _____    ______ ____
ROOT
ATOM      1  C   UNL     1       1.491   9.971  18.190  0.00  0.00    +0.000 C 
ATOM      2  C   UNL     1       1.428   9.027  19.323  0.00  0.00    +0.000 A 
ATOM      3  N   UNL     1       1.846   7.726  19.164  0.00  0.00    +0.000 NA
ATOM      4  C   UNL     1       1.741   7.192  20.359  0.00  0.00    +0.000 A 
ATOM      5  N   UNL     1       2.053   5.956  20.787  0.00  0.00    +0.000 N 
ATOM      6  O   UNL     1       1.262   8.056  21.310  0.00  0.00    +0.000 OA
ATOM      7  C   UNL     1       1.018   9.225  20.627  0.00  0.00    +0.000 A 
ATOM      8  H   UNL     1       1.998   5.780  21.777  0.00  0.00    +0.000 HD
ENDROOT
BRANCH   5   9
ATOM      9  C   UNL     1       2.087   4.794  19.981  0.00  0.00    +0.000 A 
ATOM     10  C   UNL     1       0.988   3.921  19.926  0.00  0.00    +0.000 A 
ATOM     11  C   UNL     1       1.000   2.785  19.120  0.00  0.00    +0.000 A 
ATOM     12  C   UNL     1       2.106   2.513  18.326  0.00  0.00    +0.000 A 
ATOM     13  C   UNL     1       3.211   3.375  18.328  0.00  0.00    +0.000 A 
ATOM     14  C   UNL     1       3.219   4.509  19.178  0.00  0.00    +0.000 A 
ATOM     15  C   UNL     1       4.391   5.467  19.139  0.00  0.00    +0.000 C 
ATOM     16  C   UNL     1       5.662   4.857  18.541  0.00  0.00    +0.000 C 
ATOM     17  C   UNL     1       5.348   4.173  17.218  0.00  0.00    +0.000 C 
ATOM     18  C   UNL     1       4.386   3.017  17.448  0.00  0.00    +0.000 C 
BRANCH  16  19
ATOM     19  O   UNL     1       6.644   5.869  18.341  0.00  0.00    +0.000 OA
ATOM     20  H   UNL     1       6.445   6.605  18.949  0.00  0.00    +0.000 HD
ENDBRANCH  16  19
ENDBRANCH   5   9
BRANCH   7  21
ATOM     21  C   UNL     1       0.394  10.307  21.376  0.00  0.00    +0.000 A 
ATOM     22  C   UNL     1      -0.455  10.040  22.456  0.00  0.00    +0.000 A 
ATOM     23  C   UNL     1      -1.130  11.076  23.111  0.00  0.00    +0.000 A 
ATOM     24  C   UNL     1      -0.974  12.406  22.697  0.00  0.00    +0.000 A 
ATOM     25  C   UNL     1      -0.083  12.685  21.653  0.00  0.00    +0.000 A 
ATOM     26  C   UNL     1       0.591  11.645  21.002  0.00  0.00    +0.000 A 
BRANCH  24  27
ATOM     27  C   UNL     1      -1.779  13.519  23.324  0.00  0.00    +0.000 C 
ATOM     28  F   UNL     1      -2.224  14.441  22.425  0.00  0.00    +0.000 F 
ATOM     29  F   UNL     1      -2.884  13.068  23.977  0.00  0.00    +0.000 F 
ATOM     30  F   UNL     1      -1.058  14.219  24.245  0.00  0.00    +0.000 F 
ENDBRANCH  24  27
ENDBRANCH   7  21
TORSDOF 4
ENDMDL
MODEL 2
REMARK VINA RESULT:      -8.9      0.900      1.200
REMARK  Name = 
REMARK  5 active torsions:
REMARK  status: ('A' for Active; 'I' for Inactive)
REMARK    1  A    between atoms: C_1  and  C_2
REMARK    2  A    between atoms: N_5  and  C_6
REMARK    3  A    between atoms: C_13  and  O_14
REMARK    4  A    between atoms: C_18  and  C_19
REMARK    5  A    between atoms: C_22  and  C_23
REMARK                            x       y       z     vdW  Elec       q    Type
REMARK                         _______ _______ _______ _____ _____    ______ ____
ROOT
ATOM      1  C   UNL     1       1.610  10.115  17.948  0.00  0.00    +0.000 C 
ATOM      2  C   UNL     1       1.597   9.054  18.974  0.00  0.00    +0.000 A 
ATOM      3  N   UNL     1       2.187   7.838  18.720  0.00  0.00    +0.000 NA
ATOM      4  C   UNL     1       2.076   7.169  19.845  0.00  0.00    +0.000 A 
ATOM      5  N   UNL     1       2.515   5.942  20.172  0.00  0.00    +0.000 N 
ATOM      6  O   UNL     1       1.431   7.863  20.838  0.00  0.00    +0.000 OA
ATOM      7  C   UNL     1       1.083   9.060  20.256  0.00  0.00    +0.000 A 
ATOM      8  H   UNL     1       2.421   5.656  21.133  0.00  0.00    +0.000 HD
ENDROOT
BRANCH   5   9
ATOM      9  C   UNL     1       2.749   4.886  19.261  0.00  0.00    +0.000 A 
ATOM     10  C   UNL     1       1.738   3.959  18.954  0.00  0.00    +0.000 A 
ATOM     11  C   UNL     1       1.948   2.927  18.042  0.00  0.00    +0.000 A 
ATOM     12  C   UNL     1       3.170   2.818  17.392  0.00  0.00    +0.000 A 
ATOM     13  C   UNL     1       4.195   3.740  17.647  0.00  0.00    +0.000 A 
ATOM     14  C   UNL     1       3.999   4.766  18.604  0.00  0.00    +0.000 A 
ATOM     15  C   UNL     1       5.088   5.791  18.838  0.00  0.00    +0.000 C 
ATOM     16  C   UNL     1       6.472   5.334  18.368  0.00  0.00    +0.000 C 
ATOM     17  C   UNL     1       6.396   4.791  16.949  0.00  0.00    +0.000 C 
ATOM     18  C   UNL     1       5.503   3.559  16.913  0.00  0.00    +0.000 C 
BRANCH  16  19
ATOM     19  O   UNL     1       7.392   6.421  18.422  0.00  0.00    +0.000 OA
ATOM     20  H   UNL     1       7.617   6.669  17.507  0.00  0.00    +0.000 HD
ENDBRANCH  16  19
ENDBRANCH   5   9
BRANCH   7  21
ATOM     21  C   UNL     1       0.279   9.972  21.058  0.00  0.00    +0.000 A 
ATOM     22  C   UNL     1      -0.097   9.642  22.366  0.00  0.00    +0.000 A 
ATOM     23  C   UNL     1      -0.950  10.474  23.099  0.00  0.00    +0.000 A 
ATOM     24  C   UNL     1      -1.452  11.657  22.537  0.00  0.00    +0.000 A 
ATOM     25  C   UNL     1      -1.034  12.021  21.250  0.00  0.00    +0.000 A 
ATOM     26  C   UNL     1      -0.180  11.185  20.523  0.00  0.00    +0.000 A 
BRANCH  24  27
ATOM     27  C   UNL     1      -2.457  12.508  23.276  0.00  0.00    +0.000 C 
ATOM     28  F   UNL     1      -1.887  13.430  24.100  0.00  0.00    +0.000 F 
ATOM     29  F   UNL     1      -3.274  13.205  22.440  0.00  0.00    +0.000 F 
ATOM     30  F   UNL     1      -3.279  11.763  24.068  0.00  0.00    +0.000 F 
ENDBRANCH  24  27
ENDBRANCH   7  21
TORSDOF 4
ENDMDL
MODEL 3
REMARK VINA RESULT:      -8.9      5.833      9.560
REMARK  Name = 
REMARK  5 active torsions:
REMARK  status: ('A' for Active; 'I' for Inactive)
REMARK    1  A    between atoms: C_1  and  C_2
REMARK    2  A    between atoms: N_5  and  C_6
REMARK    3  A    between atoms: C_13  and  O_14
REMARK    4  A    between atoms: C_18  and  C_19
REMARK    5  A    between atoms: C_22  and  C_23
REMARK                            x       y       z     vdW  Elec       q    Type
REMARK                         _______ _______ _______ _____ _____    ______ ____
ROOT
ATOM      1  C   UNL     1       1.862   6.355  20.871  0.00  0.00    +0.000 C 
ATOM      2  C   UNL     1       1.844   7.458  19.890  0.00  0.00    +0.000 A 
ATOM      3  N   UNL     1       1.070   8.572  20.114  0.00  0.00    +0.000 NA
ATOM      4  C   UNL     1       1.346   9.379  19.115  0.00  0.00    +0.000 A 
ATOM      5  N   UNL     1       0.903  10.621  18.855  0.00  0.00    +0.000 N 
ATOM      6  O   UNL     1       2.251   8.863  18.223  0.00  0.00    +0.000 OA
ATOM      7  C   UNL     1       2.534   7.605  18.703  0.00  0.00    +0.000 A 
ATOM      8  H   UNL     1       1.326  11.113  18.085  0.00  0.00    +0.000 HD
ENDROOT
BRANCH   5   9
ATOM      9  C   UNL     1      -0.327  11.161  19.298  0.00  0.00    +0.000 A 
ATOM     10  C   UNL     1      -0.408  11.878  20.504  0.00  0.00    +0.000 A 
ATOM     11  C   UNL     1      -1.608  12.434  20.941  0.00  0.00    +0.000 A 
ATOM     12  C   UNL     1      -2.751  12.310  20.163  0.00  0.00    +0.000 A 
ATOM     13  C   UNL     1      -2.706  11.629  18.940  0.00  0.00    +0.000 A 
ATOM     14  C   UNL     1      -1.498  11.026  18.511  0.00  0.00    +0.000 A 
ATOM     15  C   UNL     1      -1.439  10.337  17.164  0.00  0.00    +0.000 C 
ATOM     16  C   UNL     1      -2.814   9.942  16.618  0.00  0.00    +0.000 C 
ATOM     17  C   UNL     1      -3.772  11.121  16.694  0.00  0.00    +0.000 C 
ATOM     18  C   UNL     1      -3.988  11.521  18.146  0.00  0.00    +0.000 C 
BRANCH  16  19
ATOM     19  O   UNL     1      -2.696   9.501  15.268  0.00  0.00    +0.000 OA
ATOM     20  H   UNL     1      -2.226   8.647  15.271  0.00  0.00    +0.000 HD
ENDBRANCH  16  19
ENDBRANCH   5   9
BRANCH   7  21
ATOM     21  C   UNL     1       3.404   6.769  17.885  0.00  0.00    +0.000 A 
ATOM     22  C   UNL     1       4.389   7.336  17.069  0.00  0.00    +0.000 A 
ATOM     23  C   UNL     1       5.156   6.540  16.211  0.00  0.00    +0.000 A 
ATOM     24  C   UNL     1       4.950   5.154  16.146  0.00  0.00    +0.000 A 
ATOM     25  C   UNL     1       4.004   4.574  17.002  0.00  0.00    +0.000 A 
ATOM     26  C   UNL     1       3.241   5.376  17.858  0.00  0.00    +0.000 A 
BRANCH  24  27
ATOM     27  C   UNL     1       5.694   4.299  15.148  0.00  0.00    +0.000 C 
ATOM     28  F   UNL     1       5.922   3.029  15.584  0.00  0.00    +0.000 F 
ATOM     29  F   UNL     1       5.035   4.178  13.964  0.00  0.00    +0.000 F 
ATOM     30  F   UNL     1       6.920   4.811  14.845  0.00  0.00    +0.000 F 
ENDBRANCH  24  27
ENDBRANCH   7  21
TORSDOF 4
ENDMDL
MODEL 4
REMARK VINA RESULT:      -8.9      5.859      9.546
REMARK  Name = 
REMARK  5 active torsions:
REMARK  status: ('A' for Active; 'I' for Inactive)
REMARK    1  A    between atoms: C_1  and  C_2
REMARK    2  A    between atoms: N_5  and  C_6
REMARK    3  A    between atoms: C_13  and  O_14
REMARK    4  A    between atoms: C_18  and  C_19
REMARK    5  A    between atoms: C_22  and  C_23
REMARK                            x       y       z     vdW  Elec       q    Type
REMARK                         _______ _______ _______ _____ _____    ______ ____
ROOT
ATOM      1  C   UNL     1       1.916   6.408  20.836  0.00  0.00    +0.000 C 
ATOM      2  C   UNL     1       1.862   7.489  19.833  0.00  0.00    +0.000 A 
ATOM      3  N   UNL     1       1.091   8.605  20.059  0.00  0.00    +0.000 NA
ATOM      4  C   UNL     1       1.331   9.391  19.034  0.00  0.00    +0.000 A 
ATOM      5  N   UNL     1       0.875  10.626  18.762  0.00  0.00    +0.000 N 
ATOM      6  O   UNL     1       2.210   8.860  18.124  0.00  0.00    +0.000 OA
ATOM      7  C   UNL     1       2.513   7.613  18.621  0.00  0.00    +0.000 A 
ATOM      8  H   UNL     1       1.271  11.104  17.969  0.00  0.00    +0.000 HD
ENDROOT
BRANCH   5   9
ATOM      9  C   UNL     1      -0.342  11.172  19.233  0.00  0.00    +0.000 A 
ATOM     10  C   UNL     1      -0.392  11.894  20.438  0.00  0.00    +0.000 A 
ATOM     11  C   UNL     1      -1.579  12.454  20.903  0.00  0.00    +0.000 A 
ATOM     12  C   UNL     1      -2.742  12.330  20.154  0.00  0.00    +0.000 A 
ATOM     13  C   UNL     1      -2.729  11.644  18.932  0.00  0.00    +0.000 A 
ATOM     14  C   UNL     1      -1.533  11.036  18.476  0.00  0.00    +0.000 A 
ATOM     15  C   UNL     1      -1.509  10.342  17.131  0.00  0.00    +0.000 C 
ATOM     16  C   UNL     1      -2.898   9.949  16.620  0.00  0.00    +0.000 C 
ATOM     17  C   UNL     1      -3.851  11.131  16.715  0.00  0.00    +0.000 C 
ATOM     18  C   UNL     1      -4.030  11.536  18.171  0.00  0.00    +0.000 C 
BRANCH  16  19
ATOM     19  O   UNL     1      -2.815   9.501  15.269  0.00  0.00    +0.000 OA
ATOM     20  H   UNL     1      -1.895   9.228  15.100  0.00  0.00    +0.000 HD
ENDBRANCH  16  19
ENDBRANCH   5   9
BRANCH   7  21
ATOM     21  C   UNL     1       3.359   6.764  17.794  0.00  0.00    +0.000 A 
ATOM     22  C   UNL     1       3.244   5.369  17.839  0.00  0.00    +0.000 A 
ATOM     23  C   UNL     1       4.123   4.554  17.118  0.00  0.00    +0.000 A 
ATOM     24  C   UNL     1       5.144   5.116  16.337  0.00  0.00    +0.000 A 
ATOM     25  C   UNL     1       5.228   6.511  16.244  0.00  0.00    +0.000 A 
ATOM     26  C   UNL     1       4.345   7.322  16.966  0.00  0.00    +0.000 A 
BRANCH  24  27
ATOM     27  C   UNL     1       6.164   4.247  15.642  0.00  0.00    +0.000 C 
ATOM     28  F   UNL     1       5.797   2.938  15.558  0.00  0.00    +0.000 F 
ATOM     29  F   UNL     1       6.417   4.649  14.367  0.00  0.00    +0.000 F 
ATOM     30  F   UNL     1       7.367   4.252  16.282  0.00  0.00    +0.000 F 
ENDBRANCH  24  27
ENDBRANCH   7  21
TORSDOF 4
ENDMDL
MODEL 5
REMARK VINA RESULT:      -8.8      5.475      9.460
REMARK  Name = 
REMARK  5 active torsions:
REMARK  status: ('A' for Active; 'I' for Inactive)
REMARK    1  A    between atoms: C_1  and  C_2
REMARK    2  A    between atoms: N_5  and  C_6
REMARK    3  A    between atoms: C_13  and  O_14
REMARK    4  A    between atoms: C_18  and  C_19
REMARK    5  A    between atoms: C_22  and  C_23
REMARK                            x       y       z     vdW  Elec       q    Type
REMARK                         _______ _______ _______ _____ _____    ______ ____
ROOT
ATOM      1  C   UNL     1       1.732   4.753  20.750  0.00  0.00    +0.000 C 
ATOM      2  C   UNL     1       1.913   6.139  20.276  0.00  0.00    +0.000 A 
ATOM      3  N   UNL     1       1.352   7.187  20.968  0.00  0.00    +0.000 NA
ATOM      4  C   UNL     1       1.768   8.264  20.342  0.00  0.00    +0.000 A 
ATOM      5  N   UNL     1       1.556   9.563  20.615  0.00  0.00    +0.000 N 
ATOM      6  O   UNL     1       2.566   7.999  19.258  0.00  0.00    +0.000 OA
ATOM      7  C   UNL     1       2.618   6.625  19.192  0.00  0.00    +0.000 A 
ATOM      8  H   UNL     1       2.061  10.241  20.068  0.00  0.00    +0.000 HD
ENDROOT
BRANCH   5   9
ATOM      9  C   UNL     1       0.444  10.080  21.319  0.00  0.00    +0.000 A 
ATOM     10  C   UNL     1       0.193   9.706  22.650  0.00  0.00    +0.000 A 
ATOM     11  C   UNL     1      -0.886  10.225  23.362  0.00  0.00    +0.000 A 
ATOM     12  C   UNL     1      -1.724  11.156  22.764  0.00  0.00    +0.000 A 
ATOM     13  C   UNL     1      -1.492  11.579  21.449  0.00  0.00    +0.000 A 
ATOM     14  C   UNL     1      -0.420  11.023  20.707  0.00  0.00    +0.000 A 
ATOM     15  C   UNL     1      -0.139  11.521  19.306  0.00  0.00    +0.000 C 
ATOM     16  C   UNL     1      -1.333  12.226  18.655  0.00  0.00    +0.000 C 
ATOM     17  C   UNL     1      -1.913  13.267  19.601  0.00  0.00    +0.000 C 
ATOM     18  C   UNL     1      -2.447  12.588  20.854  0.00  0.00    +0.000 C 
BRANCH  16  19
ATOM     19  O   UNL     1      -0.931  12.849  17.438  0.00  0.00    +0.000 OA
ATOM     20  H   UNL     1      -0.363  12.222  16.954  0.00  0.00    +0.000 HD
ENDBRANCH  16  19
ENDBRANCH   5   9
BRANCH   7  21
ATOM     21  C   UNL     1       3.322   6.048  18.056  0.00  0.00    +0.000 A 
ATOM     22  C   UNL     1       3.207   4.686  17.751  0.00  0.00    +0.000 A 
ATOM     23  C   UNL     1       3.960   4.115  16.720  0.00  0.00    +0.000 A 
ATOM     24  C   UNL     1       4.854   4.894  15.971  0.00  0.00    +0.000 A 
ATOM     25  C   UNL     1       4.933   6.268  16.234  0.00  0.00    +0.000 A 
ATOM     26  C   UNL     1       4.175   6.834  17.266  0.00  0.00    +0.000 A 
BRANCH  24  27
ATOM     27  C   UNL     1       5.751   4.269  14.929  0.00  0.00    +0.000 C 
ATOM     28  F   UNL     1       6.210   3.035  15.277  0.00  0.00    +0.000 F 
ATOM     29  F   UNL     1       5.135   4.116  13.726  0.00  0.00    +0.000 F 
ATOM     30  F   UNL     1       6.862   5.022  14.688  0.00  0.00    +0.000 F 
ENDBRANCH  24  27
ENDBRANCH   7  21
TORSDOF 4
ENDMDL
MODEL 6
REMARK VINA RESULT:      -8.7      0.984      1.244
REMARK  Name = 
REMARK  5 active torsions:
REMARK  status: ('A' for Active; 'I' for Inactive)
REMARK    1  A    between atoms: C_1  and  C_2
REMARK    2  A    between atoms: N_5  and  C_6
REMARK    3  A    between atoms: C_13  and  O_14
REMARK    4  A    between atoms: C_18  and  C_19
REMARK    5  A    between atoms: C_22  and  C_23
REMARK                            x       y       z     vdW  Elec       q    Type
REMARK                         _______ _______ _______ _____ _____    ______ ____
ROOT
ATOM      1  C   UNL     1       0.486  10.354  17.793  0.00  0.00    +0.000 C 
ATOM      2  C   UNL     1       0.944   9.480  18.891  0.00  0.00    +0.000 A 
ATOM      3  N   UNL     1       1.568   8.287  18.611  0.00  0.00    +0.000 NA
ATOM      4  C   UNL     1       1.917   7.808  19.783  0.00  0.00    +0.000 A 
ATOM      5  N   UNL     1       2.592   6.688  20.097  0.00  0.00    +0.000 N 
ATOM      6  O   UNL     1       1.550   8.606  20.837  0.00  0.00    +0.000 OA
ATOM      7  C   UNL     1       0.882   9.660  20.258  0.00  0.00    +0.000 A 
ATOM      8  H   UNL     1       2.855   6.559  21.060  0.00  0.00    +0.000 HD
ENDROOT
BRANCH   5   9
ATOM      9  C   UNL     1       2.647   5.516  19.307  0.00  0.00    +0.000 A 
ATOM     10  C   UNL     1       1.709   4.484  19.479  0.00  0.00    +0.000 A 
ATOM     11  C   UNL     1       1.738   3.335  18.694  0.00  0.00    +0.000 A 
ATOM     12  C   UNL     1       2.692   3.205  17.694  0.00  0.00    +0.000 A 
ATOM     13  C   UNL     1       3.627   4.225  17.468  0.00  0.00    +0.000 A 
ATOM     14  C   UNL     1       3.627   5.377  18.293  0.00  0.00    +0.000 A 
ATOM     15  C   UNL     1       4.603   6.500  18.012  0.00  0.00    +0.000 C 
ATOM     16  C   UNL     1       5.809   6.069  17.173  0.00  0.00    +0.000 C 
ATOM     17  C   UNL     1       5.350   5.297  15.945  0.00  0.00    +0.000 C 
ATOM     18  C   UNL     1       4.645   4.018  16.371  0.00  0.00    +0.000 C 
BRANCH  16  19
ATOM     19  O   UNL     1       6.562   7.211  16.773  0.00  0.00    +0.000 OA
ATOM     20  H   UNL     1       6.720   7.758  17.565  0.00  0.00    +0.000 HD
ENDBRANCH  16  19
ENDBRANCH   5   9
BRANCH   7  21
ATOM     21  C   UNL     1       0.276  10.629  21.161  0.00  0.00    +0.000 A 
ATOM     22  C   UNL     1      -0.587  10.220  22.185  0.00  0.00    +0.000 A 
ATOM     23  C   UNL     1      -1.244  11.159  22.988  0.00  0.00    +0.000 A 
ATOM     24  C   UNL     1      -1.056  12.533  22.781  0.00  0.00    +0.000 A 
ATOM     25  C   UNL     1      -0.150  12.948  21.795  0.00  0.00    +0.000 A 
ATOM     26  C   UNL     1       0.505  12.004  20.996  0.00  0.00    +0.000 A 
BRANCH  24  27
ATOM     27  C   UNL     1      -1.840  13.557  23.567  0.00  0.00    +0.000 C 
ATOM     28  F   UNL     1      -1.087  14.238  24.474  0.00  0.00    +0.000 F 
ATOM     29  F   UNL     1      -2.420  14.499  22.775  0.00  0.00    +0.000 F 
ATOM     30  F   UNL     1      -2.854  12.991  24.280  0.00  0.00    +0.000 F 
ENDBRANCH  24  27
ENDBRANCH   7  21
TORSDOF 4
ENDMDL
MODEL 7
REMARK VINA RESULT:      -8.7      1.173      1.808
REMARK  Name = 
REMARK  5 active torsions:
REMARK  status: ('A' for Active; 'I' for Inactive)
REMARK    1  A    between atoms: C_1  and  C_2
REMARK    2  A    between atoms: N_5  and  C_6
REMARK    3  A    between atoms: C_13  and  O_14
REMARK    4  A    between atoms: C_18  and  C_19
REMARK    5  A    between atoms: C_22  and  C_23
REMARK                            x       y       z     vdW  Elec       q    Type
REMARK                         _______ _______ _______ _____ _____    ______ ____
ROOT
ATOM      1  C   UNL     1       1.838  10.265  17.802  0.00  0.00    +0.000 C 
ATOM      2  C   UNL     1       1.801   9.134  18.749  0.00  0.00    +0.000 A 
ATOM      3  N   UNL     1       2.485   7.974  18.469  0.00  0.00    +0.000 NA
ATOM      4  C   UNL     1       2.318   7.221  19.532  0.00  0.00    +0.000 A 
ATOM      5  N   UNL     1       2.802   5.999  19.815  0.00  0.00    +0.000 N 
ATOM      6  O   UNL     1       1.548   7.804  20.506  0.00  0.00    +0.000 OA
ATOM      7  C   UNL     1       1.178   9.019  19.976  0.00  0.00    +0.000 A 
ATOM      8  H   UNL     1       2.642   5.640  20.742  0.00  0.00    +0.000 HD
ENDROOT
BRANCH   5   9
ATOM      9  C   UNL     1       3.178   5.026  18.860  0.00  0.00    +0.000 A 
ATOM     10  C   UNL     1       2.239   4.116  18.347  0.00  0.00    +0.000 A 
ATOM     11  C   UNL     1       2.591   3.167  17.390  0.00  0.00    +0.000 A 
ATOM     12  C   UNL     1       3.890   3.128  16.902  0.00  0.00    +0.000 A 
ATOM     13  C   UNL     1       4.850   4.038  17.365  0.00  0.00    +0.000 A 
ATOM     14  C   UNL     1       4.507   4.977  18.368  0.00  0.00    +0.000 A 
ATOM     15  C   UNL     1       5.531   5.993  18.827  0.00  0.00    +0.000 C 
ATOM     16  C   UNL     1       6.975   5.594  18.510  0.00  0.00    +0.000 C 
ATOM     17  C   UNL     1       7.099   5.170  17.054  0.00  0.00    +0.000 C 
ATOM     18  C   UNL     1       6.248   3.935  16.799  0.00  0.00    +0.000 C 
BRANCH  16  19
ATOM     19  O   UNL     1       7.854   6.684  18.774  0.00  0.00    +0.000 OA
ATOM     20  H   UNL     1       7.375   7.510  18.579  0.00  0.00    +0.000 HD
ENDBRANCH  16  19
ENDBRANCH   5   9
BRANCH   7  21
ATOM     21  C   UNL     1       0.254   9.825  20.762  0.00  0.00    +0.000 A 
ATOM     22  C   UNL     1      -0.490  10.853  20.170  0.00  0.00    +0.000 A 
ATOM     23  C   UNL     1      -1.302  11.689  20.944  0.00  0.00    +0.000 A 
ATOM     24  C   UNL     1      -1.386  11.518  22.333  0.00  0.00    +0.000 A 
ATOM     25  C   UNL     1      -0.689  10.456  22.924  0.00  0.00    +0.000 A 
ATOM     26  C   UNL     1       0.121   9.623  22.144  0.00  0.00    +0.000 A 
BRANCH  24  27
ATOM     27  C   UNL     1      -2.173  12.479  23.192  0.00  0.00    +0.000 C 
ATOM     28  F   UNL     1      -3.030  11.861  24.052  0.00  0.00    +0.000 F 
ATOM     29  F   UNL     1      -1.377  13.273  23.959  0.00  0.00    +0.000 F 
ATOM     30  F   UNL     1      -2.941  13.324  22.449  0.00  0.00    +0.000 F 
ENDBRANCH  24  27
ENDBRANCH   7  21
TORSDOF 4
ENDMDL
MODEL 8
REMARK VINA RESULT:      -8.6      5.640      9.733
REMARK  Name = 
REMARK  5 active torsions:
REMARK  status: ('A' for Active; 'I' for Inactive)
REMARK    1  A    between atoms: C_1  and  C_2
REMARK    2  A    between atoms: N_5  and  C_6
REMARK    3  A    between atoms: C_13  and  O_14
REMARK    4  A    between atoms: C_18  and  C_19
REMARK    5  A    between atoms: C_22  and  C_23
REMARK                            x       y       z     vdW  Elec       q    Type
REMARK                         _______ _______ _______ _____ _____    ______ ____
ROOT
ATOM      1  C   UNL     1       2.029   6.555  20.687  0.00  0.00    +0.000 C 
ATOM      2  C   UNL     1       2.007   7.567  19.613  0.00  0.00    +0.000 A 
ATOM      3  N   UNL     1       1.224   8.691  19.736  0.00  0.00    +0.000 NA
ATOM      4  C   UNL     1       1.498   9.409  18.671  0.00  0.00    +0.000 A 
ATOM      5  N   UNL     1       1.046  10.620  18.301  0.00  0.00    +0.000 N 
ATOM      6  O   UNL     1       2.411   8.824  17.831  0.00  0.00    +0.000 OA
ATOM      7  C   UNL     1       2.701   7.615  18.420  0.00  0.00    +0.000 A 
ATOM      8  H   UNL     1       1.469  11.047  17.493  0.00  0.00    +0.000 HD
ENDROOT
BRANCH   5   9
ATOM      9  C   UNL     1      -0.189  11.188  18.691  0.00  0.00    +0.000 A 
ATOM     10  C   UNL     1      -1.395  10.761  18.110  0.00  0.00    +0.000 A 
ATOM     11  C   UNL     1      -2.621  11.296  18.500  0.00  0.00    +0.000 A 
ATOM     12  C   UNL     1      -2.669  12.252  19.506  0.00  0.00    +0.000 A 
ATOM     13  C   UNL     1      -1.492  12.683  20.132  0.00  0.00    +0.000 A 
ATOM     14  C   UNL     1      -0.239  12.172  19.710  0.00  0.00    +0.000 A 
ATOM     15  C   UNL     1       1.025  12.599  20.425  0.00  0.00    +0.000 C 
ATOM     16  C   UNL     1       0.873  13.904  21.211  0.00  0.00    +0.000 C 
ATOM     17  C   UNL     1      -0.371  13.853  22.085  0.00  0.00    +0.000 C 
ATOM     18  C   UNL     1      -1.612  13.733  21.213  0.00  0.00    +0.000 C 
BRANCH  16  19
ATOM     19  O   UNL     1       2.025  14.124  22.022  0.00  0.00    +0.000 OA
ATOM     20  H   UNL     1       2.761  14.377  21.435  0.00  0.00    +0.000 HD
ENDBRANCH  16  19
ENDBRANCH   5   9
BRANCH   7  21
ATOM     21  C   UNL     1       3.580   6.718  17.681  0.00  0.00    +0.000 A 
ATOM     22  C   UNL     1       4.639   7.217  16.913  0.00  0.00    +0.000 A 
ATOM     23  C   UNL     1       5.420   6.362  16.127  0.00  0.00    +0.000 A 
ATOM     24  C   UNL     1       5.155   4.986  16.088  0.00  0.00    +0.000 A 
ATOM     25  C   UNL     1       4.132   4.474  16.897  0.00  0.00    +0.000 A 
ATOM     26  C   UNL     1       3.356   5.333  17.682  0.00  0.00    +0.000 A 
BRANCH  24  27
ATOM     27  C   UNL     1       5.919   4.069  15.162  0.00  0.00    +0.000 C 
ATOM     28  F   UNL     1       7.219   4.436  14.986  0.00  0.00    +0.000 F 
ATOM     29  F   UNL     1       5.948   2.782  15.601  0.00  0.00    +0.000 F 
ATOM     30  F   UNL     1       5.375   4.028  13.913  0.00  0.00    +0.000 F 
ENDBRANCH  24  27
ENDBRANCH   7  21
TORSDOF 4
ENDMDL
MODEL 9
REMARK VINA RESULT:      -8.6      1.665      2.909
REMARK  Name = 
REMARK  5 active torsions:
REMARK  status: ('A' for Active; 'I' for Inactive)
REMARK    1  A    between atoms: C_1  and  C_2
REMARK    2  A    between atoms: N_5  and  C_6
REMARK    3  A    between atoms: C_13  and  O_14
REMARK    4  A    between atoms: C_18  and  C_19
REMARK    5  A    between atoms: C_22  and  C_23
REMARK                            x       y       z     vdW  Elec       q    Type
REMARK                         _______ _______ _______ _____ _____    ______ ____
ROOT
ATOM      1  C   UNL     1       1.358  11.069  17.851  0.00  0.00    +0.000 C 
ATOM      2  C   UNL     1       1.458   9.901  18.747  0.00  0.00    +0.000 A 
ATOM      3  N   UNL     1       2.267   8.840  18.413  0.00  0.00    +0.000 NA
ATOM      4  C   UNL     1       2.196   8.028  19.443  0.00  0.00    +0.000 A 
ATOM      5  N   UNL     1       2.818   6.858  19.670  0.00  0.00    +0.000 N 
ATOM      6  O   UNL     1       1.373   8.476  20.444  0.00  0.00    +0.000 OA
ATOM      7  C   UNL     1       0.863   9.663  19.970  0.00  0.00    +0.000 A 
ATOM      8  H   UNL     1       2.709   6.443  20.581  0.00  0.00    +0.000 HD
ENDROOT
BRANCH   5   9
ATOM      9  C   UNL     1       3.295   5.977  18.671  0.00  0.00    +0.000 A 
ATOM     10  C   UNL     1       4.368   6.340  17.840  0.00  0.00    +0.000 A 
ATOM     11  C   UNL     1       4.862   5.474  16.867  0.00  0.00    +0.000 A 
ATOM     12  C   UNL     1       4.309   4.208  16.725  0.00  0.00    +0.000 A 
ATOM     13  C   UNL     1       3.257   3.795  17.554  0.00  0.00    +0.000 A 
ATOM     14  C   UNL     1       2.725   4.688  18.517  0.00  0.00    +0.000 A 
ATOM     15  C   UNL     1       1.626   4.221  19.447  0.00  0.00    +0.000 C 
ATOM     16  C   UNL     1       0.870   2.993  18.933  0.00  0.00    +0.000 C 
ATOM     17  C   UNL     1       1.849   1.911  18.504  0.00  0.00    +0.000 C 
ATOM     18  C   UNL     1       2.695   2.409  17.341  0.00  0.00    +0.000 C 
BRANCH  16  19
ATOM     19  O   UNL     1       0.007   2.488  19.949  0.00  0.00    +0.000 OA
ATOM     20  H   UNL     1      -0.562   3.221  20.250  0.00  0.00    +0.000 HD
ENDBRANCH  16  19
ENDBRANCH   5   9
BRANCH   7  21
ATOM     21  C   UNL     1      -0.141  10.323  20.794  0.00  0.00    +0.000 A 
ATOM     22  C   UNL     1      -1.038  11.244  20.239  0.00  0.00    +0.000 A 
ATOM     23  C   UNL     1      -1.935  11.950  21.048  0.00  0.00    +0.000 A 
ATOM     24  C   UNL     1      -1.952  11.753  22.437  0.00  0.00    +0.000 A 
ATOM     25  C   UNL     1      -1.097  10.792  22.991  0.00  0.00    +0.000 A 
ATOM     26  C   UNL     1      -0.202  10.088  22.176  0.00  0.00    +0.000 A 
BRANCH  24  27
ATOM     27  C   UNL     1      -2.839  12.585  23.333  0.00  0.00    +0.000 C 
ATOM     28  F   UNL     1      -2.161  13.529  24.042  0.00  0.00    +0.000 F 
ATOM     29  F   UNL     1      -3.805  13.252  22.645  0.00  0.00    +0.000 F 
ATOM     30  F   UNL     1      -3.493  11.826  24.257  0.00  0.00    +0.000 F 
ENDBRANCH  24  27
ENDBRANCH   7  21
TORSDOF 4
ENDMDL
