MODEL 1
REMARK VINA RESULT:      -6.1      0.000      0.000
REMARK  Name = 
REMARK  8 active torsions:
REMARK  status: ('A' for Active; 'I' for Inactive)
REMARK    1  A    between atoms: C_1  and  C_2
REMARK    2  A    between atoms: C_2  and  O_3
REMARK    3  A    between atoms: O_3  and  N_4
REMARK    4  A    between atoms: C_5  and  C_6
REMARK    5  A    between atoms: C_5  and  C_7
REMARK    6  A    between atoms: C_8  and  C_9
REMARK    7  A    between atoms: C_14  and  C_15
REMARK    8  A    between atoms: C_15  and  C_16
REMARK                            x       y       z     vdW  Elec       q    Type
REMARK                         _______ _______ _______ _____ _____    ______ ____
ROOT
ATOM      1  C   UNL     1       3.761   3.543  18.162  0.00  0.00    +0.000 C 
ATOM      2  C   UNL     1       3.413   2.251  18.357  0.00  0.00    +0.000 C 
ATOM      3  C   UNL     1       4.306   1.040  18.428  0.00  0.00    +0.000 C 
ATOM      4  N   UNL     1       2.087   1.939  18.568  0.00  0.00    +0.000 N 
ATOM      5  C   UNL     1       1.082   2.835  18.736  0.00  0.00    +0.000 C 
ATOM      6  O   UNL     1      -0.074   2.490  18.940  0.00  0.00    +0.000 OA
ATOM      7  N   UNL     1       1.439   4.138  18.698  0.00  0.00    +0.000 N 
ATOM      8  C   UNL     1       2.689   4.644  18.135  0.00  0.00    +0.000 C 
ATOM      9  H   UNL     1       1.796   0.978  18.680  0.00  0.00    +0.000 HD
ATOM     10  H   UNL     1       0.641   4.754  18.766  0.00  0.00    +0.000 HD
ENDROOT
BRANCH   1  12
ATOM     11  N   UNL     1       6.018   4.138  18.827  0.00  0.00    +0.000 NA
ATOM     12  C   UNL     1       5.185   3.946  17.847  0.00  0.00    +0.000 C 
ATOM     13  C   UNL     1       5.604   4.106  16.390  0.00  0.00    +0.000 C 
BRANCH  11  14
ATOM     14  O   UNL     1       7.266   4.591  18.385  0.00  0.00    +0.000 OA
BRANCH  14  16
ATOM     15  C   UNL     1       7.595   6.914  17.976  0.00  0.00    +0.000 C 
ATOM     16  C   UNL     1       7.549   5.830  19.030  0.00  0.00    +0.000 C 
ENDBRANCH  14  16
ENDBRANCH  11  14
ENDBRANCH   1  12
BRANCH   8  17
ATOM     17  C   UNL     1       3.025   5.992  18.815  0.00  0.00    +0.000 C 
ATOM     18  C   UNL     1       3.273   7.145  17.843  0.00  0.00    +0.000 C 
ENDBRANCH   8  17
TORSDOF 4
ENDMDL
MODEL 2
REMARK VINA RESULT:      -5.8      2.574      4.309
REMARK  Name = 
REMARK  8 active torsions:
REMARK  status: ('A' for Active; 'I' for Inactive)
REMARK    1  A    between atoms: C_1  and  C_2
REMARK    2  A    between atoms: C_2  and  O_3
REMARK    3  A    between atoms: O_3  and  N_4
REMARK    4  A    between atoms: C_5  and  C_6
REMARK    5  A    between atoms: C_5  and  C_7
REMARK    6  A    between atoms: C_8  and  C_9
REMARK    7  A    between atoms: C_14  and  C_15
REMARK    8  A    between atoms: C_15  and  C_16
REMARK                            x       y       z     vdW  Elec       q    Type
REMARK                         _______ _______ _______ _____ _____    ______ ____
ROOT
ATOM      1  C   UNL     1       3.236   4.062  19.299  0.00  0.00    +0.000 C 
ATOM      2  C   UNL     1       2.704   3.393  20.347  0.00  0.00    +0.000 C 
ATOM      3  C   UNL     1       1.297   3.456  20.883  0.00  0.00    +0.000 C 
ATOM      4  N   UNL     1       3.486   2.488  21.031  0.00  0.00    +0.000 N 
ATOM      5  C   UNL     1       4.732   2.090  20.670  0.00  0.00    +0.000 C 
ATOM      6  O   UNL     1       5.368   1.265  21.314  0.00  0.00    +0.000 OA
ATOM      7  N   UNL     1       5.221   2.634  19.535  0.00  0.00    +0.000 N 
ATOM      8  C   UNL     1       4.705   3.846  18.902  0.00  0.00    +0.000 C 
ATOM      9  H   UNL     1       3.124   2.002  21.840  0.00  0.00    +0.000 HD
ATOM     10  H   UNL     1       6.173   2.348  19.353  0.00  0.00    +0.000 HD
ENDROOT
BRANCH   1  12
ATOM     11  N   UNL     1       2.704   6.378  18.805  0.00  0.00    +0.000 NA
ATOM     12  C   UNL     1       2.459   5.125  18.555  0.00  0.00    +0.000 C 
ATOM     13  C   UNL     1       1.416   4.698  17.528  0.00  0.00    +0.000 C 
BRANCH  11  14
ATOM     14  O   UNL     1       1.848   7.238  18.107  0.00  0.00    +0.000 OA
BRANCH  14  16
ATOM     15  C   UNL     1       1.696   9.613  18.006  0.00  0.00    +0.000 C 
ATOM     16  C   UNL     1       2.579   8.410  17.755  0.00  0.00    +0.000 C 
ENDBRANCH  14  16
ENDBRANCH  11  14
ENDBRANCH   1  12
BRANCH   8  17
ATOM     17  C   UNL     1       5.041   3.796  17.393  0.00  0.00    +0.000 C 
ATOM     18  C   UNL     1       6.289   4.584  16.996  0.00  0.00    +0.000 C 
ENDBRANCH   8  17
TORSDOF 4
ENDMDL
MODEL 3
REMARK VINA RESULT:      -5.7      1.815      3.157
REMARK  Name = 
REMARK  8 active torsions:
REMARK  status: ('A' for Active; 'I' for Inactive)
REMARK    1  A    between atoms: C_1  and  C_2
REMARK    2  A    between atoms: C_2  and  O_3
REMARK    3  A    between atoms: O_3  and  N_4
REMARK    4  A    between atoms: C_5  and  C_6
REMARK    5  A    between atoms: C_5  and  C_7
REMARK    6  A    between atoms: C_8  and  C_9
REMARK    7  A    between atoms: C_14  and  C_15
REMARK    8  A    between atoms: C_15  and  C_16
REMARK                            x       y       z     vdW  Elec       q    Type
REMARK                         _______ _______ _______ _____ _____    ______ ____
ROOT
ATOM      1  C   UNL     1       3.860   4.216  19.587  0.00  0.00    +0.000 C 
ATOM      2  C   UNL     1       2.929   5.033  20.129  0.00  0.00    +0.000 C 
ATOM      3  C   UNL     1       2.630   6.469  19.788  0.00  0.00    +0.000 C 
ATOM      4  N   UNL     1       2.081   4.535  21.095  0.00  0.00    +0.000 N 
ATOM      5  C   UNL     1       1.995   3.236  21.476  0.00  0.00    +0.000 C 
ATOM      6  O   UNL     1       1.205   2.856  22.330  0.00  0.00    +0.000 OA
ATOM      7  N   UNL     1       2.814   2.375  20.833  0.00  0.00    +0.000 N 
ATOM      8  C   UNL     1       3.999   2.763  20.071  0.00  0.00    +0.000 C 
ATOM      9  H   UNL     1       1.401   5.135  21.542  0.00  0.00    +0.000 HD
ATOM     10  H   UNL     1       2.749   1.437  21.203  0.00  0.00    +0.000 HD
ENDROOT
BRANCH   1  12
ATOM     11  N   UNL     1       6.107   4.882  18.955  0.00  0.00    +0.000 NA
ATOM     12  C   UNL     1       4.872   4.717  18.581  0.00  0.00    +0.000 C 
ATOM     13  C   UNL     1       4.417   5.007  17.155  0.00  0.00    +0.000 C 
BRANCH  11  14
ATOM     14  O   UNL     1       6.901   5.433  17.944  0.00  0.00    +0.000 OA
BRANCH  14  16
ATOM     15  C   UNL     1       7.673   7.666  17.642  0.00  0.00    +0.000 C 
ATOM     16  C   UNL     1       7.731   6.437  18.522  0.00  0.00    +0.000 C 
ENDBRANCH  14  16
ENDBRANCH  11  14
ENDBRANCH   1  12
BRANCH   8  17
ATOM     17  C   UNL     1       4.280   1.675  19.008  0.00  0.00    +0.000 C 
ATOM     18  C   UNL     1       3.222   1.577  17.909  0.00  0.00    +0.000 C 
ENDBRANCH   8  17
TORSDOF 4
ENDMDL
MODEL 4
REMARK VINA RESULT:      -5.7      2.222      3.895
REMARK  Name = 
REMARK  8 active torsions:
REMARK  status: ('A' for Active; 'I' for Inactive)
REMARK    1  A    between atoms: C_1  and  C_2
REMARK    2  A    between atoms: C_2  and  O_3
REMARK    3  A    between atoms: O_3  and  N_4
REMARK    4  A    between atoms: C_5  and  C_6
REMARK    5  A    between atoms: C_5  and  C_7
REMARK    6  A    between atoms: C_8  and  C_9
REMARK    7  A    between atoms: C_14  and  C_15
REMARK    8  A    between atoms: C_15  and  C_16
REMARK                            x       y       z     vdW  Elec       q    Type
REMARK                         _______ _______ _______ _____ _____    ______ ____
ROOT
ATOM      1  C   UNL     1       4.479   4.815  18.189  0.00  0.00    +0.000 C 
ATOM      2  C   UNL     1       3.940   6.055  18.212  0.00  0.00    +0.000 C 
ATOM      3  C   UNL     1       4.201   7.209  17.280  0.00  0.00    +0.000 C 
ATOM      4  N   UNL     1       2.988   6.353  19.163  0.00  0.00    +0.000 N 
ATOM      5  C   UNL     1       2.423   5.466  20.021  0.00  0.00    +0.000 C 
ATOM      6  O   UNL     1       1.567   5.793  20.831  0.00  0.00    +0.000 OA
ATOM      7  N   UNL     1       2.840   4.185  19.907  0.00  0.00    +0.000 N 
ATOM      8  C   UNL     1       4.067   3.765  19.233  0.00  0.00    +0.000 C 
ATOM      9  H   UNL     1       2.596   7.282  19.226  0.00  0.00    +0.000 HD
ATOM     10  H   UNL     1       2.432   3.587  20.611  0.00  0.00    +0.000 HD
ENDROOT
BRANCH   1  12
ATOM     11  N   UNL     1       5.268   4.021  16.035  0.00  0.00    +0.000 NA
ATOM     12  C   UNL     1       5.584   4.445  17.223  0.00  0.00    +0.000 C 
ATOM     13  C   UNL     1       7.035   4.588  17.668  0.00  0.00    +0.000 C 
BRANCH  11  14
ATOM     14  O   UNL     1       6.389   3.636  15.291  0.00  0.00    +0.000 OA
BRANCH  14  16
ATOM     15  C   UNL     1       6.071   3.572  12.932  0.00  0.00    +0.000 C 
ATOM     16  C   UNL     1       6.444   4.438  14.115  0.00  0.00    +0.000 C 
ENDBRANCH  14  16
ENDBRANCH  11  14
ENDBRANCH   1  12
BRANCH   8  17
ATOM     17  C   UNL     1       3.891   2.305  18.754  0.00  0.00    +0.000 C 
ATOM     18  C   UNL     1       2.686   2.080  17.843  0.00  0.00    +0.000 C 
ENDBRANCH   8  17
TORSDOF 4
ENDMDL
MODEL 5
REMARK VINA RESULT:      -5.7      2.934      4.499
REMARK  Name = 
REMARK  8 active torsions:
REMARK  status: ('A' for Active; 'I' for Inactive)
REMARK    1  A    between atoms: C_1  and  C_2
REMARK    2  A    between atoms: C_2  and  O_3
REMARK    3  A    between atoms: O_3  and  N_4
REMARK    4  A    between atoms: C_5  and  C_6
REMARK    5  A    between atoms: C_5  and  C_7
REMARK    6  A    between atoms: C_8  and  C_9
REMARK    7  A    between atoms: C_14  and  C_15
REMARK    8  A    between atoms: C_15  and  C_16
REMARK                            x       y       z     vdW  Elec       q    Type
REMARK                         _______ _______ _______ _____ _____    ______ ____
ROOT
ATOM      1  C   UNL     1       3.766   3.689  19.745  0.00  0.00    +0.000 C 
ATOM      2  C   UNL     1       4.362   4.602  18.945  0.00  0.00    +0.000 C 
ATOM      3  C   UNL     1       5.503   4.402  17.982  0.00  0.00    +0.000 C 
ATOM      4  N   UNL     1       3.883   5.894  18.930  0.00  0.00    +0.000 N 
ATOM      5  C   UNL     1       2.758   6.326  19.555  0.00  0.00    +0.000 C 
ATOM      6  O   UNL     1       2.376   7.487  19.486  0.00  0.00    +0.000 OA
ATOM      7  N   UNL     1       2.062   5.389  20.235  0.00  0.00    +0.000 N 
ATOM      8  C   UNL     1       2.596   4.095  20.655  0.00  0.00    +0.000 C 
ATOM      9  H   UNL     1       4.333   6.604  18.370  0.00  0.00    +0.000 HD
ATOM     10  H   UNL     1       1.273   5.782  20.728  0.00  0.00    +0.000 HD
ENDROOT
BRANCH   1  12
ATOM     11  N   UNL     1       5.070   1.976  20.865  0.00  0.00    +0.000 NA
ATOM     12  C   UNL     1       4.290   2.275  19.868  0.00  0.00    +0.000 C 
ATOM     13  C   UNL     1       3.882   1.240  18.826  0.00  0.00    +0.000 C 
BRANCH  11  14
ATOM     14  O   UNL     1       5.543   0.661  20.795  0.00  0.00    +0.000 OA
BRANCH  14  16
ATOM     15  C   UNL     1       6.709  -1.051  21.972  0.00  0.00    +0.000 C 
ATOM     16  C   UNL     1       5.991   0.275  22.092  0.00  0.00    +0.000 C 
ENDBRANCH  14  16
ENDBRANCH  11  14
ENDBRANCH   1  12
BRANCH   8  17
ATOM     17  C   UNL     1       1.421   3.101  20.802  0.00  0.00    +0.000 C 
ATOM     18  C   UNL     1       0.642   2.847  19.512  0.00  0.00    +0.000 C 
ENDBRANCH   8  17
TORSDOF 4
ENDMDL
MODEL 6
REMARK VINA RESULT:      -5.7      1.303      1.927
REMARK  Name = 
REMARK  8 active torsions:
REMARK  status: ('A' for Active; 'I' for Inactive)
REMARK    1  A    between atoms: C_1  and  C_2
REMARK    2  A    between atoms: C_2  and  O_3
REMARK    3  A    between atoms: O_3  and  N_4
REMARK    4  A    between atoms: C_5  and  C_6
REMARK    5  A    between atoms: C_5  and  C_7
REMARK    6  A    between atoms: C_8  and  C_9
REMARK    7  A    between atoms: C_14  and  C_15
REMARK    8  A    between atoms: C_15  and  C_16
REMARK                            x       y       z     vdW  Elec       q    Type
REMARK                         _______ _______ _______ _____ _____    ______ ____
ROOT
ATOM      1  C   UNL     1       3.761   3.803  18.401  0.00  0.00    +0.000 C 
ATOM      2  C   UNL     1       3.585   2.642  19.072  0.00  0.00    +0.000 C 
ATOM      3  C   UNL     1       4.626   1.760  19.709  0.00  0.00    +0.000 C 
ATOM      4  N   UNL     1       2.305   2.171  19.270  0.00  0.00    +0.000 N 
ATOM      5  C   UNL     1       1.163   2.838  18.968  0.00  0.00    +0.000 C 
ATOM      6  O   UNL     1       0.054   2.369  19.189  0.00  0.00    +0.000 OA
ATOM      7  N   UNL     1       1.320   4.070  18.437  0.00  0.00    +0.000 N 
ATOM      8  C   UNL     1       2.555   4.566  17.832  0.00  0.00    +0.000 C 
ATOM      9  H   UNL     1       2.148   1.288  19.736  0.00  0.00    +0.000 HD
ATOM     10  H   UNL     1       0.438   4.489  18.176  0.00  0.00    +0.000 HD
ENDROOT
BRANCH   1  12
ATOM     11  N   UNL     1       5.642   4.118  16.899  0.00  0.00    +0.000 NA
ATOM     12  C   UNL     1       5.141   4.336  18.080  0.00  0.00    +0.000 C 
ATOM     13  C   UNL     1       5.898   5.119  19.145  0.00  0.00    +0.000 C 
BRANCH  11  14
ATOM     14  O   UNL     1       6.954   4.592  16.783  0.00  0.00    +0.000 OA
BRANCH  14  16
ATOM     15  C   UNL     1       6.261   4.035  14.573  0.00  0.00    +0.000 C 
ATOM     16  C   UNL     1       7.211   4.865  15.408  0.00  0.00    +0.000 C 
ENDBRANCH  14  16
ENDBRANCH  11  14
ENDBRANCH   1  12
BRANCH   8  17
ATOM     17  C   UNL     1       2.568   6.109  17.933  0.00  0.00    +0.000 C 
ATOM     18  C   UNL     1       2.496   6.651  19.360  0.00  0.00    +0.000 C 
ENDBRANCH   8  17
TORSDOF 4
ENDMDL
MODEL 7
REMARK VINA RESULT:      -5.7      2.587      4.301
REMARK  Name = 
REMARK  8 active torsions:
REMARK  status: ('A' for Active; 'I' for Inactive)
REMARK    1  A    between atoms: C_1  and  C_2
REMARK    2  A    between atoms: C_2  and  O_3
REMARK    3  A    between atoms: O_3  and  N_4
REMARK    4  A    between atoms: C_5  and  C_6
REMARK    5  A    between atoms: C_5  and  C_7
REMARK    6  A    between atoms: C_8  and  C_9
REMARK    7  A    between atoms: C_14  and  C_15
REMARK    8  A    between atoms: C_15  and  C_16
REMARK                            x       y       z     vdW  Elec       q    Type
REMARK                         _______ _______ _______ _____ _____    ______ ____
ROOT
ATOM      1  C   UNL     1       4.088   5.293  18.261  0.00  0.00    +0.000 C 
ATOM      2  C   UNL     1       3.158   4.312  18.303  0.00  0.00    +0.000 C 
ATOM      3  C   UNL     1       1.822   4.256  17.610  0.00  0.00    +0.000 C 
ATOM      4  N   UNL     1       3.424   3.168  19.024  0.00  0.00    +0.000 N 
ATOM      5  C   UNL     1       4.610   2.859  19.605  0.00  0.00    +0.000 C 
ATOM      6  O   UNL     1       4.786   1.814  20.216  0.00  0.00    +0.000 OA
ATOM      7  N   UNL     1       5.603   3.761  19.440  0.00  0.00    +0.000 N 
ATOM      8  C   UNL     1       5.406   5.153  19.038  0.00  0.00    +0.000 C 
ATOM      9  H   UNL     1       2.731   2.436  19.102  0.00  0.00    +0.000 HD
ATOM     10  H   UNL     1       6.439   3.506  19.946  0.00  0.00    +0.000 HD
ENDROOT
BRANCH   1  12
ATOM     11  N   UNL     1       2.959   7.433  18.057  0.00  0.00    +0.000 NA
ATOM     12  C   UNL     1       3.829   6.606  17.554  0.00  0.00    +0.000 C 
ATOM     13  C   UNL     1       4.601   6.926  16.279  0.00  0.00    +0.000 C 
BRANCH  11  14
ATOM     14  O   UNL     1       2.765   8.558  17.248  0.00  0.00    +0.000 OA
BRANCH  14  16
ATOM     15  C   UNL     1       1.513   8.833  19.255  0.00  0.00    +0.000 C 
ATOM     16  C   UNL     1       1.895   9.457  17.931  0.00  0.00    +0.000 C 
ENDBRANCH  14  16
ENDBRANCH  11  14
ENDBRANCH   1  12
BRANCH   8  17
ATOM     17  C   UNL     1       6.700   5.656  18.357  0.00  0.00    +0.000 C 
ATOM     18  C   UNL     1       7.432   4.600  17.530  0.00  0.00    +0.000 C 
ENDBRANCH   8  17
TORSDOF 4
ENDMDL
MODEL 8
REMARK VINA RESULT:      -5.7      2.517      3.833
REMARK  Name = 
REMARK  8 active torsions:
REMARK  status: ('A' for Active; 'I' for Inactive)
REMARK    1  A    between atoms: C_1  and  C_2
REMARK    2  A    between atoms: C_2  and  O_3
REMARK    3  A    between atoms: O_3  and  N_4
REMARK    4  A    between atoms: C_5  and  C_6
REMARK    5  A    between atoms: C_5  and  C_7
REMARK    6  A    between atoms: C_8  and  C_9
REMARK    7  A    between atoms: C_14  and  C_15
REMARK    8  A    between atoms: C_15  and  C_16
REMARK                            x       y       z     vdW  Elec       q    Type
REMARK                         _______ _______ _______ _____ _____    ______ ____
ROOT
ATOM      1  C   UNL     1       4.807   4.045  17.750  0.00  0.00    +0.000 C 
ATOM      2  C   UNL     1       5.560   4.261  18.852  0.00  0.00    +0.000 C 
ATOM      3  C   UNL     1       6.661   5.269  19.052  0.00  0.00    +0.000 C 
ATOM      4  N   UNL     1       5.310   3.523  19.989  0.00  0.00    +0.000 N 
ATOM      5  C   UNL     1       4.269   2.670  20.163  0.00  0.00    +0.000 C 
ATOM      6  O   UNL     1       4.094   2.058  21.209  0.00  0.00    +0.000 OA
ATOM      7  N   UNL     1       3.414   2.559  19.123  0.00  0.00    +0.000 N 
ATOM      8  C   UNL     1       3.714   2.964  17.751  0.00  0.00    +0.000 C 
ATOM      9  H   UNL     1       5.882   3.639  20.814  0.00  0.00    +0.000 HD
ATOM     10  H   UNL     1       2.699   1.865  19.289  0.00  0.00    +0.000 HD
ENDROOT
BRANCH   1  12
ATOM     11  N   UNL     1       5.531   4.083  15.434  0.00  0.00    +0.000 NA
ATOM     12  C   UNL     1       5.078   4.763  16.446  0.00  0.00    +0.000 C 
ATOM     13  C   UNL     1       4.805   6.260  16.354  0.00  0.00    +0.000 C 
BRANCH  11  14
ATOM     14  O   UNL     1       5.816   4.896  14.331  0.00  0.00    +0.000 OA
BRANCH  14  16
ATOM     15  C   UNL     1       5.860   3.386  12.489  0.00  0.00    +0.000 C 
ATOM     16  C   UNL     1       6.696   4.185  13.464  0.00  0.00    +0.000 C 
ENDBRANCH  14  16
ENDBRANCH  11  14
ENDBRANCH   1  12
BRANCH   8  17
ATOM     17  C   UNL     1       2.383   3.287  17.032  0.00  0.00    +0.000 C 
ATOM     18  C   UNL     1       1.502   4.304  17.756  0.00  0.00    +0.000 C 
ENDBRANCH   8  17
TORSDOF 4
ENDMDL
MODEL 9
REMARK VINA RESULT:      -5.7      2.465      3.841
REMARK  Name = 
REMARK  8 active torsions:
REMARK  status: ('A' for Active; 'I' for Inactive)
REMARK    1  A    between atoms: C_1  and  C_2
REMARK    2  A    between atoms: C_2  and  O_3
REMARK    3  A    between atoms: O_3  and  N_4
REMARK    4  A    between atoms: C_5  and  C_6
REMARK    5  A    between atoms: C_5  and  C_7
REMARK    6  A    between atoms: C_8  and  C_9
REMARK    7  A    between atoms: C_14  and  C_15
REMARK    8  A    between atoms: C_15  and  C_16
REMARK                            x       y       z     vdW  Elec       q    Type
REMARK                         _______ _______ _______ _____ _____    ______ ____
ROOT
ATOM      1  C   UNL     1       3.210   5.730  19.379  0.00  0.00    +0.000 C 
ATOM      2  C   UNL     1       2.913   6.952  18.882  0.00  0.00    +0.000 C 
ATOM      3  C   UNL     1       3.379   7.578  17.593  0.00  0.00    +0.000 C 
ATOM      4  N   UNL     1       2.042   7.763  19.575  0.00  0.00    +0.000 N 
ATOM      5  C   UNL     1       1.327   7.401  20.670  0.00  0.00    +0.000 C 
ATOM      6  O   UNL     1       0.554   8.167  21.229  0.00  0.00    +0.000 OA
ATOM      7  N   UNL     1       1.495   6.129  21.092  0.00  0.00    +0.000 N 
ATOM      8  C   UNL     1       2.616   5.268  20.720  0.00  0.00    +0.000 C 
ATOM      9  H   UNL     1       1.832   8.695  19.244  0.00  0.00    +0.000 HD
ATOM     10  H   UNL     1       0.988   5.939  21.945  0.00  0.00    +0.000 HD
ENDROOT
BRANCH   1  12
ATOM     11  N   UNL     1       5.454   4.843  19.116  0.00  0.00    +0.000 NA
ATOM     12  C   UNL     1       4.218   4.821  18.711  0.00  0.00    +0.000 C 
ATOM     13  C   UNL     1       3.755   3.899  17.589  0.00  0.00    +0.000 C 
BRANCH  11  14
ATOM     14  O   UNL     1       6.282   4.017  18.346  0.00  0.00    +0.000 OA
BRANCH  14  16
ATOM     15  C   UNL     1       7.833   5.728  18.930  0.00  0.00    +0.000 C 
ATOM     16  C   UNL     1       7.350   4.807  17.831  0.00  0.00    +0.000 C 
ENDBRANCH  14  16
ENDBRANCH  11  14
ENDBRANCH   1  12
BRANCH   8  17
ATOM     17  C   UNL     1       2.165   3.793  20.837  0.00  0.00    +0.000 C 
ATOM     18  C   UNL     1       0.890   3.459  20.064  0.00  0.00    +0.000 C 
ENDBRANCH   8  17
TORSDOF 4
ENDMDL
