MODEL 1
REMARK VINA RESULT:      -6.7      0.000      0.000
REMARK  Name = 
REMARK  9 active torsions:
REMARK  status: ('A' for Active; 'I' for Inactive)
REMARK    1  A    between atoms: C_1  and  O_2
REMARK    2  A    between atoms: O_2  and  C_3
REMARK    3  A    between atoms: C_3  and  C_4
REMARK    4  A    between atoms: C_4  and  O_5
REMARK    5  A    between atoms: O_5  and  C_6
REMARK    6  A    between atoms: N_9  and  C_10
REMARK    7  A    between atoms: C_10  and  C_11
REMARK    8  A    between atoms: C_16  and  C_17
REMARK    9  A    between atoms: C_17  and  C_18
REMARK                            x       y       z     vdW  Elec       q    Type
REMARK                         _______ _______ _______ _____ _____    ______ ____
ROOT
ATOM      1  C   UNL     1       3.840   4.865  20.124  0.00  0.00    +0.000 C 
ATOM      2  C   UNL     1       4.272   3.602  19.400  0.00  0.00    +0.000 C 
ATOM      3  C   UNL     1       5.368   4.088  18.472  0.00  0.00    +0.000 C 
ATOM      4  N   UNL     1       5.007   5.452  18.050  0.00  0.00    +0.000 NA
ATOM      5  C   UNL     1       3.974   5.966  19.025  0.00  0.00    +0.000 C 
ENDROOT
BRANCH   1   6
ATOM      6  O   UNL     1       2.546   4.773  20.701  0.00  0.00    +0.000 OA
BRANCH   6   7
ATOM      7  C   UNL     1       2.282   3.661  21.558  0.00  0.00    +0.000 C 
BRANCH   7   8
ATOM      8  C   UNL     1       1.153   2.727  21.110  0.00  0.00    +0.000 C 
BRANCH   8  10
ATOM      9  C   UNL     1       0.881   2.350  18.779  0.00  0.00    +0.000 C 
ATOM     10  O   UNL     1       0.621   3.221  19.877  0.00  0.00    +0.000 OA
ENDBRANCH   8  10
ENDBRANCH   7   8
ENDBRANCH   6   7
ENDBRANCH   1   6
BRANCH   4  11
ATOM     11  C   UNL     1       4.630   5.529  16.634  0.00  0.00    +0.000 C 
BRANCH  11  12
ATOM     12  C   UNL     1       5.725   5.162  15.679  0.00  0.00    +0.000 A 
ATOM     13  C   UNL     1       5.558   4.376  14.497  0.00  0.00    +0.000 A 
ATOM     14  C   UNL     1       6.742   4.440  13.803  0.00  0.00    +0.000 A 
ATOM     15  O   UNL     1       7.647   5.180  14.490  0.00  0.00    +0.000 OA
ATOM     16  C   UNL     1       7.028   5.616  15.619  0.00  0.00    +0.000 A 
ENDBRANCH  11  12
ENDBRANCH   4  11
BRANCH   5  17
ATOM     17  C   UNL     1       2.645   6.483  18.399  0.00  0.00    +0.000 C 
BRANCH  17  18
ATOM     18  C   UNL     1       2.110   7.856  18.710  0.00  0.00    +0.000 A 
ATOM     19  C   UNL     1       1.972   8.878  17.773  0.00  0.00    +0.000 A 
ATOM     20  C   UNL     1       1.409  10.094  18.156  0.00  0.00    +0.000 A 
ATOM     21  C   UNL     1       0.971  10.239  19.462  0.00  0.00    +0.000 A 
ATOM     22  N   UNL     1       1.062   9.270  20.393  0.00  0.00    +0.000 NA
ATOM     23  C   UNL     1       1.625   8.108  19.995  0.00  0.00    +0.000 A 
ENDBRANCH  17  18
ENDBRANCH   5  17
TORSDOF 8
ENDMDL
MODEL 2
REMARK VINA RESULT:      -6.7      3.041      7.439
REMARK  Name = 
REMARK  9 active torsions:
REMARK  status: ('A' for Active; 'I' for Inactive)
REMARK    1  A    between atoms: C_1  and  O_2
REMARK    2  A    between atoms: O_2  and  C_3
REMARK    3  A    between atoms: C_3  and  C_4
REMARK    4  A    between atoms: C_4  and  O_5
REMARK    5  A    between atoms: O_5  and  C_6
REMARK    6  A    between atoms: N_9  and  C_10
REMARK    7  A    between atoms: C_10  and  C_11
REMARK    8  A    between atoms: C_16  and  C_17
REMARK    9  A    between atoms: C_17  and  C_18
REMARK                            x       y       z     vdW  Elec       q    Type
REMARK                         _______ _______ _______ _____ _____    ______ ____
ROOT
ATOM      1  C   UNL     1       6.951   4.881  17.852  0.00  0.00    +0.000 C 
ATOM      2  C   UNL     1       6.120   5.364  19.027  0.00  0.00    +0.000 C 
ATOM      3  C   UNL     1       5.141   4.229  19.254  0.00  0.00    +0.000 C 
ATOM      4  N   UNL     1       4.832   3.651  17.936  0.00  0.00    +0.000 NA
ATOM      5  C   UNL     1       5.914   4.102  16.982  0.00  0.00    +0.000 C 
ENDROOT
BRANCH   1   6
ATOM      6  O   UNL     1       7.620   5.926  17.162  0.00  0.00    +0.000 OA
BRANCH   6   7
ATOM      7  C   UNL     1       7.226   7.268  17.454  0.00  0.00    +0.000 C 
BRANCH   7   8
ATOM      8  C   UNL     1       8.262   8.123  18.191  0.00  0.00    +0.000 C 
BRANCH   8  10
ATOM      9  C   UNL     1       9.027  10.367  18.354  0.00  0.00    +0.000 C 
ATOM     10  O   UNL     1       7.977   9.501  17.931  0.00  0.00    +0.000 OA
ENDBRANCH   8  10
ENDBRANCH   7   8
ENDBRANCH   6   7
ENDBRANCH   1   6
BRANCH   4  11
ATOM     11  C   UNL     1       3.457   3.923  17.502  0.00  0.00    +0.000 C 
BRANCH  11  12
ATOM     12  C   UNL     1       2.409   3.610  18.527  0.00  0.00    +0.000 A 
ATOM     13  C   UNL     1       1.841   4.553  19.439  0.00  0.00    +0.000 A 
ATOM     14  C   UNL     1       0.789   3.924  20.059  0.00  0.00    +0.000 A 
ATOM     15  O   UNL     1       0.687   2.644  19.624  0.00  0.00    +0.000 OA
ATOM     16  C   UNL     1       1.664   2.459  18.698  0.00  0.00    +0.000 A 
ENDBRANCH  11  12
ENDBRANCH   4  11
BRANCH   5  17
ATOM     17  C   UNL     1       5.425   4.813  15.686  0.00  0.00    +0.000 C 
BRANCH  17  18
ATOM     18  C   UNL     1       5.964   4.437  14.331  0.00  0.00    +0.000 A 
ATOM     19  C   UNL     1       5.314   3.595  13.431  0.00  0.00    +0.000 A 
ATOM     20  C   UNL     1       5.874   3.360  12.177  0.00  0.00    +0.000 A 
ATOM     21  C   UNL     1       7.056   4.002  11.849  0.00  0.00    +0.000 A 
ATOM     22  N   UNL     1       7.706   4.843  12.677  0.00  0.00    +0.000 NA
ATOM     23  C   UNL     1       7.145   5.039  13.891  0.00  0.00    +0.000 A 
ENDBRANCH  17  18
ENDBRANCH   5  17
TORSDOF 8
ENDMDL
MODEL 3
REMARK VINA RESULT:      -6.6      3.139      7.357
REMARK  Name = 
REMARK  9 active torsions:
REMARK  status: ('A' for Active; 'I' for Inactive)
REMARK    1  A    between atoms: C_1  and  O_2
REMARK    2  A    between atoms: O_2  and  C_3
REMARK    3  A    between atoms: C_3  and  C_4
REMARK    4  A    between atoms: C_4  and  O_5
REMARK    5  A    between atoms: O_5  and  C_6
REMARK    6  A    between atoms: N_9  and  C_10
REMARK    7  A    between atoms: C_10  and  C_11
REMARK    8  A    between atoms: C_16  and  C_17
REMARK    9  A    between atoms: C_17  and  C_18
REMARK                            x       y       z     vdW  Elec       q    Type
REMARK                         _______ _______ _______ _____ _____    ______ ____
ROOT
ATOM      1  C   UNL     1       7.027   4.898  18.065  0.00  0.00    +0.000 C 
ATOM      2  C   UNL     1       6.095   5.278  19.203  0.00  0.00    +0.000 C 
ATOM      3  C   UNL     1       5.052   4.178  19.182  0.00  0.00    +0.000 C 
ATOM      4  N   UNL     1       4.863   3.785  17.776  0.00  0.00    +0.000 NA
ATOM      5  C   UNL     1       6.058   4.291  17.002  0.00  0.00    +0.000 C 
ENDROOT
BRANCH   1   6
ATOM      6  O   UNL     1       7.809   5.983  17.587  0.00  0.00    +0.000 OA
BRANCH   6   7
ATOM      7  C   UNL     1       8.054   7.067  18.485  0.00  0.00    +0.000 C 
BRANCH   7   8
ATOM      8  C   UNL     1       8.097   8.462  17.852  0.00  0.00    +0.000 C 
BRANCH   8  10
ATOM      9  C   UNL     1       8.948  10.652  18.207  0.00  0.00    +0.000 C 
ATOM     10  O   UNL     1       8.818   9.333  18.729  0.00  0.00    +0.000 OA
ENDBRANCH   8  10
ENDBRANCH   7   8
ENDBRANCH   6   7
ENDBRANCH   1   6
BRANCH   4  11
ATOM     11  C   UNL     1       3.554   4.183  17.243  0.00  0.00    +0.000 C 
BRANCH  11  12
ATOM     12  C   UNL     1       2.383   3.642  18.006  0.00  0.00    +0.000 A 
ATOM     13  C   UNL     1       2.015   2.263  18.081  0.00  0.00    +0.000 A 
ATOM     14  C   UNL     1       1.025   2.166  19.029  0.00  0.00    +0.000 A 
ATOM     15  O   UNL     1       0.725   3.394  19.520  0.00  0.00    +0.000 OA
ATOM     16  C   UNL     1       1.549   4.281  18.902  0.00  0.00    +0.000 A 
ENDBRANCH  11  12
ENDBRANCH   4  11
BRANCH   5  17
ATOM     17  C   UNL     1       5.741   5.182  15.766  0.00  0.00    +0.000 C 
BRANCH  17  18
ATOM     18  C   UNL     1       6.230   4.820  14.388  0.00  0.00    +0.000 A 
ATOM     19  C   UNL     1       7.378   5.345  13.796  0.00  0.00    +0.000 A 
ATOM     20  C   UNL     1       7.773   4.896  12.538  0.00  0.00    +0.000 A 
ATOM     21  C   UNL     1       7.021   3.910  11.921  0.00  0.00    +0.000 A 
ATOM     22  N   UNL     1       5.920   3.357  12.465  0.00  0.00    +0.000 NA
ATOM     23  C   UNL     1       5.555   3.824  13.680  0.00  0.00    +0.000 A 
ENDBRANCH  17  18
ENDBRANCH   5  17
TORSDOF 8
ENDMDL
MODEL 4
REMARK VINA RESULT:      -6.5      2.270      2.989
REMARK  Name = 
REMARK  9 active torsions:
REMARK  status: ('A' for Active; 'I' for Inactive)
REMARK    1  A    between atoms: C_1  and  O_2
REMARK    2  A    between atoms: O_2  and  C_3
REMARK    3  A    between atoms: C_3  and  C_4
REMARK    4  A    between atoms: C_4  and  O_5
REMARK    5  A    between atoms: O_5  and  C_6
REMARK    6  A    between atoms: N_9  and  C_10
REMARK    7  A    between atoms: C_10  and  C_11
REMARK    8  A    between atoms: C_16  and  C_17
REMARK    9  A    between atoms: C_17  and  C_18
REMARK                            x       y       z     vdW  Elec       q    Type
REMARK                         _______ _______ _______ _____ _____    ______ ____
ROOT
ATOM      1  C   UNL     1       3.438   4.349  18.091  0.00  0.00    +0.000 C 
ATOM      2  C   UNL     1       4.334   3.732  17.031  0.00  0.00    +0.000 C 
ATOM      3  C   UNL     1       5.712   4.251  17.393  0.00  0.00    +0.000 C 
ATOM      4  N   UNL     1       5.536   5.607  17.939  0.00  0.00    +0.000 NA
ATOM      5  C   UNL     1       4.083   5.752  18.326  0.00  0.00    +0.000 C 
ENDROOT
BRANCH   1   6
ATOM      6  O   UNL     1       2.069   4.394  17.719  0.00  0.00    +0.000 OA
BRANCH   6   7
ATOM      7  C   UNL     1       1.149   3.620  18.491  0.00  0.00    +0.000 C 
BRANCH   7   8
ATOM      8  C   UNL     1       1.062   3.974  19.979  0.00  0.00    +0.000 C 
BRANCH   8  10
ATOM      9  C   UNL     1       2.233   2.735  21.634  0.00  0.00    +0.000 C 
ATOM     10  O   UNL     1       1.127   2.762  20.736  0.00  0.00    +0.000 OA
ENDBRANCH   8  10
ENDBRANCH   7   8
ENDBRANCH   6   7
ENDBRANCH   1   6
BRANCH   4  11
ATOM     11  C   UNL     1       6.058   6.652  17.049  0.00  0.00    +0.000 C 
BRANCH  11  12
ATOM     12  C   UNL     1       7.198   7.441  17.619  0.00  0.00    +0.000 A 
ATOM     13  C   UNL     1       7.445   8.827  17.374  0.00  0.00    +0.000 A 
ATOM     14  C   UNL     1       8.449   9.211  18.229  0.00  0.00    +0.000 A 
ATOM     15  O   UNL     1       8.870   8.151  18.962  0.00  0.00    +0.000 OA
ATOM     16  C   UNL     1       8.111   7.086  18.593  0.00  0.00    +0.000 A 
ENDBRANCH  11  12
ENDBRANCH   4  11
BRANCH   5  17
ATOM     17  C   UNL     1       3.333   6.970  17.712  0.00  0.00    +0.000 C 
BRANCH  17  18
ATOM     18  C   UNL     1       2.396   7.815  18.535  0.00  0.00    +0.000 A 
ATOM     19  C   UNL     1       2.107   7.589  19.879  0.00  0.00    +0.000 A 
ATOM     20  C   UNL     1       1.271   8.468  20.563  0.00  0.00    +0.000 A 
ATOM     21  C   UNL     1       0.771   9.569  19.885  0.00  0.00    +0.000 A 
ATOM     22  N   UNL     1       1.044   9.840  18.595  0.00  0.00    +0.000 NA
ATOM     23  C   UNL     1       1.847   8.960  17.955  0.00  0.00    +0.000 A 
ENDBRANCH  17  18
ENDBRANCH   5  17
TORSDOF 8
ENDMDL
MODEL 5
REMARK VINA RESULT:      -6.4      0.654      1.051
REMARK  Name = 
REMARK  9 active torsions:
REMARK  status: ('A' for Active; 'I' for Inactive)
REMARK    1  A    between atoms: C_1  and  O_2
REMARK    2  A    between atoms: O_2  and  C_3
REMARK    3  A    between atoms: C_3  and  C_4
REMARK    4  A    between atoms: C_4  and  O_5
REMARK    5  A    between atoms: O_5  and  C_6
REMARK    6  A    between atoms: N_9  and  C_10
REMARK    7  A    between atoms: C_10  and  C_11
REMARK    8  A    between atoms: C_16  and  C_17
REMARK    9  A    between atoms: C_17  and  C_18
REMARK                            x       y       z     vdW  Elec       q    Type
REMARK                         _______ _______ _______ _____ _____    ______ ____
ROOT
ATOM      1  C   UNL     1       3.763   5.047  19.870  0.00  0.00    +0.000 C 
ATOM      2  C   UNL     1       4.270   3.863  19.066  0.00  0.00    +0.000 C 
ATOM      3  C   UNL     1       5.444   4.438  18.298  0.00  0.00    +0.000 C 
ATOM      4  N   UNL     1       5.114   5.837  17.984  0.00  0.00    +0.000 NA
ATOM      5  C   UNL     1       3.990   6.253  18.904  0.00  0.00    +0.000 C 
ENDROOT
BRANCH   1   6
ATOM      6  O   UNL     1       2.421   4.900  20.311  0.00  0.00    +0.000 OA
BRANCH   6   7
ATOM      7  C   UNL     1       2.177   4.002  21.395  0.00  0.00    +0.000 C 
BRANCH   7   8
ATOM      8  C   UNL     1       1.393   2.733  21.047  0.00  0.00    +0.000 C 
BRANCH   8  10
ATOM      9  C   UNL     1       0.934   2.281  18.760  0.00  0.00    +0.000 C 
ATOM     10  O   UNL     1       0.556   3.014  19.922  0.00  0.00    +0.000 OA
ENDBRANCH   8  10
ENDBRANCH   7   8
ENDBRANCH   6   7
ENDBRANCH   1   6
BRANCH   4  11
ATOM     11  C   UNL     1       4.870   6.059  16.553  0.00  0.00    +0.000 C 
BRANCH  11  12
ATOM     12  C   UNL     1       5.794   5.308  15.642  0.00  0.00    +0.000 A 
ATOM     13  C   UNL     1       5.382   4.465  14.564  0.00  0.00    +0.000 A 
ATOM     14  C   UNL     1       6.515   4.135  13.861  0.00  0.00    +0.000 A 
ATOM     15  O   UNL     1       7.607   4.682  14.450  0.00  0.00    +0.000 OA
ATOM     16  C   UNL     1       7.167   5.391  15.522  0.00  0.00    +0.000 A 
ENDBRANCH  11  12
ENDBRANCH   4  11
BRANCH   5  17
ATOM     17  C   UNL     1       2.722   6.833  18.211  0.00  0.00    +0.000 C 
BRANCH  17  18
ATOM     18  C   UNL     1       2.018   8.051  18.749  0.00  0.00    +0.000 A 
ATOM     19  C   UNL     1       1.607   8.203  20.072  0.00  0.00    +0.000 A 
ATOM     20  C   UNL     1       1.016   9.398  20.478  0.00  0.00    +0.000 A 
ATOM     21  C   UNL     1       0.884  10.420  19.552  0.00  0.00    +0.000 A 
ATOM     22  N   UNL     1       1.289  10.326  18.271  0.00  0.00    +0.000 NA
ATOM     23  C   UNL     1       1.845   9.149  17.904  0.00  0.00    +0.000 A 
ENDBRANCH  17  18
ENDBRANCH   5  17
TORSDOF 8
ENDMDL
MODEL 6
REMARK VINA RESULT:      -6.3      3.175      7.301
REMARK  Name = 
REMARK  9 active torsions:
REMARK  status: ('A' for Active; 'I' for Inactive)
REMARK    1  A    between atoms: C_1  and  O_2
REMARK    2  A    between atoms: O_2  and  C_3
REMARK    3  A    between atoms: C_3  and  C_4
REMARK    4  A    between atoms: C_4  and  O_5
REMARK    5  A    between atoms: O_5  and  C_6
REMARK    6  A    between atoms: N_9  and  C_10
REMARK    7  A    between atoms: C_10  and  C_11
REMARK    8  A    between atoms: C_16  and  C_17
REMARK    9  A    between atoms: C_17  and  C_18
REMARK                            x       y       z     vdW  Elec       q    Type
REMARK                         _______ _______ _______ _____ _____    ______ ____
ROOT
ATOM      1  C   UNL     1       6.230   5.486  18.311  0.00  0.00    +0.000 C 
ATOM      2  C   UNL     1       5.094   5.430  19.317  0.00  0.00    +0.000 C 
ATOM      3  C   UNL     1       4.723   3.960  19.344  0.00  0.00    +0.000 C 
ATOM      4  N   UNL     1       4.930   3.434  17.985  0.00  0.00    +0.000 NA
ATOM      5  C   UNL     1       5.821   4.412  17.254  0.00  0.00    +0.000 C 
ENDROOT
BRANCH   1   6
ATOM      6  O   UNL     1       6.445   6.781  17.771  0.00  0.00    +0.000 OA
BRANCH   6   7
ATOM      7  C   UNL     1       7.782   7.285  17.775  0.00  0.00    +0.000 C 
BRANCH   7   8
ATOM      8  C   UNL     1       7.921   8.809  17.705  0.00  0.00    +0.000 C 
BRANCH   8  10
ATOM      9  C   UNL     1       9.157  10.612  18.637  0.00  0.00    +0.000 C 
ATOM     10  O   UNL     1       8.843   9.225  18.718  0.00  0.00    +0.000 OA
ENDBRANCH   8  10
ENDBRANCH   7   8
ENDBRANCH   6   7
ENDBRANCH   1   6
BRANCH   4  11
ATOM     11  C   UNL     1       3.673   3.099  17.305  0.00  0.00    +0.000 C 
BRANCH  11  12
ATOM     12  C   UNL     1       2.462   3.135  18.187  0.00  0.00    +0.000 A 
ATOM     13  C   UNL     1       2.040   2.076  19.050  0.00  0.00    +0.000 A 
ATOM     14  C   UNL     1       1.022   2.575  19.826  0.00  0.00    +0.000 A 
ATOM     15  O   UNL     1       0.755   3.858  19.479  0.00  0.00    +0.000 OA
ATOM     16  C   UNL     1       1.627   4.192  18.492  0.00  0.00    +0.000 A 
ENDBRANCH  11  12
ENDBRANCH   4  11
BRANCH   5  17
ATOM     17  C   UNL     1       5.275   4.949  15.899  0.00  0.00    +0.000 C 
BRANCH  17  18
ATOM     18  C   UNL     1       5.961   4.637  14.595  0.00  0.00    +0.000 A 
ATOM     19  C   UNL     1       5.477   3.740  13.645  0.00  0.00    +0.000 A 
ATOM     20  C   UNL     1       6.162   3.570  12.444  0.00  0.00    +0.000 A 
ATOM     21  C   UNL     1       7.298   4.328  12.216  0.00  0.00    +0.000 A 
ATOM     22  N   UNL     1       7.788   5.224  13.094  0.00  0.00    +0.000 NA
ATOM     23  C   UNL     1       7.109   5.356  14.256  0.00  0.00    +0.000 A 
ENDBRANCH  17  18
ENDBRANCH   5  17
TORSDOF 8
ENDMDL
MODEL 7
REMARK VINA RESULT:      -6.3      0.992      1.452
REMARK  Name = 
REMARK  9 active torsions:
REMARK  status: ('A' for Active; 'I' for Inactive)
REMARK    1  A    between atoms: C_1  and  O_2
REMARK    2  A    between atoms: O_2  and  C_3
REMARK    3  A    between atoms: C_3  and  C_4
REMARK    4  A    between atoms: C_4  and  O_5
REMARK    5  A    between atoms: O_5  and  C_6
REMARK    6  A    between atoms: N_9  and  C_10
REMARK    7  A    between atoms: C_10  and  C_11
REMARK    8  A    between atoms: C_16  and  C_17
REMARK    9  A    between atoms: C_17  and  C_18
REMARK                            x       y       z     vdW  Elec       q    Type
REMARK                         _______ _______ _______ _____ _____    ______ ____
ROOT
ATOM      1  C   UNL     1       3.077   4.155  18.831  0.00  0.00    +0.000 C 
ATOM      2  C   UNL     1       4.126   3.383  18.050  0.00  0.00    +0.000 C 
ATOM      3  C   UNL     1       5.432   3.999  18.514  0.00  0.00    +0.000 C 
ATOM      4  N   UNL     1       5.172   5.426  18.768  0.00  0.00    +0.000 NA
ATOM      5  C   UNL     1       3.677   5.596  18.898  0.00  0.00    +0.000 C 
ENDROOT
BRANCH   1   6
ATOM      6  O   UNL     1       1.781   4.091  18.255  0.00  0.00    +0.000 OA
BRANCH   6   7
ATOM      7  C   UNL     1       0.920   3.034  18.682  0.00  0.00    +0.000 C 
BRANCH   7   8
ATOM      8  C   UNL     1       1.437   2.180  19.844  0.00  0.00    +0.000 C 
BRANCH   8  10
ATOM      9  C   UNL     1       2.057   3.169  21.914  0.00  0.00    +0.000 C 
ATOM     10  O   UNL     1       0.983   2.764  21.070  0.00  0.00    +0.000 OA
ENDBRANCH   8  10
ENDBRANCH   7   8
ENDBRANCH   6   7
ENDBRANCH   1   6
BRANCH   4  11
ATOM     11  C   UNL     1       5.823   6.307  17.790  0.00  0.00    +0.000 C 
BRANCH  11  12
ATOM     12  C   UNL     1       6.247   5.625  16.525  0.00  0.00    +0.000 A 
ATOM     13  C   UNL     1       5.473   5.560  15.325  0.00  0.00    +0.000 A 
ATOM     14  C   UNL     1       6.288   5.035  14.352  0.00  0.00    +0.000 A 
ATOM     15  O   UNL     1       7.503   4.732  14.873  0.00  0.00    +0.000 OA
ATOM     16  C   UNL     1       7.474   5.092  16.183  0.00  0.00    +0.000 A 
ENDBRANCH  11  12
ENDBRANCH   4  11
BRANCH   5  17
ATOM     17  C   UNL     1       3.028   6.659  17.964  0.00  0.00    +0.000 C 
BRANCH  17  18
ATOM     18  C   UNL     1       2.302   7.856  18.519  0.00  0.00    +0.000 A 
ATOM     19  C   UNL     1       1.905   8.957  17.763  0.00  0.00    +0.000 A 
ATOM     20  C   UNL     1       1.185   9.986  18.366  0.00  0.00    +0.000 A 
ATOM     21  C   UNL     1       0.855   9.866  19.706  0.00  0.00    +0.000 A 
ATOM     22  N   UNL     1       1.196   8.810  20.469  0.00  0.00    +0.000 NA
ATOM     23  C   UNL     1       1.906   7.835  19.859  0.00  0.00    +0.000 A 
ENDBRANCH  17  18
ENDBRANCH   5  17
TORSDOF 8
ENDMDL
MODEL 8
REMARK VINA RESULT:      -6.3      1.694      5.273
REMARK  Name = 
REMARK  9 active torsions:
REMARK  status: ('A' for Active; 'I' for Inactive)
REMARK    1  A    between atoms: C_1  and  O_2
REMARK    2  A    between atoms: O_2  and  C_3
REMARK    3  A    between atoms: C_3  and  C_4
REMARK    4  A    between atoms: C_4  and  O_5
REMARK    5  A    between atoms: O_5  and  C_6
REMARK    6  A    between atoms: N_9  and  C_10
REMARK    7  A    between atoms: C_10  and  C_11
REMARK    8  A    between atoms: C_16  and  C_17
REMARK    9  A    between atoms: C_17  and  C_18
REMARK                            x       y       z     vdW  Elec       q    Type
REMARK                         _______ _______ _______ _____ _____    ______ ____
ROOT
ATOM      1  C   UNL     1       4.876   4.659  18.100  0.00  0.00    +0.000 C 
ATOM      2  C   UNL     1       4.460   3.285  18.594  0.00  0.00    +0.000 C 
ATOM      3  C   UNL     1       3.101   3.079  17.953  0.00  0.00    +0.000 C 
ATOM      4  N   UNL     1       2.448   4.397  17.885  0.00  0.00    +0.000 NA
ATOM      5  C   UNL     1       3.525   5.442  18.055  0.00  0.00    +0.000 C 
ENDROOT
BRANCH   1   6
ATOM      6  O   UNL     1       5.876   5.271  18.901  0.00  0.00    +0.000 OA
BRANCH   6   7
ATOM      7  C   UNL     1       7.193   5.363  18.356  0.00  0.00    +0.000 C 
BRANCH   7   8
ATOM      8  C   UNL     1       7.434   4.587  17.057  0.00  0.00    +0.000 C 
BRANCH   8  10
ATOM      9  C   UNL     1       6.923   4.955  14.765  0.00  0.00    +0.000 C 
ATOM     10  O   UNL     1       7.436   5.518  15.970  0.00  0.00    +0.000 OA
ENDBRANCH   8  10
ENDBRANCH   7   8
ENDBRANCH   6   7
ENDBRANCH   1   6
BRANCH   4  11
ATOM     11  C   UNL     1       1.307   4.515  18.800  0.00  0.00    +0.000 C 
BRANCH  11  12
ATOM     12  C   UNL     1       1.508   3.857  20.132  0.00  0.00    +0.000 A 
ATOM     13  C   UNL     1       1.202   2.493  20.431  0.00  0.00    +0.000 A 
ATOM     14  C   UNL     1       1.715   2.233  21.679  0.00  0.00    +0.000 A 
ATOM     15  O   UNL     1       2.285   3.351  22.192  0.00  0.00    +0.000 OA
ATOM     16  C   UNL     1       2.160   4.327  21.255  0.00  0.00    +0.000 A 
ENDBRANCH  11  12
ENDBRANCH   4  11
BRANCH   5  17
ATOM     17  C   UNL     1       3.291   6.483  19.188  0.00  0.00    +0.000 C 
BRANCH  17  18
ATOM     18  C   UNL     1       2.442   7.708  18.971  0.00  0.00    +0.000 A 
ATOM     19  C   UNL     1       1.601   8.264  19.932  0.00  0.00    +0.000 A 
ATOM     20  C   UNL     1       0.903   9.435  19.644  0.00  0.00    +0.000 A 
ATOM     21  C   UNL     1       1.092  10.033  18.409  0.00  0.00    +0.000 A 
ATOM     22  N   UNL     1       1.912   9.544  17.459  0.00  0.00    +0.000 NA
ATOM     23  C   UNL     1       2.565   8.399  17.763  0.00  0.00    +0.000 A 
ENDBRANCH  17  18
ENDBRANCH   5  17
TORSDOF 8
ENDMDL
MODEL 9
REMARK VINA RESULT:      -6.3      2.181      2.803
REMARK  Name = 
REMARK  9 active torsions:
REMARK  status: ('A' for Active; 'I' for Inactive)
REMARK    1  A    between atoms: C_1  and  O_2
REMARK    2  A    between atoms: O_2  and  C_3
REMARK    3  A    between atoms: C_3  and  C_4
REMARK    4  A    between atoms: C_4  and  O_5
REMARK    5  A    between atoms: O_5  and  C_6
REMARK    6  A    between atoms: N_9  and  C_10
REMARK    7  A    between atoms: C_10  and  C_11
REMARK    8  A    between atoms: C_16  and  C_17
REMARK    9  A    between atoms: C_17  and  C_18
REMARK                            x       y       z     vdW  Elec       q    Type
REMARK                         _______ _______ _______ _____ _____    ______ ____
ROOT
ATOM      1  C   UNL     1       3.557   4.341  18.500  0.00  0.00    +0.000 C 
ATOM      2  C   UNL     1       4.510   3.621  17.562  0.00  0.00    +0.000 C 
ATOM      3  C   UNL     1       5.855   4.242  17.884  0.00  0.00    +0.000 C 
ATOM      4  N   UNL     1       5.610   5.652  18.230  0.00  0.00    +0.000 NA
ATOM      5  C   UNL     1       4.141   5.788  18.553  0.00  0.00    +0.000 C 
ENDROOT
BRANCH   1   6
ATOM      6  O   UNL     1       2.200   4.276  18.088  0.00  0.00    +0.000 OA
BRANCH   6   7
ATOM      7  C   UNL     1       1.585   2.987  18.040  0.00  0.00    +0.000 C 
BRANCH   7   8
ATOM      8  C   UNL     1       0.631   2.659  19.194  0.00  0.00    +0.000 C 
BRANCH   8  10
ATOM      9  C   UNL     1       1.479   2.846  21.406  0.00  0.00    +0.000 C 
ATOM     10  O   UNL     1       0.927   3.534  20.286  0.00  0.00    +0.000 OA
ENDBRANCH   8  10
ENDBRANCH   7   8
ENDBRANCH   6   7
ENDBRANCH   1   6
BRANCH   4  11
ATOM     11  C   UNL     1       6.121   6.585  17.217  0.00  0.00    +0.000 C 
BRANCH  11  12
ATOM     12  C   UNL     1       7.232   7.470  17.693  0.00  0.00    +0.000 A 
ATOM     13  C   UNL     1       7.377   8.855  17.370  0.00  0.00    +0.000 A 
ATOM     14  C   UNL     1       8.392   9.344  18.157  0.00  0.00    +0.000 A 
ATOM     15  O   UNL     1       8.913   8.351  18.918  0.00  0.00    +0.000 OA
ATOM     16  C   UNL     1       8.209   7.223  18.637  0.00  0.00    +0.000 A 
ENDBRANCH  11  12
ENDBRANCH   4  11
BRANCH   5  17
ATOM     17  C   UNL     1       3.366   6.877  17.754  0.00  0.00    +0.000 C 
BRANCH  17  18
ATOM     18  C   UNL     1       2.488   7.886  18.446  0.00  0.00    +0.000 A 
ATOM     19  C   UNL     1       1.934   9.004  17.827  0.00  0.00    +0.000 A 
ATOM     20  C   UNL     1       1.086   9.843  18.546  0.00  0.00    +0.000 A 
ATOM     21  C   UNL     1       0.792   9.519  19.861  0.00  0.00    +0.000 A 
ATOM     22  N   UNL     1       1.285   8.436  20.492  0.00  0.00    +0.000 NA
ATOM     23  C   UNL     1       2.116   7.649  19.772  0.00  0.00    +0.000 A 
ENDBRANCH  17  18
ENDBRANCH   5  17
TORSDOF 8
ENDMDL
