MODEL 1
REMARK VINA RESULT:      -7.3      0.000      0.000
REMARK  Name = 
REMARK  12 active torsions:
REMARK  status: ('A' for Active; 'I' for Inactive)
REMARK    1  A    between atoms: C_1  and  C_2
REMARK    2  A    between atoms: N_11  and  C_12
REMARK    3  A    between atoms: C_12  and  C_13
REMARK    4  A    between atoms: C_13  and  N_14
REMARK    5  A    between atoms: N_14  and  C_15
REMARK    6  A    between atoms: N_14  and  C_16
REMARK    7  A    between atoms: C_18  and  C_19
REMARK    8  A    between atoms: N_21  and  C_22
REMARK    9  A    between atoms: C_22  and  C_23
REMARK   10  A    between atoms: C_23  and  N_24
REMARK   11  A    between atoms: N_24  and  C_25
REMARK   12  A    between atoms: N_24  and  C_26
REMARK                            x       y       z     vdW  Elec       q    Type
REMARK                         _______ _______ _______ _____ _____    ______ ____
ROOT
ATOM      1  C   UNL     1       8.934   5.936  13.312  0.00  0.00    +0.000 C 
ATOM      2  C   UNL     1       7.743   5.030  13.142  0.00  0.00    +0.000 A 
ATOM      3  C   UNL     1       7.548   4.376  11.912  0.00  0.00    +0.000 A 
ATOM      4  C   UNL     1       6.456   3.535  11.721  0.00  0.00    +0.000 A 
ATOM      5  C   UNL     1       5.551   3.344  12.758  0.00  0.00    +0.000 A 
ATOM      6  C   UNL     1       5.740   3.995  13.986  0.00  0.00    +0.000 A 
ATOM      7  C   UNL     1       4.829   3.806  15.022  0.00  0.00    +0.000 A 
ATOM      8  C   UNL     1       5.032   4.455  16.238  0.00  0.00    +0.000 A 
ATOM      9  C   UNL     1       4.070   4.276  17.336  0.00  0.00    +0.000 A 
ATOM     10  O   UNL     1       3.074   3.584  17.147  0.00  0.00    +0.000 OA
ATOM     11  N   UNL     1       4.366   4.921  18.537  0.00  0.00    +0.000 N 
ATOM     12  C   UNL     1       5.476   5.747  18.673  0.00  0.00    +0.000 A 
ATOM     13  C   UNL     1       6.367   5.956  17.682  0.00  0.00    +0.000 A 
ATOM     14  C   UNL     1       6.136   5.278  16.394  0.00  0.00    +0.000 A 
ATOM     15  N   UNL     1       7.035   5.469  15.389  0.00  0.00    +0.000 NA
ATOM     16  C   UNL     1       6.844   4.847  14.200  0.00  0.00    +0.000 A 
ENDROOT
BRANCH  13  17
ATOM     17  C   UNL     1       7.510   6.884  17.990  0.00  0.00    +0.000 C 
ATOM     18  O   UNL     1       8.298   6.644  18.903  0.00  0.00    +0.000 OA
ATOM     19  N   UNL     1       7.621   8.001  17.204  0.00  0.00    +0.000 N 
ATOM     20  H   UNL     1       6.941   8.127  16.454  0.00  0.00    +0.000 HD
BRANCH  19  21
ATOM     21  C   UNL     1       8.659   9.000  17.395  0.00  0.00    +0.000 C 
BRANCH  21  22
ATOM     22  C   UNL     1       8.218  10.143  18.333  0.00  0.00    +0.000 C 
BRANCH  22  23
ATOM     23  N   UNL     1       9.246  11.187  18.550  0.00  0.00    +0.000 NA
ATOM     24  C   UNL     1       8.811  12.489  18.038  0.00  0.00    +0.000 C 
ATOM     25  C   UNL     1       9.539  11.309  19.983  0.00  0.00    +0.000 C 
ENDBRANCH  22  23
ENDBRANCH  21  22
ENDBRANCH  19  21
ENDBRANCH  13  17
BRANCH  11  26
ATOM     26  C   UNL     1       3.397   4.791  19.642  0.00  0.00    +0.000 C 
BRANCH  26  27
ATOM     27  C   UNL     1       3.312   3.354  20.217  0.00  0.00    +0.000 C 
BRANCH  27  28
ATOM     28  N   UNL     1       1.946   2.822  20.428  0.00  0.00    +0.000 NA
ATOM     29  C   UNL     1       1.672   2.558  21.844  0.00  0.00    +0.000 C 
ATOM     30  C   UNL     1       0.972   3.807  19.933  0.00  0.00    +0.000 C 
ENDBRANCH  27  28
ENDBRANCH  26  27
ENDBRANCH  11  26
TORSDOF 7
ENDMDL
MODEL 2
REMARK VINA RESULT:      -7.1      1.190      1.768
REMARK  Name = 
REMARK  12 active torsions:
REMARK  status: ('A' for Active; 'I' for Inactive)
REMARK    1  A    between atoms: C_1  and  C_2
REMARK    2  A    between atoms: N_11  and  C_12
REMARK    3  A    between atoms: C_12  and  C_13
REMARK    4  A    between atoms: C_13  and  N_14
REMARK    5  A    between atoms: N_14  and  C_15
REMARK    6  A    between atoms: N_14  and  C_16
REMARK    7  A    between atoms: C_18  and  C_19
REMARK    8  A    between atoms: N_21  and  C_22
REMARK    9  A    between atoms: C_22  and  C_23
REMARK   10  A    between atoms: C_23  and  N_24
REMARK   11  A    between atoms: N_24  and  C_25
REMARK   12  A    between atoms: N_24  and  C_26
REMARK                            x       y       z     vdW  Elec       q    Type
REMARK                         _______ _______ _______ _____ _____    ______ ____
ROOT
ATOM      1  C   UNL     1       8.861   6.140  13.248  0.00  0.00    +0.000 C 
ATOM      2  C   UNL     1       7.722   5.163  13.121  0.00  0.00    +0.000 A 
ATOM      3  C   UNL     1       7.529   4.489  11.902  0.00  0.00    +0.000 A 
ATOM      4  C   UNL     1       6.484   3.583  11.750  0.00  0.00    +0.000 A 
ATOM      5  C   UNL     1       5.625   3.346  12.815  0.00  0.00    +0.000 A 
ATOM      6  C   UNL     1       5.812   4.016  14.033  0.00  0.00    +0.000 A 
ATOM      7  C   UNL     1       4.946   3.781  15.098  0.00  0.00    +0.000 A 
ATOM      8  C   UNL     1       5.147   4.451  16.303  0.00  0.00    +0.000 A 
ATOM      9  C   UNL     1       4.231   4.222  17.432  0.00  0.00    +0.000 A 
ATOM     10  O   UNL     1       3.273   3.471  17.278  0.00  0.00    +0.000 OA
ATOM     11  N   UNL     1       4.524   4.893  18.618  0.00  0.00    +0.000 N 
ATOM     12  C   UNL     1       5.586   5.785  18.715  0.00  0.00    +0.000 A 
ATOM     13  C   UNL     1       6.432   6.040  17.696  0.00  0.00    +0.000 A 
ATOM     14  C   UNL     1       6.203   5.339  16.420  0.00  0.00    +0.000 A 
ATOM     15  N   UNL     1       7.058   5.576  15.386  0.00  0.00    +0.000 NA
ATOM     16  C   UNL     1       6.869   4.935  14.208  0.00  0.00    +0.000 A 
ENDROOT
BRANCH  13  17
ATOM     17  C   UNL     1       7.526   7.037  17.963  0.00  0.00    +0.000 C 
ATOM     18  O   UNL     1       8.448   6.782  18.736  0.00  0.00    +0.000 OA
ATOM     19  N   UNL     1       7.437   8.235  17.303  0.00  0.00    +0.000 N 
ATOM     20  H   UNL     1       6.654   8.371  16.665  0.00  0.00    +0.000 HD
BRANCH  19  21
ATOM     21  C   UNL     1       8.406   9.304  17.477  0.00  0.00    +0.000 C 
BRANCH  21  22
ATOM     22  C   UNL     1       8.719   9.589  18.961  0.00  0.00    +0.000 C 
BRANCH  22  23
ATOM     23  N   UNL     1       9.189  10.966  19.234  0.00  0.00    +0.000 NA
ATOM     24  C   UNL     1       9.513  11.155  20.651  0.00  0.00    +0.000 C 
ATOM     25  C   UNL     1      10.380  11.256  18.427  0.00  0.00    +0.000 C 
ENDBRANCH  22  23
ENDBRANCH  21  22
ENDBRANCH  19  21
ENDBRANCH  13  17
BRANCH  11  26
ATOM     26  C   UNL     1       3.599   4.714  19.754  0.00  0.00    +0.000 C 
BRANCH  26  27
ATOM     27  C   UNL     1       2.306   5.560  19.631  0.00  0.00    +0.000 C 
BRANCH  27  28
ATOM     28  N   UNL     1       2.447   7.004  19.926  0.00  0.00    +0.000 NA
ATOM     29  C   UNL     1       2.409   7.820  18.708  0.00  0.00    +0.000 C 
ATOM     30  C   UNL     1       1.342   7.417  20.806  0.00  0.00    +0.000 C 
ENDBRANCH  27  28
ENDBRANCH  26  27
ENDBRANCH  11  26
TORSDOF 7
ENDMDL
MODEL 3
REMARK VINA RESULT:      -6.6      1.147      1.532
REMARK  Name = 
REMARK  12 active torsions:
REMARK  status: ('A' for Active; 'I' for Inactive)
REMARK    1  A    between atoms: C_1  and  C_2
REMARK    2  A    between atoms: N_11  and  C_12
REMARK    3  A    between atoms: C_12  and  C_13
REMARK    4  A    between atoms: C_13  and  N_14
REMARK    5  A    between atoms: N_14  and  C_15
REMARK    6  A    between atoms: N_14  and  C_16
REMARK    7  A    between atoms: C_18  and  C_19
REMARK    8  A    between atoms: N_21  and  C_22
REMARK    9  A    between atoms: C_22  and  C_23
REMARK   10  A    between atoms: C_23  and  N_24
REMARK   11  A    between atoms: N_24  and  C_25
REMARK   12  A    between atoms: N_24  and  C_26
REMARK                            x       y       z     vdW  Elec       q    Type
REMARK                         _______ _______ _______ _____ _____    ______ ____
ROOT
ATOM      1  C   UNL     1       9.015   5.905  13.506  0.00  0.00    +0.000 C 
ATOM      2  C   UNL     1       7.803   5.054  13.234  0.00  0.00    +0.000 A 
ATOM      3  C   UNL     1       7.630   4.493  11.957  0.00  0.00    +0.000 A 
ATOM      4  C   UNL     1       6.520   3.704  11.672  0.00  0.00    +0.000 A 
ATOM      5  C   UNL     1       5.574   3.474  12.662  0.00  0.00    +0.000 A 
ATOM      6  C   UNL     1       5.740   4.031  13.939  0.00  0.00    +0.000 A 
ATOM      7  C   UNL     1       4.788   3.802  14.929  0.00  0.00    +0.000 A 
ATOM      8  C   UNL     1       4.970   4.359  16.193  0.00  0.00    +0.000 A 
ATOM      9  C   UNL     1       3.965   4.136  17.245  0.00  0.00    +0.000 A 
ATOM     10  O   UNL     1       2.954   3.494  16.976  0.00  0.00    +0.000 OA
ATOM     11  N   UNL     1       4.239   4.687  18.496  0.00  0.00    +0.000 N 
ATOM     12  C   UNL     1       5.369   5.463  18.725  0.00  0.00    +0.000 A 
ATOM     13  C   UNL     1       6.300   5.710  17.782  0.00  0.00    +0.000 A 
ATOM     14  C   UNL     1       6.093   5.131  16.442  0.00  0.00    +0.000 A 
ATOM     15  N   UNL     1       7.032   5.360  15.483  0.00  0.00    +0.000 NA
ATOM     16  C   UNL     1       6.863   4.828  14.248  0.00  0.00    +0.000 A 
ENDROOT
BRANCH  13  17
ATOM     17  C   UNL     1       7.460   6.575  18.191  0.00  0.00    +0.000 C 
ATOM     18  O   UNL     1       8.314   6.169  18.977  0.00  0.00    +0.000 OA
ATOM     19  N   UNL     1       7.511   7.830  17.643  0.00  0.00    +0.000 N 
ATOM     20  H   UNL     1       6.778   8.095  16.986  0.00  0.00    +0.000 HD
BRANCH  19  21
ATOM     21  C   UNL     1       8.558   8.787  17.961  0.00  0.00    +0.000 C 
BRANCH  21  22
ATOM     22  C   UNL     1       8.090  10.251  17.818  0.00  0.00    +0.000 C 
BRANCH  22  23
ATOM     23  N   UNL     1       9.165  11.256  17.982  0.00  0.00    +0.000 NA
ATOM     24  C   UNL     1       8.655  12.622  17.835  0.00  0.00    +0.000 C 
ATOM     25  C   UNL     1       9.782  11.114  19.306  0.00  0.00    +0.000 C 
ENDBRANCH  22  23
ENDBRANCH  21  22
ENDBRANCH  19  21
ENDBRANCH  13  17
BRANCH  11  26
ATOM     26  C   UNL     1       3.229   4.514  19.557  0.00  0.00    +0.000 C 
BRANCH  26  27
ATOM     27  C   UNL     1       2.961   5.809  20.366  0.00  0.00    +0.000 C 
BRANCH  27  28
ATOM     28  N   UNL     1       1.894   6.692  19.841  0.00  0.00    +0.000 NA
ATOM     29  C   UNL     1       1.371   7.594  20.871  0.00  0.00    +0.000 C 
ATOM     30  C   UNL     1       2.446   7.498  18.741  0.00  0.00    +0.000 C 
ENDBRANCH  27  28
ENDBRANCH  26  27
ENDBRANCH  11  26
TORSDOF 7
ENDMDL
MODEL 4
REMARK VINA RESULT:      -6.5      3.200      8.019
REMARK  Name = 
REMARK  12 active torsions:
REMARK  status: ('A' for Active; 'I' for Inactive)
REMARK    1  A    between atoms: C_1  and  C_2
REMARK    2  A    between atoms: N_11  and  C_12
REMARK    3  A    between atoms: C_12  and  C_13
REMARK    4  A    between atoms: C_13  and  N_14
REMARK    5  A    between atoms: N_14  and  C_15
REMARK    6  A    between atoms: N_14  and  C_16
REMARK    7  A    between atoms: C_18  and  C_19
REMARK    8  A    between atoms: N_21  and  C_22
REMARK    9  A    between atoms: C_22  and  C_23
REMARK   10  A    between atoms: C_23  and  N_24
REMARK   11  A    between atoms: N_24  and  C_25
REMARK   12  A    between atoms: N_24  and  C_26
REMARK                            x       y       z     vdW  Elec       q    Type
REMARK                         _______ _______ _______ _____ _____    ______ ____
ROOT
ATOM      1  C   UNL     1       1.147   7.108  21.284  0.00  0.00    +0.000 C 
ATOM      2  C   UNL     1       1.468   7.976  20.096  0.00  0.00    +0.000 A 
ATOM      3  C   UNL     1       0.822   9.217  19.958  0.00  0.00    +0.000 A 
ATOM      4  C   UNL     1       1.093  10.042  18.871  0.00  0.00    +0.000 A 
ATOM      5  C   UNL     1       2.010   9.629  17.913  0.00  0.00    +0.000 A 
ATOM      6  C   UNL     1       2.658   8.392  18.044  0.00  0.00    +0.000 A 
ATOM      7  C   UNL     1       3.574   7.978  17.081  0.00  0.00    +0.000 A 
ATOM      8  C   UNL     1       4.212   6.749  17.228  0.00  0.00    +0.000 A 
ATOM      9  C   UNL     1       5.172   6.293  16.210  0.00  0.00    +0.000 A 
ATOM     10  O   UNL     1       5.365   6.992  15.219  0.00  0.00    +0.000 OA
ATOM     11  N   UNL     1       5.804   5.074  16.449  0.00  0.00    +0.000 N 
ATOM     12  C   UNL     1       5.497   4.293  17.557  0.00  0.00    +0.000 A 
ATOM     13  C   UNL     1       4.606   4.664  18.499  0.00  0.00    +0.000 A 
ATOM     14  C   UNL     1       3.923   5.959  18.328  0.00  0.00    +0.000 A 
ATOM     15  N   UNL     1       3.031   6.353  19.279  0.00  0.00    +0.000 NA
ATOM     16  C   UNL     1       2.400   7.544  19.143  0.00  0.00    +0.000 A 
ENDROOT
BRANCH  13  17
ATOM     17  C   UNL     1       4.384   3.700  19.632  0.00  0.00    +0.000 C 
ATOM     18  O   UNL     1       5.189   2.803  19.875  0.00  0.00    +0.000 OA
ATOM     19  N   UNL     1       3.243   3.877  20.372  0.00  0.00    +0.000 N 
ATOM     20  H   UNL     1       2.629   4.653  20.124  0.00  0.00    +0.000 HD
BRANCH  19  21
ATOM     21  C   UNL     1       2.881   3.012  21.482  0.00  0.00    +0.000 C 
BRANCH  21  22
ATOM     22  C   UNL     1       1.379   2.661  21.498  0.00  0.00    +0.000 C 
BRANCH  22  23
ATOM     23  N   UNL     1       0.763   2.545  20.156  0.00  0.00    +0.000 NA
ATOM     24  C   UNL     1       0.591   3.856  19.525  0.00  0.00    +0.000 C 
ATOM     25  C   UNL     1       1.603   1.704  19.293  0.00  0.00    +0.000 C 
ENDBRANCH  22  23
ENDBRANCH  21  22
ENDBRANCH  19  21
ENDBRANCH  13  17
BRANCH  11  26
ATOM     26  C   UNL     1       6.741   4.574  15.425  0.00  0.00    +0.000 C 
BRANCH  26  27
ATOM     27  C   UNL     1       6.064   3.668  14.364  0.00  0.00    +0.000 C 
BRANCH  27  28
ATOM     28  N   UNL     1       6.159   4.133  12.961  0.00  0.00    +0.000 NA
ATOM     29  C   UNL     1       7.451   4.765  12.678  0.00  0.00    +0.000 C 
ATOM     30  C   UNL     1       5.992   2.976  12.068  0.00  0.00    +0.000 C 
ENDBRANCH  27  28
ENDBRANCH  26  27
ENDBRANCH  11  26
TORSDOF 7
ENDMDL
MODEL 5
REMARK VINA RESULT:      -6.4      0.997      1.358
REMARK  Name = 
REMARK  12 active torsions:
REMARK  status: ('A' for Active; 'I' for Inactive)
REMARK    1  A    between atoms: C_1  and  C_2
REMARK    2  A    between atoms: N_11  and  C_12
REMARK    3  A    between atoms: C_12  and  C_13
REMARK    4  A    between atoms: C_13  and  N_14
REMARK    5  A    between atoms: N_14  and  C_15
REMARK    6  A    between atoms: N_14  and  C_16
REMARK    7  A    between atoms: C_18  and  C_19
REMARK    8  A    between atoms: N_21  and  C_22
REMARK    9  A    between atoms: C_22  and  C_23
REMARK   10  A    between atoms: C_23  and  N_24
REMARK   11  A    between atoms: N_24  and  C_25
REMARK   12  A    between atoms: N_24  and  C_26
REMARK                            x       y       z     vdW  Elec       q    Type
REMARK                         _______ _______ _______ _____ _____    ______ ____
ROOT
ATOM      1  C   UNL     1       9.019   6.119  13.676  0.00  0.00    +0.000 C 
ATOM      2  C   UNL     1       7.871   5.209  13.326  0.00  0.00    +0.000 A 
ATOM      3  C   UNL     1       7.711   4.786  11.994  0.00  0.00    +0.000 A 
ATOM      4  C   UNL     1       6.659   3.948  11.637  0.00  0.00    +0.000 A 
ATOM      5  C   UNL     1       5.759   3.530  12.608  0.00  0.00    +0.000 A 
ATOM      6  C   UNL     1       5.912   3.949  13.938  0.00  0.00    +0.000 A 
ATOM      7  C   UNL     1       5.006   3.532  14.909  0.00  0.00    +0.000 A 
ATOM      8  C   UNL     1       5.174   3.953  16.227  0.00  0.00    +0.000 A 
ATOM      9  C   UNL     1       4.216   3.531  17.260  0.00  0.00    +0.000 A 
ATOM     10  O   UNL     1       3.253   2.844  16.934  0.00  0.00    +0.000 OA
ATOM     11  N   UNL     1       4.476   3.955  18.563  0.00  0.00    +0.000 N 
ATOM     12  C   UNL     1       5.547   4.789  18.864  0.00  0.00    +0.000 A 
ATOM     13  C   UNL     1       6.432   5.217  17.941  0.00  0.00    +0.000 A 
ATOM     14  C   UNL     1       6.239   4.780  16.547  0.00  0.00    +0.000 A 
ATOM     15  N   UNL     1       7.133   5.193  15.606  0.00  0.00    +0.000 NA
ATOM     16  C   UNL     1       6.976   4.794  14.320  0.00  0.00    +0.000 A 
ENDROOT
BRANCH  13  17
ATOM     17  C   UNL     1       7.531   6.120  18.430  0.00  0.00    +0.000 C 
ATOM     18  O   UNL     1       8.348   5.738  19.265  0.00  0.00    +0.000 OA
ATOM     19  N   UNL     1       7.568   7.383  17.897  0.00  0.00    +0.000 N 
ATOM     20  H   UNL     1       6.868   7.626  17.196  0.00  0.00    +0.000 HD
BRANCH  19  21
ATOM     21  C   UNL     1       8.555   8.375  18.288  0.00  0.00    +0.000 C 
BRANCH  21  22
ATOM     22  C   UNL     1       8.189   9.798  17.816  0.00  0.00    +0.000 C 
BRANCH  22  23
ATOM     23  N   UNL     1       8.882  10.882  18.549  0.00  0.00    +0.000 NA
ATOM     24  C   UNL     1       9.332  10.439  19.872  0.00  0.00    +0.000 C 
ATOM     25  C   UNL     1      10.042  11.344  17.777  0.00  0.00    +0.000 C 
ENDBRANCH  22  23
ENDBRANCH  21  22
ENDBRANCH  19  21
ENDBRANCH  13  17
BRANCH  11  26
ATOM     26  C   UNL     1       3.509   3.581  19.612  0.00  0.00    +0.000 C 
BRANCH  26  27
ATOM     27  C   UNL     1       3.341   4.666  20.707  0.00  0.00    +0.000 C 
BRANCH  27  28
ATOM     28  N   UNL     1       2.041   5.376  20.720  0.00  0.00    +0.000 NA
ATOM     29  C   UNL     1       2.063   6.578  19.881  0.00  0.00    +0.000 C 
ATOM     30  C   UNL     1       1.001   4.466  20.216  0.00  0.00    +0.000 C 
ENDBRANCH  27  28
ENDBRANCH  26  27
ENDBRANCH  11  26
TORSDOF 7
ENDMDL
MODEL 6
REMARK VINA RESULT:      -6.2      0.970      1.303
REMARK  Name = 
REMARK  12 active torsions:
REMARK  status: ('A' for Active; 'I' for Inactive)
REMARK    1  A    between atoms: C_1  and  C_2
REMARK    2  A    between atoms: N_11  and  C_12
REMARK    3  A    between atoms: C_12  and  C_13
REMARK    4  A    between atoms: C_13  and  N_14
REMARK    5  A    between atoms: N_14  and  C_15
REMARK    6  A    between atoms: N_14  and  C_16
REMARK    7  A    between atoms: C_18  and  C_19
REMARK    8  A    between atoms: N_21  and  C_22
REMARK    9  A    between atoms: C_22  and  C_23
REMARK   10  A    between atoms: C_23  and  N_24
REMARK   11  A    between atoms: N_24  and  C_25
REMARK   12  A    between atoms: N_24  and  C_26
REMARK                            x       y       z     vdW  Elec       q    Type
REMARK                         _______ _______ _______ _____ _____    ______ ____
ROOT
ATOM      1  C   UNL     1       8.697   6.125  12.775  0.00  0.00    +0.000 C 
ATOM      2  C   UNL     1       7.657   5.038  12.833  0.00  0.00    +0.000 A 
ATOM      3  C   UNL     1       7.413   4.258  11.688  0.00  0.00    +0.000 A 
ATOM      4  C   UNL     1       6.456   3.249  11.707  0.00  0.00    +0.000 A 
ATOM      5  C   UNL     1       5.734   3.014  12.870  0.00  0.00    +0.000 A 
ATOM      6  C   UNL     1       5.971   3.789  14.015  0.00  0.00    +0.000 A 
ATOM      7  C   UNL     1       5.243   3.554  15.179  0.00  0.00    +0.000 A 
ATOM      8  C   UNL     1       5.493   4.329  16.309  0.00  0.00    +0.000 A 
ATOM      9  C   UNL     1       4.722   4.101  17.541  0.00  0.00    +0.000 A 
ATOM     10  O   UNL     1       3.834   3.254  17.539  0.00  0.00    +0.000 OA
ATOM     11  N   UNL     1       5.061   4.885  18.643  0.00  0.00    +0.000 N 
ATOM     12  C   UNL     1       6.031   5.878  18.568  0.00  0.00    +0.000 A 
ATOM     13  C   UNL     1       6.742   6.133  17.451  0.00  0.00    +0.000 A 
ATOM     14  C   UNL     1       6.461   5.320  16.255  0.00  0.00    +0.000 A 
ATOM     15  N   UNL     1       7.181   5.557  15.124  0.00  0.00    +0.000 NA
ATOM     16  C   UNL     1       6.942   4.813  14.017  0.00  0.00    +0.000 A 
ENDROOT
BRANCH  13  17
ATOM     17  C   UNL     1       7.751   7.246  17.535  0.00  0.00    +0.000 C 
ATOM     18  O   UNL     1       8.329   7.661  16.532  0.00  0.00    +0.000 OA
ATOM     19  N   UNL     1       7.987   7.765  18.781  0.00  0.00    +0.000 N 
ATOM     20  H   UNL     1       7.459   7.384  19.566  0.00  0.00    +0.000 HD
BRANCH  19  21
ATOM     21  C   UNL     1       8.949   8.827  19.024  0.00  0.00    +0.000 C 
BRANCH  21  22
ATOM     22  C   UNL     1       8.602  10.128  18.271  0.00  0.00    +0.000 C 
BRANCH  22  23
ATOM     23  N   UNL     1       9.163  11.356  18.880  0.00  0.00    +0.000 NA
ATOM     24  C   UNL     1      10.602  11.225  19.131  0.00  0.00    +0.000 C 
ATOM     25  C   UNL     1       8.933  12.503  17.995  0.00  0.00    +0.000 C 
ENDBRANCH  22  23
ENDBRANCH  21  22
ENDBRANCH  19  21
ENDBRANCH  13  17
BRANCH  11  26
ATOM     26  C   UNL     1       4.276   4.706  19.879  0.00  0.00    +0.000 C 
BRANCH  26  27
ATOM     27  C   UNL     1       2.894   5.407  19.835  0.00  0.00    +0.000 C 
BRANCH  27  28
ATOM     28  N   UNL     1       1.773   4.668  20.461  0.00  0.00    +0.000 NA
ATOM     29  C   UNL     1       1.076   3.810  19.498  0.00  0.00    +0.000 C 
ATOM     30  C   UNL     1       2.306   3.828  21.544  0.00  0.00    +0.000 C 
ENDBRANCH  27  28
ENDBRANCH  26  27
ENDBRANCH  11  26
TORSDOF 7
ENDMDL
MODEL 7
REMARK VINA RESULT:      -6.1      7.535      9.252
REMARK  Name = 
REMARK  12 active torsions:
REMARK  status: ('A' for Active; 'I' for Inactive)
REMARK    1  A    between atoms: C_1  and  C_2
REMARK    2  A    between atoms: N_11  and  C_12
REMARK    3  A    between atoms: C_12  and  C_13
REMARK    4  A    between atoms: C_13  and  N_14
REMARK    5  A    between atoms: N_14  and  C_15
REMARK    6  A    between atoms: N_14  and  C_16
REMARK    7  A    between atoms: C_18  and  C_19
REMARK    8  A    between atoms: N_21  and  C_22
REMARK    9  A    between atoms: C_22  and  C_23
REMARK   10  A    between atoms: C_23  and  N_24
REMARK   11  A    between atoms: N_24  and  C_25
REMARK   12  A    between atoms: N_24  and  C_26
REMARK                            x       y       z     vdW  Elec       q    Type
REMARK                         _______ _______ _______ _____ _____    ______ ____
ROOT
ATOM      1  C   UNL     1       2.919   8.447  17.487  0.00  0.00    +0.000 C 
ATOM      2  C   UNL     1       2.389   7.774  18.725  0.00  0.00    +0.000 A 
ATOM      3  C   UNL     1       2.640   6.405  18.924  0.00  0.00    +0.000 A 
ATOM      4  C   UNL     1       2.162   5.752  20.056  0.00  0.00    +0.000 A 
ATOM      5  C   UNL     1       1.427   6.464  20.995  0.00  0.00    +0.000 A 
ATOM      6  C   UNL     1       1.173   7.830  20.802  0.00  0.00    +0.000 A 
ATOM      7  C   UNL     1       0.432   8.540  21.744  0.00  0.00    +0.000 A 
ATOM      8  C   UNL     1       0.191   9.897  21.540  0.00  0.00    +0.000 A 
ATOM      9  C   UNL     1      -0.602  10.657  22.519  0.00  0.00    +0.000 A 
ATOM     10  O   UNL     1      -1.078  10.068  23.486  0.00  0.00    +0.000 OA
ATOM     11  N   UNL     1      -0.762  12.020  22.271  0.00  0.00    +0.000 N 
ATOM     12  C   UNL     1      -0.257  12.621  21.124  0.00  0.00    +0.000 A 
ATOM     13  C   UNL     1       0.454  11.954  20.191  0.00  0.00    +0.000 A 
ATOM     14  C   UNL     1       0.691  10.515  20.405  0.00  0.00    +0.000 A 
ATOM     15  N   UNL     1       1.419   9.832  19.480  0.00  0.00    +0.000 NA
ATOM     16  C   UNL     1       1.654   8.510  19.664  0.00  0.00    +0.000 A 
ENDROOT
BRANCH  13  17
ATOM     17  C   UNL     1       0.923  12.751  19.005  0.00  0.00    +0.000 C 
ATOM     18  O   UNL     1       0.140  13.116  18.130  0.00  0.00    +0.000 OA
ATOM     19  N   UNL     1       2.261  13.044  18.955  0.00  0.00    +0.000 N 
ATOM     20  H   UNL     1       2.849  12.723  19.724  0.00  0.00    +0.000 HD
BRANCH  19  21
ATOM     21  C   UNL     1       2.866  13.785  17.861  0.00  0.00    +0.000 C 
BRANCH  21  22
ATOM     22  C   UNL     1       4.148  14.532  18.285  0.00  0.00    +0.000 C 
BRANCH  22  23
ATOM     23  N   UNL     1       3.918  15.904  18.791  0.00  0.00    +0.000 NA
ATOM     24  C   UNL     1       5.156  16.688  18.808  0.00  0.00    +0.000 C 
ATOM     25  C   UNL     1       2.929  16.587  17.949  0.00  0.00    +0.000 C 
ENDBRANCH  22  23
ENDBRANCH  21  22
ENDBRANCH  19  21
ENDBRANCH  13  17
BRANCH  11  26
ATOM     26  C   UNL     1      -1.587  12.797  23.215  0.00  0.00    +0.000 C 
BRANCH  26  27
ATOM     27  C   UNL     1      -3.101  12.751  22.888  0.00  0.00    +0.000 C 
BRANCH  27  28
ATOM     28  N   UNL     1      -4.000  13.356  23.898  0.00  0.00    +0.000 NA
ATOM     29  C   UNL     1      -4.585  12.348  24.787  0.00  0.00    +0.000 C 
ATOM     30  C   UNL     1      -3.227  14.311  24.707  0.00  0.00    +0.000 C 
ENDBRANCH  27  28
ENDBRANCH  26  27
ENDBRANCH  11  26
TORSDOF 7
ENDMDL
MODEL 8
REMARK VINA RESULT:      -6.1      3.821      7.231
REMARK  Name = 
REMARK  12 active torsions:
REMARK  status: ('A' for Active; 'I' for Inactive)
REMARK    1  A    between atoms: C_1  and  C_2
REMARK    2  A    between atoms: N_11  and  C_12
REMARK    3  A    between atoms: C_12  and  C_13
REMARK    4  A    between atoms: C_13  and  N_14
REMARK    5  A    between atoms: N_14  and  C_15
REMARK    6  A    between atoms: N_14  and  C_16
REMARK    7  A    between atoms: C_18  and  C_19
REMARK    8  A    between atoms: N_21  and  C_22
REMARK    9  A    between atoms: C_22  and  C_23
REMARK   10  A    between atoms: C_23  and  N_24
REMARK   11  A    between atoms: N_24  and  C_25
REMARK   12  A    between atoms: N_24  and  C_26
REMARK                            x       y       z     vdW  Elec       q    Type
REMARK                         _______ _______ _______ _____ _____    ______ ____
ROOT
ATOM      1  C   UNL     1       4.550   2.169  18.790  0.00  0.00    +0.000 C 
ATOM      2  C   UNL     1       3.557   2.749  19.762  0.00  0.00    +0.000 A 
ATOM      3  C   UNL     1       3.033   1.931  20.779  0.00  0.00    +0.000 A 
ATOM      4  C   UNL     1       2.111   2.435  21.691  0.00  0.00    +0.000 A 
ATOM      5  C   UNL     1       1.704   3.759  21.590  0.00  0.00    +0.000 A 
ATOM      6  C   UNL     1       2.222   4.580  20.577  0.00  0.00    +0.000 A 
ATOM      7  C   UNL     1       1.810   5.906  20.476  0.00  0.00    +0.000 A 
ATOM      8  C   UNL     1       2.337   6.710  19.467  0.00  0.00    +0.000 A 
ATOM      9  C   UNL     1       1.899   8.109  19.340  0.00  0.00    +0.000 A 
ATOM     10  O   UNL     1       1.039   8.536  20.104  0.00  0.00    +0.000 OA
ATOM     11  N   UNL     1       2.505   8.863  18.336  0.00  0.00    +0.000 N 
ATOM     12  C   UNL     1       3.426   8.308  17.454  0.00  0.00    +0.000 A 
ATOM     13  C   UNL     1       3.833   7.025  17.523  0.00  0.00    +0.000 A 
ATOM     14  C   UNL     1       3.260   6.176  18.583  0.00  0.00    +0.000 A 
ATOM     15  N   UNL     1       3.673   4.882  18.674  0.00  0.00    +0.000 NA
ATOM     16  C   UNL     1       3.163   4.089  19.647  0.00  0.00    +0.000 A 
ENDROOT
BRANCH  13  17
ATOM     17  C   UNL     1       4.831   6.579  16.490  0.00  0.00    +0.000 C 
ATOM     18  O   UNL     1       4.863   7.089  15.371  0.00  0.00    +0.000 OA
ATOM     19  N   UNL     1       5.694   5.581  16.862  0.00  0.00    +0.000 N 
ATOM     20  H   UNL     1       5.621   5.216  17.812  0.00  0.00    +0.000 HD
BRANCH  19  21
ATOM     21  C   UNL     1       6.696   5.030  15.966  0.00  0.00    +0.000 C 
BRANCH  21  22
ATOM     22  C   UNL     1       6.100   4.044  14.939  0.00  0.00    +0.000 C 
BRANCH  22  23
ATOM     23  N   UNL     1       6.233   4.475  13.529  0.00  0.00    +0.000 NA
ATOM     24  C   UNL     1       7.558   5.040  13.259  0.00  0.00    +0.000 C 
ATOM     25  C   UNL     1       6.008   3.333  12.635  0.00  0.00    +0.000 C 
ENDBRANCH  22  23
ENDBRANCH  21  22
ENDBRANCH  19  21
ENDBRANCH  13  17
BRANCH  11  26
ATOM     26  C   UNL     1       2.056  10.257  18.159  0.00  0.00    +0.000 C 
BRANCH  26  27
ATOM     27  C   UNL     1       0.514  10.417  18.217  0.00  0.00    +0.000 C 
BRANCH  27  28
ATOM     28  N   UNL     1       0.017  11.737  18.668  0.00  0.00    +0.000 NA
ATOM     29  C   UNL     1      -1.274  12.075  18.062  0.00  0.00    +0.000 C 
ATOM     30  C   UNL     1      -0.140  11.708  20.131  0.00  0.00    +0.000 C 
ENDBRANCH  27  28
ENDBRANCH  26  27
ENDBRANCH  11  26
TORSDOF 7
ENDMDL
MODEL 9
REMARK VINA RESULT:      -5.9      8.850     12.259
REMARK  Name = 
REMARK  12 active torsions:
REMARK  status: ('A' for Active; 'I' for Inactive)
REMARK    1  A    between atoms: C_1  and  C_2
REMARK    2  A    between atoms: N_11  and  C_12
REMARK    3  A    between atoms: C_12  and  C_13
REMARK    4  A    between atoms: C_13  and  N_14
REMARK    5  A    between atoms: N_14  and  C_15
REMARK    6  A    between atoms: N_14  and  C_16
REMARK    7  A    between atoms: C_18  and  C_19
REMARK    8  A    between atoms: N_21  and  C_22
REMARK    9  A    between atoms: C_22  and  C_23
REMARK   10  A    between atoms: C_23  and  N_24
REMARK   11  A    between atoms: N_24  and  C_25
REMARK   12  A    between atoms: N_24  and  C_26
REMARK                            x       y       z     vdW  Elec       q    Type
REMARK                         _______ _______ _______ _____ _____    ______ ____
ROOT
ATOM      1  C   UNL     1      -4.734  14.246  20.606  0.00  0.00    +0.000 C 
ATOM      2  C   UNL     1      -4.187  13.704  21.900  0.00  0.00    +0.000 A 
ATOM      3  C   UNL     1      -4.739  14.143  23.117  0.00  0.00    +0.000 A 
ATOM      4  C   UNL     1      -4.255  13.665  24.330  0.00  0.00    +0.000 A 
ATOM      5  C   UNL     1      -3.213  12.746  24.336  0.00  0.00    +0.000 A 
ATOM      6  C   UNL     1      -2.657  12.305  23.126  0.00  0.00    +0.000 A 
ATOM      7  C   UNL     1      -1.610  11.387  23.134  0.00  0.00    +0.000 A 
ATOM      8  C   UNL     1      -1.071  10.955  21.924  0.00  0.00    +0.000 A 
ATOM      9  C   UNL     1       0.046   9.997  21.918  0.00  0.00    +0.000 A 
ATOM     10  O   UNL     1       0.515   9.623  22.988  0.00  0.00    +0.000 OA
ATOM     11  N   UNL     1       0.500   9.576  20.668  0.00  0.00    +0.000 N 
ATOM     12  C   UNL     1      -0.025  10.085  19.486  0.00  0.00    +0.000 A 
ATOM     13  C   UNL     1      -1.031  10.983  19.450  0.00  0.00    +0.000 A 
ATOM     14  C   UNL     1      -1.585  11.447  20.735  0.00  0.00    +0.000 A 
ATOM     15  N   UNL     1      -2.611  12.342  20.714  0.00  0.00    +0.000 NA
ATOM     16  C   UNL     1      -3.139  12.774  21.885  0.00  0.00    +0.000 A 
ENDROOT
BRANCH  13  17
ATOM     17  C   UNL     1      -1.480  11.437  18.089  0.00  0.00    +0.000 C 
ATOM     18  O   UNL     1      -1.136  12.526  17.633  0.00  0.00    +0.000 OA
ATOM     19  N   UNL     1      -2.288  10.576  17.392  0.00  0.00    +0.000 N 
ATOM     20  H   UNL     1      -2.520   9.683  17.825  0.00  0.00    +0.000 HD
BRANCH  19  21
ATOM     21  C   UNL     1      -2.820  10.886  16.075  0.00  0.00    +0.000 C 
BRANCH  21  22
ATOM     22  C   UNL     1      -4.347  11.109  16.087  0.00  0.00    +0.000 C 
BRANCH  22  23
ATOM     23  N   UNL     1      -4.859  11.764  17.312  0.00  0.00    +0.000 NA
ATOM     24  C   UNL     1      -5.907  12.743  17.004  0.00  0.00    +0.000 C 
ATOM     25  C   UNL     1      -5.402  10.754  18.229  0.00  0.00    +0.000 C 
ENDBRANCH  22  23
ENDBRANCH  21  22
ENDBRANCH  19  21
ENDBRANCH  13  17
BRANCH  11  26
ATOM     26  C   UNL     1       1.645   8.647  20.632  0.00  0.00    +0.000 C 
BRANCH  26  27
ATOM     27  C   UNL     1       2.071   8.253  19.195  0.00  0.00    +0.000 C 
BRANCH  27  28
ATOM     28  N   UNL     1       2.196   6.801  18.931  0.00  0.00    +0.000 NA
ATOM     29  C   UNL     1       3.420   6.480  18.191  0.00  0.00    +0.000 C 
ATOM     30  C   UNL     1       2.220   6.088  20.218  0.00  0.00    +0.000 C 
ENDBRANCH  27  28
ENDBRANCH  26  27
ENDBRANCH  11  26
TORSDOF 7
ENDMDL
