MODEL 1
REMARK VINA RESULT:      -7.3      0.000      0.000
REMARK  Name = 
REMARK  4 active torsions:
REMARK  status: ('A' for Active; 'I' for Inactive)
REMARK    1  A    between atoms: C_1  and  N_2
REMARK    2  A    between atoms: C_5  and  C_6
REMARK    3  A    between atoms: C_7  and  C_8
REMARK    4  A    between atoms: C_8  and  C_10
REMARK                            x       y       z     vdW  Elec       q    Type
REMARK                         _______ _______ _______ _____ _____    ______ ____
ROOT
ATOM      1  C   UNL     1       4.522   5.394  17.768  0.00  0.00    +0.000 C 
ATOM      2  C   UNL     1       3.427   6.148  17.876  0.00  0.00    +0.000 C 
ENDROOT
BRANCH   1   7
ATOM      3  C   UNL     1       7.941   4.968  13.221  0.00  0.00    +0.000 C 
ATOM      4  N   UNL     1       7.044   5.055  14.356  0.00  0.00    +0.000 N 
ATOM      5  N   UNL     1       7.480   5.793  15.424  0.00  0.00    +0.000 NA
ATOM      6  C   UNL     1       6.685   5.873  16.440  0.00  0.00    +0.000 A 
ATOM      7  C   UNL     1       5.346   5.253  16.575  0.00  0.00    +0.000 A 
ATOM      8  C   UNL     1       4.960   4.543  15.505  0.00  0.00    +0.000 A 
ATOM      9  C   UNL     1       5.820   4.404  14.307  0.00  0.00    +0.000 A 
ATOM     10  O   UNL     1       5.417   3.740  13.359  0.00  0.00    +0.000 OA
ENDBRANCH   1   7
BRANCH   2  11
ATOM     11  C   UNL     1       2.653   6.228  19.148  0.00  0.00    +0.000 C 
ATOM     12  O   UNL     1       2.407   7.298  19.683  0.00  0.00    +0.000 OA
BRANCH  11  13
ATOM     13  C   UNL     1       2.148   4.946  19.705  0.00  0.00    +0.000 A 
ATOM     14  C   UNL     1       2.385   4.643  21.051  0.00  0.00    +0.000 A 
ATOM     15  C   UNL     1       1.984   3.420  21.575  0.00  0.00    +0.000 A 
ATOM     16  C   UNL     1       1.308   2.506  20.769  0.00  0.00    +0.000 A 
ATOM     17  C   UNL     1       1.033   2.815  19.436  0.00  0.00    +0.000 A 
ATOM     18  C   UNL     1       1.449   4.037  18.899  0.00  0.00    +0.000 A 
ENDBRANCH  11  13
ENDBRANCH   2  11
TORSDOF 3
ENDMDL
MODEL 2
REMARK VINA RESULT:      -7.2      0.113      1.146
REMARK  Name = 
REMARK  4 active torsions:
REMARK  status: ('A' for Active; 'I' for Inactive)
REMARK    1  A    between atoms: C_1  and  N_2
REMARK    2  A    between atoms: C_5  and  C_6
REMARK    3  A    between atoms: C_7  and  C_8
REMARK    4  A    between atoms: C_8  and  C_10
REMARK                            x       y       z     vdW  Elec       q    Type
REMARK                         _______ _______ _______ _____ _____    ______ ____
ROOT
ATOM      1  C   UNL     1       4.642   5.465  17.795  0.00  0.00    +0.000 C 
ATOM      2  C   UNL     1       3.448   6.055  17.874  0.00  0.00    +0.000 C 
ENDROOT
BRANCH   1   7
ATOM      3  C   UNL     1       7.968   4.988  13.185  0.00  0.00    +0.000 C 
ATOM      4  N   UNL     1       7.093   5.090  14.335  0.00  0.00    +0.000 N 
ATOM      5  N   UNL     1       7.583   5.773  15.416  0.00  0.00    +0.000 NA
ATOM      6  C   UNL     1       6.808   5.866  16.447  0.00  0.00    +0.000 A 
ATOM      7  C   UNL     1       5.440   5.315  16.585  0.00  0.00    +0.000 A 
ATOM      8  C   UNL     1       5.001   4.656  15.502  0.00  0.00    +0.000 A 
ATOM      9  C   UNL     1       5.836   4.507  14.288  0.00  0.00    +0.000 A 
ATOM     10  O   UNL     1       5.385   3.892  13.328  0.00  0.00    +0.000 OA
ENDBRANCH   1   7
BRANCH   2  11
ATOM     11  C   UNL     1       2.711   6.162  19.166  0.00  0.00    +0.000 C 
ATOM     12  O   UNL     1       2.495   7.242  19.693  0.00  0.00    +0.000 OA
BRANCH  11  13
ATOM     13  C   UNL     1       2.203   4.894  19.753  0.00  0.00    +0.000 A 
ATOM     14  C   UNL     1       1.532   3.980  18.933  0.00  0.00    +0.000 A 
ATOM     15  C   UNL     1       0.987   2.822  19.475  0.00  0.00    +0.000 A 
ATOM     16  C   UNL     1       1.143   2.549  20.832  0.00  0.00    +0.000 A 
ATOM     17  C   UNL     1       1.844   3.436  21.650  0.00  0.00    +0.000 A 
ATOM     18  C   UNL     1       2.380   4.611  21.114  0.00  0.00    +0.000 A 
ENDBRANCH  11  13
ENDBRANCH   2  11
TORSDOF 3
ENDMDL
MODEL 3
REMARK VINA RESULT:      -7.2      2.879      7.215
REMARK  Name = 
REMARK  4 active torsions:
REMARK  status: ('A' for Active; 'I' for Inactive)
REMARK    1  A    between atoms: C_1  and  N_2
REMARK    2  A    between atoms: C_5  and  C_6
REMARK    3  A    between atoms: C_7  and  C_8
REMARK    4  A    between atoms: C_8  and  C_10
REMARK                            x       y       z     vdW  Elec       q    Type
REMARK                         _______ _______ _______ _____ _____    ______ ____
ROOT
ATOM      1  C   UNL     1       5.127   5.310  17.743  0.00  0.00    +0.000 C 
ATOM      2  C   UNL     1       5.952   4.640  16.937  0.00  0.00    +0.000 C 
ENDROOT
BRANCH   1   7
ATOM      3  C   UNL     1       1.813   2.786  21.641  0.00  0.00    +0.000 C 
ATOM      4  N   UNL     1       2.631   3.459  20.652  0.00  0.00    +0.000 N 
ATOM      5  N   UNL     1       3.666   2.737  20.121  0.00  0.00    +0.000 NA
ATOM      6  C   UNL     1       4.400   3.334  19.240  0.00  0.00    +0.000 A 
ATOM      7  C   UNL     1       4.241   4.719  18.737  0.00  0.00    +0.000 A 
ATOM      8  C   UNL     1       3.214   5.387  19.284  0.00  0.00    +0.000 A 
ATOM      9  C   UNL     1       2.334   4.768  20.302  0.00  0.00    +0.000 A 
ATOM     10  O   UNL     1       1.412   5.427  20.770  0.00  0.00    +0.000 OA
ENDBRANCH   1   7
BRANCH   2  11
ATOM     11  C   UNL     1       6.825   5.341  15.952  0.00  0.00    +0.000 C 
ATOM     12  O   UNL     1       7.548   6.268  16.282  0.00  0.00    +0.000 OA
BRANCH  11  13
ATOM     13  C   UNL     1       6.814   4.822  14.559  0.00  0.00    +0.000 A 
ATOM     14  C   UNL     1       7.724   5.337  13.629  0.00  0.00    +0.000 A 
ATOM     15  C   UNL     1       7.684   4.917  12.305  0.00  0.00    +0.000 A 
ATOM     16  C   UNL     1       6.762   3.951  11.909  0.00  0.00    +0.000 A 
ATOM     17  C   UNL     1       5.876   3.403  12.837  0.00  0.00    +0.000 A 
ATOM     18  C   UNL     1       5.900   3.834  14.168  0.00  0.00    +0.000 A 
ENDBRANCH  11  13
ENDBRANCH   2  11
TORSDOF 3
ENDMDL
MODEL 4
REMARK VINA RESULT:      -7.1      3.185      7.138
REMARK  Name = 
REMARK  4 active torsions:
REMARK  status: ('A' for Active; 'I' for Inactive)
REMARK    1  A    between atoms: C_1  and  N_2
REMARK    2  A    between atoms: C_5  and  C_6
REMARK    3  A    between atoms: C_7  and  C_8
REMARK    4  A    between atoms: C_8  and  C_10
REMARK                            x       y       z     vdW  Elec       q    Type
REMARK                         _______ _______ _______ _____ _____    ______ ____
ROOT
ATOM      1  C   UNL     1       5.011   5.196  17.563  0.00  0.00    +0.000 C 
ATOM      2  C   UNL     1       5.805   4.547  16.710  0.00  0.00    +0.000 C 
ENDROOT
BRANCH   1   7
ATOM      3  C   UNL     1       1.293   3.012  21.298  0.00  0.00    +0.000 C 
ATOM      4  N   UNL     1       2.237   3.532  20.329  0.00  0.00    +0.000 N 
ATOM      5  N   UNL     1       2.726   4.789  20.566  0.00  0.00    +0.000 NA
ATOM      6  C   UNL     1       3.567   5.258  19.703  0.00  0.00    +0.000 A 
ATOM      7  C   UNL     1       4.064   4.581  18.483  0.00  0.00    +0.000 A 
ATOM      8  C   UNL     1       3.560   3.353  18.293  0.00  0.00    +0.000 A 
ATOM      9  C   UNL     1       2.589   2.752  19.237  0.00  0.00    +0.000 A 
ATOM     10  O   UNL     1       2.158   1.627  19.011  0.00  0.00    +0.000 OA
ENDBRANCH   1   7
BRANCH   2  11
ATOM     11  C   UNL     1       6.747   5.272  15.810  0.00  0.00    +0.000 C 
ATOM     12  O   UNL     1       7.457   6.178  16.219  0.00  0.00    +0.000 OA
BRANCH  11  13
ATOM     13  C   UNL     1       6.820   4.803  14.401  0.00  0.00    +0.000 A 
ATOM     14  C   UNL     1       7.734   5.402  13.527  0.00  0.00    +0.000 A 
ATOM     15  C   UNL     1       7.771   5.029  12.189  0.00  0.00    +0.000 A 
ATOM     16  C   UNL     1       6.922   4.027  11.723  0.00  0.00    +0.000 A 
ATOM     17  C   UNL     1       6.034   3.397  12.595  0.00  0.00    +0.000 A 
ATOM     18  C   UNL     1       5.981   3.780  13.940  0.00  0.00    +0.000 A 
ENDBRANCH  11  13
ENDBRANCH   2  11
TORSDOF 3
ENDMDL
MODEL 5
REMARK VINA RESULT:      -7.0      2.841      7.209
REMARK  Name = 
REMARK  4 active torsions:
REMARK  status: ('A' for Active; 'I' for Inactive)
REMARK    1  A    between atoms: C_1  and  N_2
REMARK    2  A    between atoms: C_5  and  C_6
REMARK    3  A    between atoms: C_7  and  C_8
REMARK    4  A    between atoms: C_8  and  C_10
REMARK                            x       y       z     vdW  Elec       q    Type
REMARK                         _______ _______ _______ _____ _____    ______ ____
ROOT
ATOM      1  C   UNL     1       4.779   5.201  17.142  0.00  0.00    +0.000 C 
ATOM      2  C   UNL     1       5.916   4.638  16.730  0.00  0.00    +0.000 C 
ENDROOT
BRANCH   1   7
ATOM      3  C   UNL     1       1.276   2.803  20.953  0.00  0.00    +0.000 C 
ATOM      4  N   UNL     1       2.154   3.449  19.998  0.00  0.00    +0.000 N 
ATOM      5  N   UNL     1       2.841   2.626  19.146  0.00  0.00    +0.000 NA
ATOM      6  C   UNL     1       3.627   3.197  18.293  0.00  0.00    +0.000 A 
ATOM      7  C   UNL     1       3.864   4.650  18.132  0.00  0.00    +0.000 A 
ATOM      8  C   UNL     1       3.169   5.417  18.985  0.00  0.00    +0.000 A 
ATOM      9  C   UNL     1       2.253   4.833  19.992  0.00  0.00    +0.000 A 
ATOM     10  O   UNL     1       1.645   5.582  20.749  0.00  0.00    +0.000 OA
ENDBRANCH   1   7
BRANCH   2  11
ATOM     11  C   UNL     1       6.788   5.288  15.710  0.00  0.00    +0.000 C 
ATOM     12  O   UNL     1       7.571   6.177  16.008  0.00  0.00    +0.000 OA
BRANCH  11  13
ATOM     13  C   UNL     1       6.699   4.764  14.322  0.00  0.00    +0.000 A 
ATOM     14  C   UNL     1       5.667   3.878  13.990  0.00  0.00    +0.000 A 
ATOM     15  C   UNL     1       5.606   3.321  12.718  0.00  0.00    +0.000 A 
ATOM     16  C   UNL     1       6.551   3.674  11.757  0.00  0.00    +0.000 A 
ATOM     17  C   UNL     1       7.561   4.586  12.068  0.00  0.00    +0.000 A 
ATOM     18  C   UNL     1       7.637   5.137  13.351  0.00  0.00    +0.000 A 
ENDBRANCH  11  13
ENDBRANCH   2  11
TORSDOF 3
ENDMDL
MODEL 6
REMARK VINA RESULT:      -6.9      3.169      7.210
REMARK  Name = 
REMARK  4 active torsions:
REMARK  status: ('A' for Active; 'I' for Inactive)
REMARK    1  A    between atoms: C_1  and  N_2
REMARK    2  A    between atoms: C_5  and  C_6
REMARK    3  A    between atoms: C_7  and  C_8
REMARK    4  A    between atoms: C_8  and  C_10
REMARK                            x       y       z     vdW  Elec       q    Type
REMARK                         _______ _______ _______ _____ _____    ______ ____
ROOT
ATOM      1  C   UNL     1       5.469   4.362  17.585  0.00  0.00    +0.000 C 
ATOM      2  C   UNL     1       5.391   5.139  16.504  0.00  0.00    +0.000 C 
ENDROOT
BRANCH   1   7
ATOM      3  C   UNL     1       0.950   3.012  20.794  0.00  0.00    +0.000 C 
ATOM      4  N   UNL     1       2.122   3.337  20.007  0.00  0.00    +0.000 N 
ATOM      5  N   UNL     1       1.910   4.077  18.874  0.00  0.00    +0.000 NA
ATOM      6  C   UNL     1       2.952   4.369  18.166  0.00  0.00    +0.000 A 
ATOM      7  C   UNL     1       4.357   3.991  18.450  0.00  0.00    +0.000 A 
ATOM      8  C   UNL     1       4.516   3.270  19.569  0.00  0.00    +0.000 A 
ATOM      9  C   UNL     1       3.368   2.895  20.426  0.00  0.00    +0.000 A 
ATOM     10  O   UNL     1       3.572   2.231  21.437  0.00  0.00    +0.000 OA
ENDBRANCH   1   7
BRANCH   2  11
ATOM     11  C   UNL     1       6.593   5.457  15.680  0.00  0.00    +0.000 C 
ATOM     12  O   UNL     1       7.500   6.152  16.110  0.00  0.00    +0.000 OA
BRANCH  11  13
ATOM     13  C   UNL     1       6.659   4.841  14.329  0.00  0.00    +0.000 A 
ATOM     14  C   UNL     1       7.659   5.249  13.438  0.00  0.00    +0.000 A 
ATOM     15  C   UNL     1       7.697   4.739  12.146  0.00  0.00    +0.000 A 
ATOM     16  C   UNL     1       6.761   3.787  11.747  0.00  0.00    +0.000 A 
ATOM     17  C   UNL     1       5.784   3.345  12.640  0.00  0.00    +0.000 A 
ATOM     18  C   UNL     1       5.731   3.868  13.936  0.00  0.00    +0.000 A 
ENDBRANCH  11  13
ENDBRANCH   2  11
TORSDOF 3
ENDMDL
MODEL 7
REMARK VINA RESULT:      -6.9      3.188      7.109
REMARK  Name = 
REMARK  4 active torsions:
REMARK  status: ('A' for Active; 'I' for Inactive)
REMARK    1  A    between atoms: C_1  and  N_2
REMARK    2  A    between atoms: C_5  and  C_6
REMARK    3  A    between atoms: C_7  and  C_8
REMARK    4  A    between atoms: C_8  and  C_10
REMARK                            x       y       z     vdW  Elec       q    Type
REMARK                         _______ _______ _______ _____ _____    ______ ____
ROOT
ATOM      1  C   UNL     1       4.844   5.056  17.247  0.00  0.00    +0.000 C 
ATOM      2  C   UNL     1       6.116   4.750  16.987  0.00  0.00    +0.000 C 
ENDROOT
BRANCH   1   7
ATOM      3  C   UNL     1       1.397   2.808  21.198  0.00  0.00    +0.000 C 
ATOM      4  N   UNL     1       2.304   3.358  20.211  0.00  0.00    +0.000 N 
ATOM      5  N   UNL     1       1.779   4.285  19.349  0.00  0.00    +0.000 NA
ATOM      6  C   UNL     1       2.584   4.777  18.464  0.00  0.00    +0.000 A 
ATOM      7  C   UNL     1       4.017   4.451  18.282  0.00  0.00    +0.000 A 
ATOM      8  C   UNL     1       4.487   3.542  19.149  0.00  0.00    +0.000 A 
ATOM      9  C   UNL     1       3.624   2.932  20.186  0.00  0.00    +0.000 A 
ATOM     10  O   UNL     1       4.106   2.103  20.950  0.00  0.00    +0.000 OA
ENDBRANCH   1   7
BRANCH   2  11
ATOM     11  C   UNL     1       6.880   5.433  15.904  0.00  0.00    +0.000 C 
ATOM     12  O   UNL     1       7.617   6.379  16.137  0.00  0.00    +0.000 OA
BRANCH  11  13
ATOM     13  C   UNL     1       6.745   4.873  14.534  0.00  0.00    +0.000 A 
ATOM     14  C   UNL     1       5.653   4.049  14.236  0.00  0.00    +0.000 A 
ATOM     15  C   UNL     1       5.545   3.457  12.983  0.00  0.00    +0.000 A 
ATOM     16  C   UNL     1       6.504   3.715  12.006  0.00  0.00    +0.000 A 
ATOM     17  C   UNL     1       7.575   4.566  12.281  0.00  0.00    +0.000 A 
ATOM     18  C   UNL     1       7.699   5.151  13.546  0.00  0.00    +0.000 A 
ENDBRANCH  11  13
ENDBRANCH   2  11
TORSDOF 3
ENDMDL
MODEL 8
REMARK VINA RESULT:      -6.8      3.036      6.980
REMARK  Name = 
REMARK  4 active torsions:
REMARK  status: ('A' for Active; 'I' for Inactive)
REMARK    1  A    between atoms: C_1  and  N_2
REMARK    2  A    between atoms: C_5  and  C_6
REMARK    3  A    between atoms: C_7  and  C_8
REMARK    4  A    between atoms: C_8  and  C_10
REMARK                            x       y       z     vdW  Elec       q    Type
REMARK                         _______ _______ _______ _____ _____    ______ ____
ROOT
ATOM      1  C   UNL     1       4.683   4.727  16.761  0.00  0.00    +0.000 C 
ATOM      2  C   UNL     1       6.014   4.782  16.838  0.00  0.00    +0.000 C 
ENDROOT
BRANCH   1   7
ATOM      3  C   UNL     1       1.380   2.599  20.897  0.00  0.00    +0.000 C 
ATOM      4  N   UNL     1       2.190   3.132  19.819  0.00  0.00    +0.000 N 
ATOM      5  N   UNL     1       3.466   3.510  20.143  0.00  0.00    +0.000 NA
ATOM      6  C   UNL     1       4.191   3.988  19.186  0.00  0.00    +0.000 A 
ATOM      7  C   UNL     1       3.794   4.170  17.771  0.00  0.00    +0.000 A 
ATOM      8  C   UNL     1       2.538   3.784  17.500  0.00  0.00    +0.000 A 
ATOM      9  C   UNL     1       1.648   3.231  18.546  0.00  0.00    +0.000 A 
ATOM     10  O   UNL     1       0.508   2.898  18.243  0.00  0.00    +0.000 OA
ENDBRANCH   1   7
BRANCH   2  11
ATOM     11  C   UNL     1       6.837   5.379  15.747  0.00  0.00    +0.000 C 
ATOM     12  O   UNL     1       7.640   6.273  15.965  0.00  0.00    +0.000 OA
BRANCH  11  13
ATOM     13  C   UNL     1       6.674   4.795  14.390  0.00  0.00    +0.000 A 
ATOM     14  C   UNL     1       5.552   4.006  14.114  0.00  0.00    +0.000 A 
ATOM     15  C   UNL     1       5.415   3.392  12.875  0.00  0.00    +0.000 A 
ATOM     16  C   UNL     1       6.378   3.595  11.888  0.00  0.00    +0.000 A 
ATOM     17  C   UNL     1       7.481   4.411  12.141  0.00  0.00    +0.000 A 
ATOM     18  C   UNL     1       7.632   5.018  13.392  0.00  0.00    +0.000 A 
ENDBRANCH  11  13
ENDBRANCH   2  11
TORSDOF 3
ENDMDL
MODEL 9
REMARK VINA RESULT:      -6.8      4.833      6.783
REMARK  Name = 
REMARK  4 active torsions:
REMARK  status: ('A' for Active; 'I' for Inactive)
REMARK    1  A    between atoms: C_1  and  N_2
REMARK    2  A    between atoms: C_5  and  C_6
REMARK    3  A    between atoms: C_7  and  C_8
REMARK    4  A    between atoms: C_8  and  C_10
REMARK                            x       y       z     vdW  Elec       q    Type
REMARK                         _______ _______ _______ _____ _____    ______ ____
ROOT
ATOM      1  C   UNL     1       1.705   8.508  17.814  0.00  0.00    +0.000 C 
ATOM      2  C   UNL     1       2.416   7.744  18.644  0.00  0.00    +0.000 C 
ENDROOT
BRANCH   1   7
ATOM      3  C   UNL     1      -0.164  13.770  18.984  0.00  0.00    +0.000 C 
ATOM      4  N   UNL     1       0.272  12.419  18.691  0.00  0.00    +0.000 N 
ATOM      5  N   UNL     1       1.620  12.233  18.539  0.00  0.00    +0.000 NA
ATOM      6  C   UNL     1       2.015  11.030  18.274  0.00  0.00    +0.000 A 
ATOM      7  C   UNL     1       1.166   9.826  18.121  0.00  0.00    +0.000 A 
ATOM      8  C   UNL     1      -0.146  10.056  18.280  0.00  0.00    +0.000 A 
ATOM      9  C   UNL     1      -0.671  11.408  18.580  0.00  0.00    +0.000 A 
ATOM     10  O   UNL     1      -1.880  11.561  18.712  0.00  0.00    +0.000 OA
ENDBRANCH   1   7
BRANCH   2  11
ATOM     11  C   UNL     1       2.928   6.405  18.231  0.00  0.00    +0.000 C 
ATOM     12  O   UNL     1       3.922   6.286  17.532  0.00  0.00    +0.000 OA
BRANCH  11  13
ATOM     13  C   UNL     1       2.202   5.220  18.757  0.00  0.00    +0.000 A 
ATOM     14  C   UNL     1       1.897   5.154  20.122  0.00  0.00    +0.000 A 
ATOM     15  C   UNL     1       1.283   4.023  20.648  0.00  0.00    +0.000 A 
ATOM     16  C   UNL     1       0.931   2.968  19.808  0.00  0.00    +0.000 A 
ATOM     17  C   UNL     1       1.196   3.041  18.440  0.00  0.00    +0.000 A 
ATOM     18  C   UNL     1       1.830   4.169  17.908  0.00  0.00    +0.000 A 
ENDBRANCH  11  13
ENDBRANCH   2  11
TORSDOF 3
ENDMDL
