MODEL 1
REMARK VINA RESULT:      -7.8      0.000      0.000
REMARK  Name = 
REMARK  6 active torsions:
REMARK  status: ('A' for Active; 'I' for Inactive)
REMARK    1  A    between atoms: C_1  and  N_2
REMARK    2  A    between atoms: C_3  and  S_4
REMARK    3  A    between atoms: S_4  and  C_5
REMARK    4  A    between atoms: C_5  and  C_6
REMARK    5  A    between atoms: C_7  and  C_8
REMARK    6  A    between atoms: C_16  and  C_17
REMARK                            x       y       z     vdW  Elec       q    Type
REMARK                         _______ _______ _______ _____ _____    ______ ____
ROOT
ATOM      1  C   UNL     1       3.773   6.576  17.764  0.00  0.00    +0.000 C 
ATOM      2  N   UNL     1       4.670   5.534  18.195  0.00  0.00    +0.000 N 
ATOM      3  C   UNL     1       6.032   5.483  18.048  0.00  0.00    +0.000 A 
ATOM      4  N   UNL     1       6.510   4.451  18.702  0.00  0.00    +0.000 NA
ATOM      5  N   UNL     1       5.450   3.796  19.281  0.00  0.00    +0.000 NA
ATOM      6  C   UNL     1       4.336   4.422  18.943  0.00  0.00    +0.000 A 
ENDROOT
BRANCH   6   7
ATOM      7  C   UNL     1       3.033   3.978  19.364  0.00  0.00    +0.000 A 
ATOM      8  C   UNL     1       2.490   4.140  20.628  0.00  0.00    +0.000 A 
ATOM      9  C   UNL     1       1.185   3.574  20.749  0.00  0.00    +0.000 A 
ATOM     10  C   UNL     1       0.779   2.972  19.584  0.00  0.00    +0.000 A 
ATOM     11  S   UNL     1       1.971   3.073  18.367  0.00  0.00    +0.000 S 
ENDBRANCH   6   7
BRANCH   3  12
ATOM     12  S   UNL     1       6.964   6.629  17.142  0.00  0.00    +0.000 S 
BRANCH  12  13
ATOM     13  C   UNL     1       8.054   7.289  18.441  0.00  0.00    +0.000 C 
BRANCH  13  14
ATOM     14  C   UNL     1       8.347   8.740  18.164  0.00  0.00    +0.000 C 
ATOM     15  C   UNL     1       9.112   9.520  18.947  0.00  0.00    +0.000 C 
BRANCH  15  16
ATOM     16  C   UNL     1       9.419  10.935  18.672  0.00  0.00    +0.000 A 
ATOM     17  C   UNL     1      10.569  11.561  19.170  0.00  0.00    +0.000 A 
ATOM     18  C   UNL     1      10.848  12.896  18.863  0.00  0.00    +0.000 A 
ATOM     19  C   UNL     1       9.987  13.621  18.041  0.00  0.00    +0.000 A 
ATOM     20  C   UNL     1       8.850  13.005  17.522  0.00  0.00    +0.000 A 
ATOM     21  C   UNL     1       8.571  11.670  17.831  0.00  0.00    +0.000 A 
ENDBRANCH  15  16
ENDBRANCH  13  14
ENDBRANCH  12  13
ENDBRANCH   3  12
TORSDOF 5
ENDMDL
MODEL 2
REMARK VINA RESULT:      -7.7      0.532      1.058
REMARK  Name = 
REMARK  6 active torsions:
REMARK  status: ('A' for Active; 'I' for Inactive)
REMARK    1  A    between atoms: C_1  and  N_2
REMARK    2  A    between atoms: C_3  and  S_4
REMARK    3  A    between atoms: S_4  and  C_5
REMARK    4  A    between atoms: C_5  and  C_6
REMARK    5  A    between atoms: C_7  and  C_8
REMARK    6  A    between atoms: C_16  and  C_17
REMARK                            x       y       z     vdW  Elec       q    Type
REMARK                         _______ _______ _______ _____ _____    ______ ____
ROOT
ATOM      1  C   UNL     1       3.941   6.709  17.751  0.00  0.00    +0.000 C 
ATOM      2  N   UNL     1       4.787   5.636  18.205  0.00  0.00    +0.000 N 
ATOM      3  C   UNL     1       6.147   5.527  18.078  0.00  0.00    +0.000 A 
ATOM      4  N   UNL     1       6.573   4.482  18.749  0.00  0.00    +0.000 NA
ATOM      5  N   UNL     1       5.478   3.878  19.320  0.00  0.00    +0.000 NA
ATOM      6  C   UNL     1       4.396   4.546  18.959  0.00  0.00    +0.000 A 
ENDROOT
BRANCH   6   7
ATOM      7  C   UNL     1       3.070   4.162  19.366  0.00  0.00    +0.000 A 
ATOM      8  C   UNL     1       2.358   4.701  20.425  0.00  0.00    +0.000 A 
ATOM      9  C   UNL     1       1.075   4.099  20.597  0.00  0.00    +0.000 A 
ATOM     10  C   UNL     1       0.854   3.099  19.682  0.00  0.00    +0.000 A 
ATOM     11  S   UNL     1       2.191   2.879  18.644  0.00  0.00    +0.000 S 
ENDBRANCH   6   7
BRANCH   3  12
ATOM     12  S   UNL     1       7.139   6.623  17.175  0.00  0.00    +0.000 S 
BRANCH  12  13
ATOM     13  C   UNL     1       7.977   7.517  18.520  0.00  0.00    +0.000 C 
BRANCH  13  14
ATOM     14  C   UNL     1       8.365   8.893  18.045  0.00  0.00    +0.000 C 
ATOM     15  C   UNL     1       9.128   9.748  18.747  0.00  0.00    +0.000 C 
BRANCH  15  16
ATOM     16  C   UNL     1       9.528  11.088  18.280  0.00  0.00    +0.000 A 
ATOM     17  C   UNL     1       8.614  12.144  18.166  0.00  0.00    +0.000 A 
ATOM     18  C   UNL     1       9.032  13.411  17.752  0.00  0.00    +0.000 A 
ATOM     19  C   UNL     1      10.374  13.646  17.459  0.00  0.00    +0.000 A 
ATOM     20  C   UNL     1      11.298  12.611  17.587  0.00  0.00    +0.000 A 
ATOM     21  C   UNL     1      10.879  11.342  18.000  0.00  0.00    +0.000 A 
ENDBRANCH  15  16
ENDBRANCH  13  14
ENDBRANCH  12  13
ENDBRANCH   3  12
TORSDOF 5
ENDMDL
MODEL 3
REMARK VINA RESULT:      -7.3      1.473      1.790
REMARK  Name = 
REMARK  6 active torsions:
REMARK  status: ('A' for Active; 'I' for Inactive)
REMARK    1  A    between atoms: C_1  and  N_2
REMARK    2  A    between atoms: C_3  and  S_4
REMARK    3  A    between atoms: S_4  and  C_5
REMARK    4  A    between atoms: C_5  and  C_6
REMARK    5  A    between atoms: C_7  and  C_8
REMARK    6  A    between atoms: C_16  and  C_17
REMARK                            x       y       z     vdW  Elec       q    Type
REMARK                         _______ _______ _______ _____ _____    ______ ____
ROOT
ATOM      1  C   UNL     1       5.198   3.856  16.558  0.00  0.00    +0.000 C 
ATOM      2  N   UNL     1       5.127   4.473  17.857  0.00  0.00    +0.000 N 
ATOM      3  C   UNL     1       5.998   5.378  18.407  0.00  0.00    +0.000 A 
ATOM      4  N   UNL     1       5.515   5.824  19.543  0.00  0.00    +0.000 NA
ATOM      5  N   UNL     1       4.312   5.196  19.761  0.00  0.00    +0.000 NA
ATOM      6  C   UNL     1       4.095   4.351  18.768  0.00  0.00    +0.000 A 
ENDROOT
BRANCH   6   7
ATOM      7  C   UNL     1       2.929   3.510  18.699  0.00  0.00    +0.000 A 
ATOM      8  C   UNL     1       1.617   3.932  18.832  0.00  0.00    +0.000 A 
ATOM      9  C   UNL     1       0.677   2.861  18.740  0.00  0.00    +0.000 A 
ATOM     10  C   UNL     1       1.299   1.649  18.567  0.00  0.00    +0.000 A 
ATOM     11  S   UNL     1       2.998   1.804  18.539  0.00  0.00    +0.000 S 
ENDBRANCH   6   7
BRANCH   3  12
ATOM     12  S   UNL     1       7.498   5.859  17.686  0.00  0.00    +0.000 S 
BRANCH  12  13
ATOM     13  C   UNL     1       7.182   7.623  17.378  0.00  0.00    +0.000 C 
BRANCH  13  14
ATOM     14  C   UNL     1       8.266   8.448  18.020  0.00  0.00    +0.000 C 
ATOM     15  C   UNL     1       8.303   9.793  18.005  0.00  0.00    +0.000 C 
BRANCH  15  16
ATOM     16  C   UNL     1       9.349  10.607  18.648  0.00  0.00    +0.000 A 
ATOM     17  C   UNL     1       9.398  10.801  20.035  0.00  0.00    +0.000 A 
ATOM     18  C   UNL     1      10.423  11.552  20.617  0.00  0.00    +0.000 A 
ATOM     19  C   UNL     1      11.424  12.107  19.823  0.00  0.00    +0.000 A 
ATOM     20  C   UNL     1      11.400  11.905  18.445  0.00  0.00    +0.000 A 
ATOM     21  C   UNL     1      10.373  11.155  17.862  0.00  0.00    +0.000 A 
ENDBRANCH  15  16
ENDBRANCH  13  14
ENDBRANCH  12  13
ENDBRANCH   3  12
TORSDOF 5
ENDMDL
MODEL 4
REMARK VINA RESULT:      -7.2      0.873      1.415
REMARK  Name = 
REMARK  6 active torsions:
REMARK  status: ('A' for Active; 'I' for Inactive)
REMARK    1  A    between atoms: C_1  and  N_2
REMARK    2  A    between atoms: C_3  and  S_4
REMARK    3  A    between atoms: S_4  and  C_5
REMARK    4  A    between atoms: C_5  and  C_6
REMARK    5  A    between atoms: C_7  and  C_8
REMARK    6  A    between atoms: C_16  and  C_17
REMARK                            x       y       z     vdW  Elec       q    Type
REMARK                         _______ _______ _______ _____ _____    ______ ____
ROOT
ATOM      1  C   UNL     1       3.840   6.452  17.551  0.00  0.00    +0.000 C 
ATOM      2  N   UNL     1       4.778   5.609  18.248  0.00  0.00    +0.000 N 
ATOM      3  C   UNL     1       6.145   5.695  18.249  0.00  0.00    +0.000 A 
ATOM      4  N   UNL     1       6.642   4.848  19.121  0.00  0.00    +0.000 NA
ATOM      5  N   UNL     1       5.590   4.179  19.698  0.00  0.00    +0.000 NA
ATOM      6  C   UNL     1       4.468   4.605  19.145  0.00  0.00    +0.000 A 
ENDROOT
BRANCH   6   7
ATOM      7  C   UNL     1       3.174   4.088  19.506  0.00  0.00    +0.000 A 
ATOM      8  C   UNL     1       2.555   2.986  18.941  0.00  0.00    +0.000 A 
ATOM      9  C   UNL     1       1.263   2.730  19.493  0.00  0.00    +0.000 A 
ATOM     10  C   UNL     1       0.921   3.659  20.444  0.00  0.00    +0.000 A 
ATOM     11  S   UNL     1       2.139   4.837  20.650  0.00  0.00    +0.000 S 
ENDBRANCH   6   7
BRANCH   3  12
ATOM     12  S   UNL     1       7.062   6.775  17.252  0.00  0.00    +0.000 S 
BRANCH  12  13
ATOM     13  C   UNL     1       8.281   7.398  18.450  0.00  0.00    +0.000 C 
BRANCH  13  14
ATOM     14  C   UNL     1       8.393   8.895  18.322  0.00  0.00    +0.000 C 
ATOM     15  C   UNL     1       9.185   9.662  19.091  0.00  0.00    +0.000 C 
BRANCH  15  16
ATOM     16  C   UNL     1       9.314  11.125  18.959  0.00  0.00    +0.000 A 
ATOM     17  C   UNL     1       8.782  11.827  17.870  0.00  0.00    +0.000 A 
ATOM     18  C   UNL     1       8.892  13.218  17.791  0.00  0.00    +0.000 A 
ATOM     19  C   UNL     1       9.524  13.930  18.809  0.00  0.00    +0.000 A 
ATOM     20  C   UNL     1      10.040  13.247  19.908  0.00  0.00    +0.000 A 
ATOM     21  C   UNL     1       9.930  11.855  19.986  0.00  0.00    +0.000 A 
ENDBRANCH  15  16
ENDBRANCH  13  14
ENDBRANCH  12  13
ENDBRANCH   3  12
TORSDOF 5
ENDMDL
MODEL 5
REMARK VINA RESULT:      -7.2      1.404      1.973
REMARK  Name = 
REMARK  6 active torsions:
REMARK  status: ('A' for Active; 'I' for Inactive)
REMARK    1  A    between atoms: C_1  and  N_2
REMARK    2  A    between atoms: C_3  and  S_4
REMARK    3  A    between atoms: S_4  and  C_5
REMARK    4  A    between atoms: C_5  and  C_6
REMARK    5  A    between atoms: C_7  and  C_8
REMARK    6  A    between atoms: C_16  and  C_17
REMARK                            x       y       z     vdW  Elec       q    Type
REMARK                         _______ _______ _______ _____ _____    ______ ____
ROOT
ATOM      1  C   UNL     1       5.752   5.145  19.540  0.00  0.00    +0.000 C 
ATOM      2  N   UNL     1       5.272   4.869  18.210  0.00  0.00    +0.000 N 
ATOM      3  C   UNL     1       5.910   5.106  17.021  0.00  0.00    +0.000 A 
ATOM      4  N   UNL     1       5.220   4.581  16.035  0.00  0.00    +0.000 NA
ATOM      5  N   UNL     1       4.098   3.999  16.575  0.00  0.00    +0.000 NA
ATOM      6  C   UNL     1       4.105   4.207  17.880  0.00  0.00    +0.000 A 
ENDROOT
BRANCH   6   7
ATOM      7  C   UNL     1       3.054   3.747  18.749  0.00  0.00    +0.000 A 
ATOM      8  C   UNL     1       2.737   2.424  19.008  0.00  0.00    +0.000 A 
ATOM      9  C   UNL     1       1.628   2.282  19.896  0.00  0.00    +0.000 A 
ATOM     10  C   UNL     1       1.113   3.499  20.269  0.00  0.00    +0.000 A 
ATOM     11  S   UNL     1       1.948   4.794  19.536  0.00  0.00    +0.000 S 
ENDBRANCH   6   7
BRANCH   3  12
ATOM     12  S   UNL     1       7.410   5.959  16.864  0.00  0.00    +0.000 S 
BRANCH  12  13
ATOM     13  C   UNL     1       6.884   7.654  17.264  0.00  0.00    +0.000 C 
BRANCH  13  14
ATOM     14  C   UNL     1       8.029   8.400  17.897  0.00  0.00    +0.000 C 
ATOM     15  C   UNL     1       8.162   9.738  17.879  0.00  0.00    +0.000 C 
BRANCH  15  16
ATOM     16  C   UNL     1       9.269  10.476  18.513  0.00  0.00    +0.000 A 
ATOM     17  C   UNL     1      10.281  11.093  17.766  0.00  0.00    +0.000 A 
ATOM     18  C   UNL     1      11.300  11.813  18.396  0.00  0.00    +0.000 A 
ATOM     19  C   UNL     1      11.313  11.941  19.784  0.00  0.00    +0.000 A 
ATOM     20  C   UNL     1      10.302  11.351  20.539  0.00  0.00    +0.000 A 
ATOM     21  C   UNL     1       9.284  10.628  19.907  0.00  0.00    +0.000 A 
ENDBRANCH  15  16
ENDBRANCH  13  14
ENDBRANCH  12  13
ENDBRANCH   3  12
TORSDOF 5
ENDMDL
MODEL 6
REMARK VINA RESULT:      -7.2      1.347      2.208
REMARK  Name = 
REMARK  6 active torsions:
REMARK  status: ('A' for Active; 'I' for Inactive)
REMARK    1  A    between atoms: C_1  and  N_2
REMARK    2  A    between atoms: C_3  and  S_4
REMARK    3  A    between atoms: S_4  and  C_5
REMARK    4  A    between atoms: C_5  and  C_6
REMARK    5  A    between atoms: C_7  and  C_8
REMARK    6  A    between atoms: C_16  and  C_17
REMARK                            x       y       z     vdW  Elec       q    Type
REMARK                         _______ _______ _______ _____ _____    ______ ____
ROOT
ATOM      1  C   UNL     1       5.084   3.978  17.543  0.00  0.00    +0.000 C 
ATOM      2  N   UNL     1       4.443   5.245  17.781  0.00  0.00    +0.000 N 
ATOM      3  C   UNL     1       4.860   6.487  17.377  0.00  0.00    +0.000 A 
ATOM      4  N   UNL     1       3.935   7.377  17.651  0.00  0.00    +0.000 NA
ATOM      5  N   UNL     1       2.892   6.720  18.260  0.00  0.00    +0.000 NA
ATOM      6  C   UNL     1       3.212   5.444  18.377  0.00  0.00    +0.000 A 
ENDROOT
BRANCH   6   7
ATOM      7  C   UNL     1       2.345   4.475  18.997  0.00  0.00    +0.000 A 
ATOM      8  C   UNL     1       1.501   3.601  18.333  0.00  0.00    +0.000 A 
ATOM      9  C   UNL     1       0.748   2.774  19.220  0.00  0.00    +0.000 A 
ATOM     10  C   UNL     1       1.018   3.059  20.537  0.00  0.00    +0.000 A 
ATOM     11  S   UNL     1       2.152   4.325  20.694  0.00  0.00    +0.000 S 
ENDBRANCH   6   7
BRANCH   3  12
ATOM     12  S   UNL     1       6.379   6.810  16.608  0.00  0.00    +0.000 S 
BRANCH  12  13
ATOM     13  C   UNL     1       7.536   6.422  17.957  0.00  0.00    +0.000 C 
BRANCH  13  14
ATOM     14  C   UNL     1       8.174   7.693  18.454  0.00  0.00    +0.000 C 
ATOM     15  C   UNL     1       8.074   8.882  17.834  0.00  0.00    +0.000 C 
BRANCH  15  16
ATOM     16  C   UNL     1       8.680  10.133  18.324  0.00  0.00    +0.000 A 
ATOM     17  C   UNL     1       8.483  11.362  17.679  0.00  0.00    +0.000 A 
ATOM     18  C   UNL     1       9.045  12.536  18.189  0.00  0.00    +0.000 A 
ATOM     19  C   UNL     1       9.799  12.501  19.360  0.00  0.00    +0.000 A 
ATOM     20  C   UNL     1       9.985  11.291  20.024  0.00  0.00    +0.000 A 
ATOM     21  C   UNL     1       9.425  10.116  19.512  0.00  0.00    +0.000 A 
ENDBRANCH  15  16
ENDBRANCH  13  14
ENDBRANCH  12  13
ENDBRANCH   3  12
TORSDOF 5
ENDMDL
MODEL 7
REMARK VINA RESULT:      -7.2      0.983      1.841
REMARK  Name = 
REMARK  6 active torsions:
REMARK  status: ('A' for Active; 'I' for Inactive)
REMARK    1  A    between atoms: C_1  and  N_2
REMARK    2  A    between atoms: C_3  and  S_4
REMARK    3  A    between atoms: S_4  and  C_5
REMARK    4  A    between atoms: C_5  and  C_6
REMARK    5  A    between atoms: C_7  and  C_8
REMARK    6  A    between atoms: C_16  and  C_17
REMARK                            x       y       z     vdW  Elec       q    Type
REMARK                         _______ _______ _______ _____ _____    ______ ____
ROOT
ATOM      1  C   UNL     1       5.251   3.823  17.947  0.00  0.00    +0.000 C 
ATOM      2  N   UNL     1       4.659   5.136  17.908  0.00  0.00    +0.000 N 
ATOM      3  C   UNL     1       5.168   6.271  17.332  0.00  0.00    +0.000 A 
ATOM      4  N   UNL     1       4.271   7.228  17.372  0.00  0.00    +0.000 NA
ATOM      5  N   UNL     1       3.153   6.728  17.996  0.00  0.00    +0.000 NA
ATOM      6  C   UNL     1       3.399   5.481  18.358  0.00  0.00    +0.000 A 
ENDROOT
BRANCH   6   7
ATOM      7  C   UNL     1       2.440   4.669  19.062  0.00  0.00    +0.000 A 
ATOM      8  C   UNL     1       2.217   4.680  20.428  0.00  0.00    +0.000 A 
ATOM      9  C   UNL     1       1.217   3.747  20.835  0.00  0.00    +0.000 A 
ATOM     10  C   UNL     1       0.724   3.030  19.772  0.00  0.00    +0.000 A 
ATOM     11  S   UNL     1       1.479   3.468  18.306  0.00  0.00    +0.000 S 
ENDBRANCH   6   7
BRANCH   3  12
ATOM     12  S   UNL     1       6.754   6.397  16.647  0.00  0.00    +0.000 S 
BRANCH  12  13
ATOM     13  C   UNL     1       7.675   7.114  18.043  0.00  0.00    +0.000 C 
BRANCH  13  14
ATOM     14  C   UNL     1       8.091   8.521  17.703  0.00  0.00    +0.000 C 
ATOM     15  C   UNL     1       8.706   9.356  18.558  0.00  0.00    +0.000 C 
BRANCH  15  16
ATOM     16  C   UNL     1       9.132  10.727  18.226  0.00  0.00    +0.000 A 
ATOM     17  C   UNL     1       8.228  11.709  17.801  0.00  0.00    +0.000 A 
ATOM     18  C   UNL     1       8.660  13.009  17.526  0.00  0.00    +0.000 A 
ATOM     19  C   UNL     1      10.001  13.351  17.685  0.00  0.00    +0.000 A 
ATOM     20  C   UNL     1      10.909  12.391  18.126  0.00  0.00    +0.000 A 
ATOM     21  C   UNL     1      10.476  11.089  18.400  0.00  0.00    +0.000 A 
ENDBRANCH  15  16
ENDBRANCH  13  14
ENDBRANCH  12  13
ENDBRANCH   3  12
TORSDOF 5
ENDMDL
MODEL 8
REMARK VINA RESULT:      -7.1      1.671      1.880
REMARK  Name = 
REMARK  6 active torsions:
REMARK  status: ('A' for Active; 'I' for Inactive)
REMARK    1  A    between atoms: C_1  and  N_2
REMARK    2  A    between atoms: C_3  and  S_4
REMARK    3  A    between atoms: S_4  and  C_5
REMARK    4  A    between atoms: C_5  and  C_6
REMARK    5  A    between atoms: C_7  and  C_8
REMARK    6  A    between atoms: C_16  and  C_17
REMARK                            x       y       z     vdW  Elec       q    Type
REMARK                         _______ _______ _______ _____ _____    ______ ____
ROOT
ATOM      1  C   UNL     1       5.017   5.681  19.563  0.00  0.00    +0.000 C 
ATOM      2  N   UNL     1       5.429   5.118  18.303  0.00  0.00    +0.000 N 
ATOM      3  C   UNL     1       6.597   5.345  17.623  0.00  0.00    +0.000 A 
ATOM      4  N   UNL     1       6.674   4.537  16.592  0.00  0.00    +0.000 NA
ATOM      5  N   UNL     1       5.534   3.769  16.577  0.00  0.00    +0.000 NA
ATOM      6  C   UNL     1       4.763   4.146  17.582  0.00  0.00    +0.000 A 
ENDROOT
BRANCH   6   7
ATOM      7  C   UNL     1       3.474   3.558  17.840  0.00  0.00    +0.000 A 
ATOM      8  C   UNL     1       2.254   4.205  17.745  0.00  0.00    +0.000 A 
ATOM      9  C   UNL     1       1.151   3.365  18.085  0.00  0.00    +0.000 A 
ATOM     10  C   UNL     1       1.562   2.107  18.455  0.00  0.00    +0.000 A 
ATOM     11  S   UNL     1       3.261   1.955  18.412  0.00  0.00    +0.000 S 
ENDBRANCH   6   7
BRANCH   3  12
ATOM     12  S   UNL     1       7.787   6.519  18.080  0.00  0.00    +0.000 S 
BRANCH  12  13
ATOM     13  C   UNL     1       7.115   8.015  17.292  0.00  0.00    +0.000 C 
BRANCH  13  14
ATOM     14  C   UNL     1       7.960   9.204  17.666  0.00  0.00    +0.000 C 
ATOM     15  C   UNL     1       8.689   9.290  18.793  0.00  0.00    +0.000 C 
BRANCH  15  16
ATOM     16  C   UNL     1       9.533  10.442  19.157  0.00  0.00    +0.000 A 
ATOM     17  C   UNL     1       9.622  10.919  20.471  0.00  0.00    +0.000 A 
ATOM     18  C   UNL     1      10.457  11.993  20.788  0.00  0.00    +0.000 A 
ATOM     19  C   UNL     1      11.229  12.597  19.798  0.00  0.00    +0.000 A 
ATOM     20  C   UNL     1      11.168  12.120  18.491  0.00  0.00    +0.000 A 
ATOM     21  C   UNL     1      10.330  11.046  18.173  0.00  0.00    +0.000 A 
ENDBRANCH  15  16
ENDBRANCH  13  14
ENDBRANCH  12  13
ENDBRANCH   3  12
TORSDOF 5
ENDMDL
MODEL 9
REMARK VINA RESULT:      -7.0      5.014      6.871
REMARK  Name = 
REMARK  6 active torsions:
REMARK  status: ('A' for Active; 'I' for Inactive)
REMARK    1  A    between atoms: C_1  and  N_2
REMARK    2  A    between atoms: C_3  and  S_4
REMARK    3  A    between atoms: S_4  and  C_5
REMARK    4  A    between atoms: C_5  and  C_6
REMARK    5  A    between atoms: C_7  and  C_8
REMARK    6  A    between atoms: C_16  and  C_17
REMARK                            x       y       z     vdW  Elec       q    Type
REMARK                         _______ _______ _______ _____ _____    ______ ____
ROOT
ATOM      1  C   UNL     1       4.826   3.508  19.371  0.00  0.00    +0.000 C 
ATOM      2  N   UNL     1       3.698   3.398  18.482  0.00  0.00    +0.000 N 
ATOM      3  C   UNL     1       2.419   3.013  18.792  0.00  0.00    +0.000 A 
ATOM      4  N   UNL     1       1.640   3.184  17.749  0.00  0.00    +0.000 NA
ATOM      5  N   UNL     1       2.414   3.676  16.726  0.00  0.00    +0.000 NA
ATOM      6  C   UNL     1       3.662   3.766  17.152  0.00  0.00    +0.000 A 
ENDROOT
BRANCH   6   7
ATOM      7  C   UNL     1       4.741   4.225  16.315  0.00  0.00    +0.000 A 
ATOM      8  C   UNL     1       5.586   3.422  15.568  0.00  0.00    +0.000 A 
ATOM      9  C   UNL     1       6.575   4.166  14.857  0.00  0.00    +0.000 A 
ATOM     10  C   UNL     1       6.475   5.514  15.102  0.00  0.00    +0.000 A 
ATOM     11  S   UNL     1       5.214   5.869  16.196  0.00  0.00    +0.000 S 
ENDBRANCH   6   7
BRANCH   3  12
ATOM     12  S   UNL     1       1.923   2.409  20.338  0.00  0.00    +0.000 S 
BRANCH  12  13
ATOM     13  C   UNL     1       1.911   3.942  21.318  0.00  0.00    +0.000 C 
BRANCH  13  14
ATOM     14  C   UNL     1       1.777   5.127  20.398  0.00  0.00    +0.000 C 
ATOM     15  C   UNL     1       1.984   6.402  20.772  0.00  0.00    +0.000 C 
BRANCH  15  16
ATOM     16  C   UNL     1       1.874   7.564  19.873  0.00  0.00    +0.000 A 
ATOM     17  C   UNL     1       2.389   7.552  18.569  0.00  0.00    +0.000 A 
ATOM     18  C   UNL     1       2.239   8.660  17.730  0.00  0.00    +0.000 A 
ATOM     19  C   UNL     1       1.559   9.791  18.177  0.00  0.00    +0.000 A 
ATOM     20  C   UNL     1       1.024   9.809  19.462  0.00  0.00    +0.000 A 
ATOM     21  C   UNL     1       1.175   8.702  20.302  0.00  0.00    +0.000 A 
ENDBRANCH  15  16
ENDBRANCH  13  14
ENDBRANCH  12  13
ENDBRANCH   3  12
TORSDOF 5
ENDMDL
