MODEL 1
REMARK VINA RESULT:      -7.6      0.000      0.000
REMARK  Name = 
REMARK  9 active torsions:
REMARK  status: ('A' for Active; 'I' for Inactive)
REMARK    1  A    between atoms: C_1  and  O_2
REMARK    2  A    between atoms: O_2  and  C_3
REMARK    3  A    between atoms: C_6  and  O_7
REMARK    4  A    between atoms: O_7  and  C_8
REMARK    5  A    between atoms: C_9  and  C_10
REMARK    6  A    between atoms: N_12  and  C_13
REMARK    7  A    between atoms: C_16  and  O_17
REMARK    8  A    between atoms: C_18  and  C_19
REMARK    9  A    between atoms: C_19  and  O_21
REMARK                            x       y       z     vdW  Elec       q    Type
REMARK                         _______ _______ _______ _____ _____    ______ ____
ROOT
ATOM      1  C   UNL     1       2.565   7.146  18.527  0.00  0.00    +0.000 A 
ATOM      2  C   UNL     1       1.973   8.280  18.021  0.00  0.00    +0.000 A 
ATOM      3  N   UNL     1       1.402   8.915  19.100  0.00  0.00    +0.000 N 
ATOM      4  N   UNL     1       1.654   8.204  20.222  0.00  0.00    +0.000 NA
ATOM      5  N   UNL     1       2.345   7.124  19.883  0.00  0.00    +0.000 NA
ENDROOT
BRANCH   1  10
ATOM      6  C   UNL     1       5.272   5.636  16.415  0.00  0.00    +0.000 A 
ATOM      7  C   UNL     1       4.906   4.297  16.369  0.00  0.00    +0.000 A 
ATOM      8  C   UNL     1       3.763   3.852  17.033  0.00  0.00    +0.000 A 
ATOM      9  C   UNL     1       2.949   4.749  17.741  0.00  0.00    +0.000 A 
ATOM     10  C   UNL     1       3.320   6.110  17.822  0.00  0.00    +0.000 A 
ATOM     11  C   UNL     1       4.493   6.527  17.151  0.00  0.00    +0.000 A 
BRANCH   6  13
ATOM     12  C   UNL     1       7.003   4.888  14.966  0.00  0.00    +0.000 C 
ATOM     13  O   UNL     1       6.398   5.945  15.701  0.00  0.00    +0.000 OA
ENDBRANCH   6  13
BRANCH   9  14
ATOM     14  O   UNL     1       1.820   4.322  18.400  0.00  0.00    +0.000 OA
ATOM     15  C   UNL     1       2.009   3.294  19.371  0.00  0.00    +0.000 C 
ENDBRANCH   9  14
ENDBRANCH   1  10
BRANCH   3  16
ATOM     16  C   UNL     1       0.654  10.124  19.119  0.00  0.00    +0.000 A 
ATOM     17  C   UNL     1       1.048  11.182  19.950  0.00  0.00    +0.000 A 
ATOM     18  C   UNL     1       0.322  12.372  19.970  0.00  0.00    +0.000 A 
ATOM     19  C   UNL     1      -0.810  12.511  19.168  0.00  0.00    +0.000 A 
ATOM     20  C   UNL     1      -1.234  11.466  18.335  0.00  0.00    +0.000 A 
ATOM     21  C   UNL     1      -0.485  10.272  18.308  0.00  0.00    +0.000 A 
BRANCH  19  22
ATOM     22  O   UNL     1      -1.506  13.694  19.208  0.00  0.00    +0.000 OA
ATOM     23  H   UNL     1      -1.472  14.109  18.325  0.00  0.00    +0.000 HD
ENDBRANCH  19  22
BRANCH  20  24
ATOM     24  C   UNL     1      -2.451  11.539  17.470  0.00  0.00    +0.000 C 
ATOM     25  O   UNL     1      -3.580  11.624  17.927  0.00  0.00    +0.000 OA
BRANCH  24  26
ATOM     26  O   UNL     1      -2.217  11.517  16.140  0.00  0.00    +0.000 OA
ATOM     27  H   UNL     1      -1.488  12.122  15.875  0.00  0.00    +0.000 HD
ENDBRANCH  24  26
ENDBRANCH  20  24
ENDBRANCH   3  16
TORSDOF 7
ENDMDL
MODEL 2
REMARK VINA RESULT:      -7.6      2.237      8.409
REMARK  Name = 
REMARK  9 active torsions:
REMARK  status: ('A' for Active; 'I' for Inactive)
REMARK    1  A    between atoms: C_1  and  O_2
REMARK    2  A    between atoms: O_2  and  C_3
REMARK    3  A    between atoms: C_6  and  O_7
REMARK    4  A    between atoms: O_7  and  C_8
REMARK    5  A    between atoms: C_9  and  C_10
REMARK    6  A    between atoms: N_12  and  C_13
REMARK    7  A    between atoms: C_16  and  O_17
REMARK    8  A    between atoms: C_18  and  C_19
REMARK    9  A    between atoms: C_19  and  O_21
REMARK                            x       y       z     vdW  Elec       q    Type
REMARK                         _______ _______ _______ _____ _____    ______ ____
ROOT
ATOM      1  C   UNL     1       1.332   9.355  18.888  0.00  0.00    +0.000 A 
ATOM      2  C   UNL     1       1.607   8.208  19.595  0.00  0.00    +0.000 A 
ATOM      3  N   UNL     1       2.474   7.484  18.808  0.00  0.00    +0.000 N 
ATOM      4  N   UNL     1       2.731   8.175  17.674  0.00  0.00    +0.000 NA
ATOM      5  N   UNL     1       2.033   9.302  17.707  0.00  0.00    +0.000 NA
ENDROOT
BRANCH   1  10
ATOM      6  C   UNL     1       0.165  12.365  20.797  0.00  0.00    +0.000 A 
ATOM      7  C   UNL     1      -1.035  12.673  20.169  0.00  0.00    +0.000 A 
ATOM      8  C   UNL     1      -1.492  11.904  19.099  0.00  0.00    +0.000 A 
ATOM      9  C   UNL     1      -0.762  10.793  18.650  0.00  0.00    +0.000 A 
ATOM     10  C   UNL     1       0.473  10.481  19.259  0.00  0.00    +0.000 A 
ATOM     11  C   UNL     1       0.918  11.289  20.331  0.00  0.00    +0.000 A 
BRANCH   6  13
ATOM     12  C   UNL     1      -0.596  13.685  22.623  0.00  0.00    +0.000 C 
ATOM     13  O   UNL     1       0.485  13.182  21.847  0.00  0.00    +0.000 OA
ENDBRANCH   6  13
BRANCH   9  14
ATOM     14  O   UNL     1      -1.203  10.027  17.596  0.00  0.00    +0.000 OA
ATOM     15  C   UNL     1      -2.615   9.866  17.483  0.00  0.00    +0.000 C 
ENDBRANCH   9  14
ENDBRANCH   1  10
BRANCH   3  16
ATOM     16  C   UNL     1       3.053   6.212  19.070  0.00  0.00    +0.000 A 
ATOM     17  C   UNL     1       4.262   5.850  18.460  0.00  0.00    +0.000 A 
ATOM     18  C   UNL     1       4.837   4.606  18.717  0.00  0.00    +0.000 A 
ATOM     19  C   UNL     1       4.203   3.709  19.575  0.00  0.00    +0.000 A 
ATOM     20  C   UNL     1       2.987   4.040  20.190  0.00  0.00    +0.000 A 
ATOM     21  C   UNL     1       2.421   5.306  19.939  0.00  0.00    +0.000 A 
BRANCH  19  22
ATOM     22  O   UNL     1       4.792   2.492  19.809  0.00  0.00    +0.000 OA
ATOM     23  H   UNL     1       4.710   1.942  19.006  0.00  0.00    +0.000 HD
ENDBRANCH  19  22
BRANCH  20  24
ATOM     24  C   UNL     1       2.242   3.116  21.100  0.00  0.00    +0.000 C 
ATOM     25  O   UNL     1       2.793   2.473  21.980  0.00  0.00    +0.000 OA
BRANCH  24  26
ATOM     26  O   UNL     1       0.910   3.050  20.892  0.00  0.00    +0.000 OA
ATOM     27  H   UNL     1       0.447   3.883  21.136  0.00  0.00    +0.000 HD
ENDBRANCH  24  26
ENDBRANCH  20  24
ENDBRANCH   3  16
TORSDOF 7
ENDMDL
MODEL 3
REMARK VINA RESULT:      -7.5      1.727      8.183
REMARK  Name = 
REMARK  9 active torsions:
REMARK  status: ('A' for Active; 'I' for Inactive)
REMARK    1  A    between atoms: C_1  and  O_2
REMARK    2  A    between atoms: O_2  and  C_3
REMARK    3  A    between atoms: C_6  and  O_7
REMARK    4  A    between atoms: O_7  and  C_8
REMARK    5  A    between atoms: C_9  and  C_10
REMARK    6  A    between atoms: N_12  and  C_13
REMARK    7  A    between atoms: C_16  and  O_17
REMARK    8  A    between atoms: C_18  and  C_19
REMARK    9  A    between atoms: C_19  and  O_21
REMARK                            x       y       z     vdW  Elec       q    Type
REMARK                         _______ _______ _______ _____ _____    ______ ____
ROOT
ATOM      1  C   UNL     1       1.463   9.470  18.741  0.00  0.00    +0.000 A 
ATOM      2  C   UNL     1       2.190   8.773  17.805  0.00  0.00    +0.000 A 
ATOM      3  N   UNL     1       2.574   7.606  18.424  0.00  0.00    +0.000 N 
ATOM      4  N   UNL     1       2.082   7.585  19.683  0.00  0.00    +0.000 NA
ATOM      5  N   UNL     1       1.420   8.716  19.890  0.00  0.00    +0.000 NA
ENDROOT
BRANCH   1  10
ATOM      6  C   UNL     1       1.139  13.203  18.575  0.00  0.00    +0.000 A 
ATOM      7  C   UNL     1      -0.231  13.380  18.433  0.00  0.00    +0.000 A 
ATOM      8  C   UNL     1      -1.086  12.280  18.384  0.00  0.00    +0.000 A 
ATOM      9  C   UNL     1      -0.584  10.974  18.499  0.00  0.00    +0.000 A 
ATOM     10  C   UNL     1       0.809  10.773  18.616  0.00  0.00    +0.000 A 
ATOM     11  C   UNL     1       1.652  11.908  18.646  0.00  0.00    +0.000 A 
BRANCH   6  13
ATOM     12  C   UNL     1       3.278  14.242  18.596  0.00  0.00    +0.000 C 
ATOM     13  O   UNL     1       1.861  14.363  18.634  0.00  0.00    +0.000 OA
ENDBRANCH   6  13
BRANCH   9  14
ATOM     14  O   UNL     1      -1.417   9.881  18.452  0.00  0.00    +0.000 OA
ATOM     15  C   UNL     1      -2.480   9.940  17.502  0.00  0.00    +0.000 C 
ENDBRANCH   9  14
ENDBRANCH   1  10
BRANCH   3  16
ATOM     16  C   UNL     1       3.357   6.543  17.897  0.00  0.00    +0.000 A 
ATOM     17  C   UNL     1       2.855   5.234  17.893  0.00  0.00    +0.000 A 
ATOM     18  C   UNL     1       3.617   4.187  17.373  0.00  0.00    +0.000 A 
ATOM     19  C   UNL     1       4.890   4.438  16.864  0.00  0.00    +0.000 A 
ATOM     20  C   UNL     1       5.422   5.736  16.866  0.00  0.00    +0.000 A 
ATOM     21  C   UNL     1       4.639   6.791  17.377  0.00  0.00    +0.000 A 
BRANCH  19  22
ATOM     22  O   UNL     1       5.617   3.390  16.359  0.00  0.00    +0.000 OA
ATOM     23  H   UNL     1       6.532   3.448  16.698  0.00  0.00    +0.000 HD
ENDBRANCH  19  22
BRANCH  20  24
ATOM     24  C   UNL     1       6.789   6.070  16.359  0.00  0.00    +0.000 C 
ATOM     25  O   UNL     1       7.353   5.408  15.502  0.00  0.00    +0.000 OA
BRANCH  24  26
ATOM     26  O   UNL     1       7.355   7.167  16.906  0.00  0.00    +0.000 OA
ATOM     27  H   UNL     1       6.861   7.991  16.698  0.00  0.00    +0.000 HD
ENDBRANCH  24  26
ENDBRANCH  20  24
ENDBRANCH   3  16
TORSDOF 7
ENDMDL
MODEL 4
REMARK VINA RESULT:      -7.5      2.462      3.469
REMARK  Name = 
REMARK  9 active torsions:
REMARK  status: ('A' for Active; 'I' for Inactive)
REMARK    1  A    between atoms: C_1  and  O_2
REMARK    2  A    between atoms: O_2  and  C_3
REMARK    3  A    between atoms: C_6  and  O_7
REMARK    4  A    between atoms: O_7  and  C_8
REMARK    5  A    between atoms: C_9  and  C_10
REMARK    6  A    between atoms: N_12  and  C_13
REMARK    7  A    between atoms: C_16  and  O_17
REMARK    8  A    between atoms: C_18  and  C_19
REMARK    9  A    between atoms: C_19  and  O_21
REMARK                            x       y       z     vdW  Elec       q    Type
REMARK                         _______ _______ _______ _____ _____    ______ ____
ROOT
ATOM      1  C   UNL     1       3.897   6.162  18.324  0.00  0.00    +0.000 A 
ATOM      2  C   UNL     1       3.298   7.389  18.165  0.00  0.00    +0.000 A 
ATOM      3  N   UNL     1       2.382   7.492  19.187  0.00  0.00    +0.000 N 
ATOM      4  N   UNL     1       2.436   6.377  19.950  0.00  0.00    +0.000 NA
ATOM      5  N   UNL     1       3.341   5.559  19.427  0.00  0.00    +0.000 NA
ENDROOT
BRANCH   1  10
ATOM      6  C   UNL     1       5.530   4.590  15.335  0.00  0.00    +0.000 A 
ATOM      7  C   UNL     1       6.805   4.305  15.804  0.00  0.00    +0.000 A 
ATOM      8  C   UNL     1       7.167   4.624  17.113  0.00  0.00    +0.000 A 
ATOM      9  C   UNL     1       6.244   5.218  17.988  0.00  0.00    +0.000 A 
ATOM     10  C   UNL     1       4.951   5.541  17.520  0.00  0.00    +0.000 A 
ATOM     11  C   UNL     1       4.620   5.219  16.184  0.00  0.00    +0.000 A 
BRANCH   6  13
ATOM     12  C   UNL     1       6.431   3.828  13.271  0.00  0.00    +0.000 C 
ATOM     13  O   UNL     1       5.297   4.204  14.043  0.00  0.00    +0.000 OA
ENDBRANCH   6  13
BRANCH   9  14
ATOM     14  O   UNL     1       6.589   5.538  19.280  0.00  0.00    +0.000 OA
ATOM     15  C   UNL     1       7.980   5.730  19.532  0.00  0.00    +0.000 C 
ENDBRANCH   9  14
ENDBRANCH   1  10
BRANCH   3  16
ATOM     16  C   UNL     1       1.487   8.561  19.467  0.00  0.00    +0.000 A 
ATOM     17  C   UNL     1       1.090   9.432  18.444  0.00  0.00    +0.000 A 
ATOM     18  C   UNL     1       0.209  10.480  18.712  0.00  0.00    +0.000 A 
ATOM     19  C   UNL     1      -0.272  10.673  20.006  0.00  0.00    +0.000 A 
ATOM     20  C   UNL     1       0.118   9.823  21.051  0.00  0.00    +0.000 A 
ATOM     21  C   UNL     1       0.995   8.756  20.769  0.00  0.00    +0.000 A 
BRANCH  19  22
ATOM     22  O   UNL     1      -1.137  11.712  20.241  0.00  0.00    +0.000 OA
ATOM     23  H   UNL     1      -0.883  12.467  19.675  0.00  0.00    +0.000 HD
ENDBRANCH  19  22
BRANCH  20  24
ATOM     24  C   UNL     1      -0.340   9.988  22.466  0.00  0.00    +0.000 C 
ATOM     25  O   UNL     1      -0.302  11.060  23.049  0.00  0.00    +0.000 OA
BRANCH  24  26
ATOM     26  O   UNL     1      -0.812   8.868  23.054  0.00  0.00    +0.000 OA
ATOM     27  H   UNL     1      -1.696   9.001  23.465  0.00  0.00    +0.000 HD
ENDBRANCH  24  26
ENDBRANCH  20  24
ENDBRANCH   3  16
TORSDOF 7
ENDMDL
MODEL 5
REMARK VINA RESULT:      -7.4      2.282      2.920
REMARK  Name = 
REMARK  9 active torsions:
REMARK  status: ('A' for Active; 'I' for Inactive)
REMARK    1  A    between atoms: C_1  and  O_2
REMARK    2  A    between atoms: O_2  and  C_3
REMARK    3  A    between atoms: C_6  and  O_7
REMARK    4  A    between atoms: O_7  and  C_8
REMARK    5  A    between atoms: C_9  and  C_10
REMARK    6  A    between atoms: N_12  and  C_13
REMARK    7  A    between atoms: C_16  and  O_17
REMARK    8  A    between atoms: C_18  and  C_19
REMARK    9  A    between atoms: C_19  and  O_21
REMARK                            x       y       z     vdW  Elec       q    Type
REMARK                         _______ _______ _______ _____ _____    ______ ____
ROOT
ATOM      1  C   UNL     1       3.149   6.487  18.709  0.00  0.00    +0.000 A 
ATOM      2  C   UNL     1       2.576   7.729  18.569  0.00  0.00    +0.000 A 
ATOM      3  N   UNL     1       1.750   7.884  19.659  0.00  0.00    +0.000 N 
ATOM      4  N   UNL     1       1.833   6.785  20.442  0.00  0.00    +0.000 NA
ATOM      5  N   UNL     1       2.667   5.927  19.867  0.00  0.00    +0.000 NA
ENDROOT
BRANCH   1  10
ATOM      6  C   UNL     1       6.340   5.936  16.816  0.00  0.00    +0.000 A 
ATOM      7  C   UNL     1       6.103   4.728  16.172  0.00  0.00    +0.000 A 
ATOM      8  C   UNL     1       4.892   4.059  16.345  0.00  0.00    +0.000 A 
ATOM      9  C   UNL     1       3.880   4.602  17.152  0.00  0.00    +0.000 A 
ATOM     10  C   UNL     1       4.113   5.815  17.836  0.00  0.00    +0.000 A 
ATOM     11  C   UNL     1       5.358   6.461  17.655  0.00  0.00    +0.000 A 
BRANCH   6  13
ATOM     12  C   UNL     1       7.917   7.649  17.298  0.00  0.00    +0.000 C 
ATOM     13  O   UNL     1       7.557   6.499  16.543  0.00  0.00    +0.000 OA
ENDBRANCH   6  13
BRANCH   9  14
ATOM     14  O   UNL     1       2.681   3.952  17.329  0.00  0.00    +0.000 OA
ATOM     15  C   UNL     1       2.749   2.657  17.923  0.00  0.00    +0.000 C 
ENDBRANCH   9  14
ENDBRANCH   1  10
BRANCH   3  16
ATOM     16  C   UNL     1       0.915   8.987  19.985  0.00  0.00    +0.000 A 
ATOM     17  C   UNL     1       0.569   9.923  19.001  0.00  0.00    +0.000 A 
ATOM     18  C   UNL     1      -0.254  11.005  19.314  0.00  0.00    +0.000 A 
ATOM     19  C   UNL     1      -0.728  11.167  20.615  0.00  0.00    +0.000 A 
ATOM     20  C   UNL     1      -0.388  10.252  21.622  0.00  0.00    +0.000 A 
ATOM     21  C   UNL     1       0.430   9.152  21.294  0.00  0.00    +0.000 A 
BRANCH  19  22
ATOM     22  O   UNL     1      -1.535  12.240  20.894  0.00  0.00    +0.000 OA
ATOM     23  H   UNL     1      -1.302  12.589  21.776  0.00  0.00    +0.000 HD
ENDBRANCH  19  22
BRANCH  20  24
ATOM     24  C   UNL     1      -0.841  10.380  23.042  0.00  0.00    +0.000 C 
ATOM     25  O   UNL     1      -1.754  11.117  23.378  0.00  0.00    +0.000 OA
BRANCH  24  26
ATOM     26  O   UNL     1      -0.176   9.611  23.931  0.00  0.00    +0.000 OA
ATOM     27  H   UNL     1       0.483  10.122  24.453  0.00  0.00    +0.000 HD
ENDBRANCH  24  26
ENDBRANCH  20  24
ENDBRANCH   3  16
TORSDOF 7
ENDMDL
MODEL 6
REMARK VINA RESULT:      -7.4      2.018      8.627
REMARK  Name = 
REMARK  9 active torsions:
REMARK  status: ('A' for Active; 'I' for Inactive)
REMARK    1  A    between atoms: C_1  and  O_2
REMARK    2  A    between atoms: O_2  and  C_3
REMARK    3  A    between atoms: C_6  and  O_7
REMARK    4  A    between atoms: O_7  and  C_8
REMARK    5  A    between atoms: C_9  and  C_10
REMARK    6  A    between atoms: N_12  and  C_13
REMARK    7  A    between atoms: C_16  and  O_17
REMARK    8  A    between atoms: C_18  and  C_19
REMARK    9  A    between atoms: C_19  and  O_21
REMARK                            x       y       z     vdW  Elec       q    Type
REMARK                         _______ _______ _______ _____ _____    ______ ____
ROOT
ATOM      1  C   UNL     1       1.420   9.170  18.796  0.00  0.00    +0.000 A 
ATOM      2  C   UNL     1       1.763   8.020  19.466  0.00  0.00    +0.000 A 
ATOM      3  N   UNL     1       2.666   7.371  18.655  0.00  0.00    +0.000 N 
ATOM      4  N   UNL     1       2.879   8.110  17.543  0.00  0.00    +0.000 NA
ATOM      5  N   UNL     1       2.117   9.194  17.612  0.00  0.00    +0.000 NA
ENDROOT
BRANCH   1  10
ATOM      6  C   UNL     1       0.056  12.001  20.843  0.00  0.00    +0.000 A 
ATOM      7  C   UNL     1      -1.134  12.298  20.192  0.00  0.00    +0.000 A 
ATOM      8  C   UNL     1      -1.520  11.580  19.060  0.00  0.00    +0.000 A 
ATOM      9  C   UNL     1      -0.727  10.531  18.570  0.00  0.00    +0.000 A 
ATOM     10  C   UNL     1       0.500  10.233  19.204  0.00  0.00    +0.000 A 
ATOM     11  C   UNL     1       0.871  10.990  20.339  0.00  0.00    +0.000 A 
BRANCH   6  13
ATOM     12  C   UNL     1      -0.806  13.445  22.525  0.00  0.00    +0.000 C 
ATOM     13  O   UNL     1       0.303  12.763  21.953  0.00  0.00    +0.000 OA
ENDBRANCH   6  13
BRANCH   9  14
ATOM     14  O   UNL     1      -1.097   9.816  17.456  0.00  0.00    +0.000 OA
ATOM     15  C   UNL     1      -2.360  10.150  16.884  0.00  0.00    +0.000 C 
ENDBRANCH   9  14
ENDBRANCH   1  10
BRANCH   3  16
ATOM     16  C   UNL     1       3.317   6.127  18.876  0.00  0.00    +0.000 A 
ATOM     17  C   UNL     1       2.731   5.164  19.708  0.00  0.00    +0.000 A 
ATOM     18  C   UNL     1       3.362   3.939  19.926  0.00  0.00    +0.000 A 
ATOM     19  C   UNL     1       4.591   3.672  19.323  0.00  0.00    +0.000 A 
ATOM     20  C   UNL     1       5.206   4.622  18.495  0.00  0.00    +0.000 A 
ATOM     21  C   UNL     1       4.553   5.850  18.266  0.00  0.00    +0.000 A 
BRANCH  19  22
ATOM     22  O   UNL     1       5.190   2.460  19.554  0.00  0.00    +0.000 OA
ATOM     23  H   UNL     1       4.755   1.782  19.001  0.00  0.00    +0.000 HD
ENDBRANCH  19  22
BRANCH  20  24
ATOM     24  C   UNL     1       6.533   4.411  17.838  0.00  0.00    +0.000 C 
ATOM     25  O   UNL     1       7.591   4.546  18.432  0.00  0.00    +0.000 OA
BRANCH  24  26
ATOM     26  O   UNL     1       6.483   4.046  16.539  0.00  0.00    +0.000 OA
ATOM     27  H   UNL     1       5.670   4.368  16.087  0.00  0.00    +0.000 HD
ENDBRANCH  24  26
ENDBRANCH  20  24
ENDBRANCH   3  16
TORSDOF 7
ENDMDL
MODEL 7
REMARK VINA RESULT:      -7.4      1.669      8.107
REMARK  Name = 
REMARK  9 active torsions:
REMARK  status: ('A' for Active; 'I' for Inactive)
REMARK    1  A    between atoms: C_1  and  O_2
REMARK    2  A    between atoms: O_2  and  C_3
REMARK    3  A    between atoms: C_6  and  O_7
REMARK    4  A    between atoms: O_7  and  C_8
REMARK    5  A    between atoms: C_9  and  C_10
REMARK    6  A    between atoms: N_12  and  C_13
REMARK    7  A    between atoms: C_16  and  O_17
REMARK    8  A    between atoms: C_18  and  C_19
REMARK    9  A    between atoms: C_19  and  O_21
REMARK                            x       y       z     vdW  Elec       q    Type
REMARK                         _______ _______ _______ _____ _____    ______ ____
ROOT
ATOM      1  C   UNL     1       1.359   9.434  18.739  0.00  0.00    +0.000 A 
ATOM      2  C   UNL     1       2.045   8.716  17.788  0.00  0.00    +0.000 A 
ATOM      3  N   UNL     1       2.495   7.584  18.429  0.00  0.00    +0.000 N 
ATOM      4  N   UNL     1       2.081   7.605  19.716  0.00  0.00    +0.000 NA
ATOM      5  N   UNL     1       1.404   8.728  19.918  0.00  0.00    +0.000 NA
ENDROOT
BRANCH   1  10
ATOM      6  C   UNL     1       0.871  13.153  18.788  0.00  0.00    +0.000 A 
ATOM      7  C   UNL     1      -0.465  13.286  18.437  0.00  0.00    +0.000 A 
ATOM      8  C   UNL     1      -1.243  12.159  18.170  0.00  0.00    +0.000 A 
ATOM      9  C   UNL     1      -0.699  10.870  18.272  0.00  0.00    +0.000 A 
ATOM     10  C   UNL     1       0.667  10.716  18.602  0.00  0.00    +0.000 A 
ATOM     11  C   UNL     1       1.433  11.878  18.850  0.00  0.00    +0.000 A 
BRANCH   6  13
ATOM     12  C   UNL     1       2.877  14.424  18.653  0.00  0.00    +0.000 C 
ATOM     13  O   UNL     1       1.513  14.333  19.047  0.00  0.00    +0.000 OA
ENDBRANCH   6  13
BRANCH   9  14
ATOM     14  O   UNL     1      -1.455   9.752  18.012  0.00  0.00    +0.000 OA
ATOM     15  C   UNL     1      -2.847   9.971  17.793  0.00  0.00    +0.000 C 
ENDBRANCH   9  14
ENDBRANCH   1  10
BRANCH   3  16
ATOM     16  C   UNL     1       3.272   6.518  17.898  0.00  0.00    +0.000 A 
ATOM     17  C   UNL     1       4.465   6.789  17.215  0.00  0.00    +0.000 A 
ATOM     18  C   UNL     1       5.233   5.748  16.696  0.00  0.00    +0.000 A 
ATOM     19  C   UNL     1       4.810   4.428  16.845  0.00  0.00    +0.000 A 
ATOM     20  C   UNL     1       3.615   4.128  17.515  0.00  0.00    +0.000 A 
ATOM     21  C   UNL     1       2.852   5.185  18.051  0.00  0.00    +0.000 A 
BRANCH  19  22
ATOM     22  O   UNL     1       5.586   3.423  16.324  0.00  0.00    +0.000 OA
ATOM     23  H   UNL     1       6.068   3.767  15.547  0.00  0.00    +0.000 HD
ENDBRANCH  19  22
BRANCH  20  24
ATOM     24  C   UNL     1       3.091   2.738  17.689  0.00  0.00    +0.000 C 
ATOM     25  O   UNL     1       1.904   2.466  17.598  0.00  0.00    +0.000 OA
BRANCH  24  26
ATOM     26  O   UNL     1       4.024   1.796  17.942  0.00  0.00    +0.000 OA
ATOM     27  H   UNL     1       3.760   0.906  17.619  0.00  0.00    +0.000 HD
ENDBRANCH  24  26
ENDBRANCH  20  24
ENDBRANCH   3  16
TORSDOF 7
ENDMDL
MODEL 8
REMARK VINA RESULT:      -7.4      1.829      2.374
REMARK  Name = 
REMARK  9 active torsions:
REMARK  status: ('A' for Active; 'I' for Inactive)
REMARK    1  A    between atoms: C_1  and  O_2
REMARK    2  A    between atoms: O_2  and  C_3
REMARK    3  A    between atoms: C_6  and  O_7
REMARK    4  A    between atoms: O_7  and  C_8
REMARK    5  A    between atoms: C_9  and  C_10
REMARK    6  A    between atoms: N_12  and  C_13
REMARK    7  A    between atoms: C_16  and  O_17
REMARK    8  A    between atoms: C_18  and  C_19
REMARK    9  A    between atoms: C_19  and  O_21
REMARK                            x       y       z     vdW  Elec       q    Type
REMARK                         _______ _______ _______ _____ _____    ______ ____
ROOT
ATOM      1  C   UNL     1       2.779   7.374  18.148  0.00  0.00    +0.000 A 
ATOM      2  C   UNL     1       2.207   7.514  19.390  0.00  0.00    +0.000 A 
ATOM      3  N   UNL     1       1.579   8.739  19.374  0.00  0.00    +0.000 N 
ATOM      4  N   UNL     1       1.747   9.312  18.161  0.00  0.00    +0.000 NA
ATOM      5  N   UNL     1       2.485   8.499  17.416  0.00  0.00    +0.000 NA
ENDROOT
BRANCH   1  10
ATOM      6  C   UNL     1       5.498   5.614  16.255  0.00  0.00    +0.000 A 
ATOM      7  C   UNL     1       5.192   4.275  16.463  0.00  0.00    +0.000 A 
ATOM      8  C   UNL     1       4.087   3.913  17.234  0.00  0.00    +0.000 A 
ATOM      9  C   UNL     1       3.251   4.890  17.795  0.00  0.00    +0.000 A 
ATOM     10  C   UNL     1       3.563   6.257  17.617  0.00  0.00    +0.000 A 
ATOM     11  C   UNL     1       4.698   6.592  16.844  0.00  0.00    +0.000 A 
BRANCH   6  13
ATOM     12  C   UNL     1       6.951   4.790  14.562  0.00  0.00    +0.000 C 
ATOM     13  O   UNL     1       6.590   5.832  15.461  0.00  0.00    +0.000 OA
ENDBRANCH   6  13
BRANCH   9  14
ATOM     14  O   UNL     1       2.159   4.546  18.556  0.00  0.00    +0.000 OA
ATOM     15  C   UNL     1       1.542   3.299  18.243  0.00  0.00    +0.000 C 
ENDBRANCH   9  14
ENDBRANCH   1  10
BRANCH   3  16
ATOM     16  C   UNL     1       0.849   9.371  20.418  0.00  0.00    +0.000 A 
ATOM     17  C   UNL     1       0.955   8.902  21.734  0.00  0.00    +0.000 A 
ATOM     18  C   UNL     1       0.246   9.521  22.764  0.00  0.00    +0.000 A 
ATOM     19  C   UNL     1      -0.584  10.606  22.484  0.00  0.00    +0.000 A 
ATOM     20  C   UNL     1      -0.717  11.089  21.174  0.00  0.00    +0.000 A 
ATOM     21  C   UNL     1       0.016  10.469  20.142  0.00  0.00    +0.000 A 
BRANCH  19  22
ATOM     22  O   UNL     1      -1.270  11.195  23.516  0.00  0.00    +0.000 OA
ATOM     23  H   UNL     1      -1.124  10.675  24.330  0.00  0.00    +0.000 HD
ENDBRANCH  19  22
BRANCH  20  24
ATOM     24  C   UNL     1      -1.608  12.231  20.801  0.00  0.00    +0.000 C 
ATOM     25  O   UNL     1      -1.718  13.232  21.491  0.00  0.00    +0.000 OA
BRANCH  24  26
ATOM     26  O   UNL     1      -2.277  12.086  19.637  0.00  0.00    +0.000 OA
ATOM     27  H   UNL     1      -3.108  12.611  19.611  0.00  0.00    +0.000 HD
ENDBRANCH  24  26
ENDBRANCH  20  24
ENDBRANCH   3  16
TORSDOF 7
ENDMDL
MODEL 9
REMARK VINA RESULT:      -7.4      1.541      8.474
REMARK  Name = 
REMARK  9 active torsions:
REMARK  status: ('A' for Active; 'I' for Inactive)
REMARK    1  A    between atoms: C_1  and  O_2
REMARK    2  A    between atoms: O_2  and  C_3
REMARK    3  A    between atoms: C_6  and  O_7
REMARK    4  A    between atoms: O_7  and  C_8
REMARK    5  A    between atoms: C_9  and  C_10
REMARK    6  A    between atoms: N_12  and  C_13
REMARK    7  A    between atoms: C_16  and  O_17
REMARK    8  A    between atoms: C_18  and  C_19
REMARK    9  A    between atoms: C_19  and  O_21
REMARK                            x       y       z     vdW  Elec       q    Type
REMARK                         _______ _______ _______ _____ _____    ______ ____
ROOT
ATOM      1  C   UNL     1       1.219   9.226  18.823  0.00  0.00    +0.000 A 
ATOM      2  C   UNL     1       1.893   8.537  17.843  0.00  0.00    +0.000 A 
ATOM      3  N   UNL     1       2.509   7.486  18.483  0.00  0.00    +0.000 N 
ATOM      4  N   UNL     1       2.204   7.524  19.800  0.00  0.00    +0.000 NA
ATOM      5  N   UNL     1       1.435   8.583  20.018  0.00  0.00    +0.000 NA
ENDROOT
BRANCH   1  10
ATOM      6  C   UNL     1      -1.876  11.286  18.325  0.00  0.00    +0.000 A 
ATOM      7  C   UNL     1      -1.388  12.584  18.394  0.00  0.00    +0.000 A 
ATOM      8  C   UNL     1      -0.031  12.820  18.609  0.00  0.00    +0.000 A 
ATOM      9  C   UNL     1       0.872  11.753  18.738  0.00  0.00    +0.000 A 
ATOM     10  C   UNL     1       0.389  10.426  18.699  0.00  0.00    +0.000 A 
ATOM     11  C   UNL     1      -0.994  10.220  18.496  0.00  0.00    +0.000 A 
BRANCH   6  13
ATOM     12  C   UNL     1      -3.616  10.536  16.889  0.00  0.00    +0.000 C 
ATOM     13  O   UNL     1      -3.220  11.194  18.086  0.00  0.00    +0.000 OA
ENDBRANCH   6  13
BRANCH   9  14
ATOM     14  O   UNL     1       2.213  11.973  18.950  0.00  0.00    +0.000 OA
ATOM     15  C   UNL     1       2.792  13.064  18.237  0.00  0.00    +0.000 C 
ENDBRANCH   9  14
ENDBRANCH   1  10
BRANCH   3  16
ATOM     16  C   UNL     1       3.344   6.479  17.926  0.00  0.00    +0.000 A 
ATOM     17  C   UNL     1       2.894   5.154  17.851  0.00  0.00    +0.000 A 
ATOM     18  C   UNL     1       3.706   4.162  17.302  0.00  0.00    +0.000 A 
ATOM     19  C   UNL     1       4.979   4.484  16.833  0.00  0.00    +0.000 A 
ATOM     20  C   UNL     1       5.459   5.800  16.906  0.00  0.00    +0.000 A 
ATOM     21  C   UNL     1       4.626   6.799  17.447  0.00  0.00    +0.000 A 
BRANCH  19  22
ATOM     22  O   UNL     1       5.756   3.489  16.298  0.00  0.00    +0.000 OA
ATOM     23  H   UNL     1       6.327   3.121  17.001  0.00  0.00    +0.000 HD
ENDBRANCH  19  22
BRANCH  20  24
ATOM     24  C   UNL     1       6.822   6.209  16.445  0.00  0.00    +0.000 C 
ATOM     25  O   UNL     1       7.458   5.570  15.622  0.00  0.00    +0.000 OA
BRANCH  24  26
ATOM     26  O   UNL     1       7.300   7.345  16.995  0.00  0.00    +0.000 OA
ATOM     27  H   UNL     1       8.280   7.412  16.932  0.00  0.00    +0.000 HD
ENDBRANCH  24  26
ENDBRANCH  20  24
ENDBRANCH   3  16
TORSDOF 7
ENDMDL
