MODEL 1
REMARK VINA RESULT:      -7.3      0.000      0.000
REMARK  Name = 
REMARK  5 active torsions:
REMARK  status: ('A' for Active; 'I' for Inactive)
REMARK    1  A    between atoms: C_4  and  C_5
REMARK    2  A    between atoms: C_7  and  C_8
REMARK    3  A    between atoms: C_8  and  N_9
REMARK    4  A    between atoms: C_13  and  C_14
REMARK    5  A    between atoms: C_14  and  N_15
REMARK                            x       y       z     vdW  Elec       q    Type
REMARK                         _______ _______ _______ _____ _____    ______ ____
ROOT
ATOM      1  C   UNL     1       3.083   5.931  19.732  0.00  0.00    +0.000 C 
ENDROOT
BRANCH   1   2
ATOM      2  N   UNL     1       2.381   4.667  19.461  0.00  0.00    +0.000 NA
ATOM      3  C   UNL     1       2.984   3.531  20.170  0.00  0.00    +0.000 C 
ATOM      4  C   UNL     1       4.377   3.093  19.679  0.00  0.00    +0.000 C 
ATOM      5  O   UNL     1       4.814   3.512  18.387  0.00  0.00    +0.000 OA
ATOM      6  C   UNL     1       3.879   4.073  17.458  0.00  0.00    +0.000 C 
ATOM      7  C   UNL     1       2.458   4.318  18.026  0.00  0.00    +0.000 C 
BRANCH   6   8
ATOM      8  C   UNL     1       4.493   5.367  16.893  0.00  0.00    +0.000 C 
BRANCH   8   9
ATOM      9  N   UNL     1       5.610   5.119  16.005  0.00  0.00    +0.000 N 
ATOM     10  C   UNL     1       6.909   5.482  16.184  0.00  0.00    +0.000 A 
ATOM     11  N   UNL     1       7.599   5.180  15.108  0.00  0.00    +0.000 NA
ATOM     12  C   UNL     1       6.656   4.633  14.286  0.00  0.00    +0.000 A 
ATOM     13  N   UNL     1       5.418   4.582  14.787  0.00  0.00    +0.000 NA
ENDBRANCH   8   9
ENDBRANCH   6   8
ENDBRANCH   1   2
BRANCH   1  16
ATOM     14  C   UNL     1       1.089   8.896  20.217  0.00  0.00    +0.000 A 
ATOM     15  N   UNL     1       1.504   7.664  20.468  0.00  0.00    +0.000 NA
ATOM     16  C   UNL     1       2.303   7.179  19.440  0.00  0.00    +0.000 A 
ATOM     17  C   UNL     1       2.396   8.020  18.351  0.00  0.00    +0.000 A 
ATOM     18  S   UNL     1       1.484   9.448  18.627  0.00  0.00    +0.000 S 
BRANCH  14  22
ATOM     19  C   UNL     1      -0.934  11.460  22.826  0.00  0.00    +0.000 A 
ATOM     20  C   UNL     1      -0.341  11.899  21.667  0.00  0.00    +0.000 A 
ATOM     21  N   UNL     1       0.359  11.094  20.846  0.00  0.00    +0.000 NA
ATOM     22  C   UNL     1       0.450   9.793  21.202  0.00  0.00    +0.000 A 
ATOM     23  N   UNL     1      -0.085   9.266  22.324  0.00  0.00    +0.000 NA
ATOM     24  C   UNL     1      -0.765  10.125  23.117  0.00  0.00    +0.000 A 
ENDBRANCH  14  22
ENDBRANCH   1  16
TORSDOF 5
ENDMDL
MODEL 2
REMARK VINA RESULT:      -7.1      2.441      8.340
REMARK  Name = 
REMARK  5 active torsions:
REMARK  status: ('A' for Active; 'I' for Inactive)
REMARK    1  A    between atoms: C_4  and  C_5
REMARK    2  A    between atoms: C_7  and  C_8
REMARK    3  A    between atoms: C_8  and  N_9
REMARK    4  A    between atoms: C_13  and  C_14
REMARK    5  A    between atoms: C_14  and  N_15
REMARK                            x       y       z     vdW  Elec       q    Type
REMARK                         _______ _______ _______ _____ _____    ______ ____
ROOT
ATOM      1  C   UNL     1       3.500   3.962  18.285  0.00  0.00    +0.000 C 
ENDROOT
BRANCH   1   2
ATOM      2  N   UNL     1       3.426   3.443  19.659  0.00  0.00    +0.000 NA
ATOM      3  C   UNL     1       2.230   2.619  19.880  0.00  0.00    +0.000 C 
ATOM      4  C   UNL     1       0.885   3.369  19.879  0.00  0.00    +0.000 C 
ATOM      5  O   UNL     1       0.887   4.785  20.061  0.00  0.00    +0.000 OA
ATOM      6  C   UNL     1       2.070   5.450  20.521  0.00  0.00    +0.000 C 
ATOM      7  C   UNL     1       3.325   4.548  20.636  0.00  0.00    +0.000 C 
BRANCH   6   8
ATOM      8  C   UNL     1       2.323   6.656  19.598  0.00  0.00    +0.000 C 
BRANCH   8   9
ATOM      9  N   UNL     1       1.721   7.878  20.090  0.00  0.00    +0.000 N 
ATOM     10  C   UNL     1       1.204   8.108  21.328  0.00  0.00    +0.000 A 
ATOM     11  N   UNL     1       0.647   9.297  21.354  0.00  0.00    +0.000 NA
ATOM     12  C   UNL     1       0.847   9.755  20.083  0.00  0.00    +0.000 A 
ATOM     13  N   UNL     1       1.493   8.916  19.266  0.00  0.00    +0.000 NA
ENDBRANCH   8   9
ENDBRANCH   6   8
ENDBRANCH   1   2
BRANCH   1  16
ATOM     14  C   UNL     1       6.192   4.265  15.906  0.00  0.00    +0.000 A 
ATOM     15  N   UNL     1       5.015   3.856  16.353  0.00  0.00    +0.000 NA
ATOM     16  C   UNL     1       4.882   4.090  17.716  0.00  0.00    +0.000 A 
ATOM     17  C   UNL     1       6.022   4.579  18.320  0.00  0.00    +0.000 A 
ATOM     18  S   UNL     1       7.272   4.767  17.158  0.00  0.00    +0.000 S 
BRANCH  14  22
ATOM     19  C   UNL     1       7.468   4.551  11.935  0.00  0.00    +0.000 A 
ATOM     20  C   UNL     1       7.948   5.369  12.928  0.00  0.00    +0.000 A 
ATOM     21  N   UNL     1       7.508   5.324  14.199  0.00  0.00    +0.000 NA
ATOM     22  C   UNL     1       6.555   4.406  14.480  0.00  0.00    +0.000 A 
ATOM     23  N   UNL     1       6.010   3.565  13.575  0.00  0.00    +0.000 NA
ATOM     24  C   UNL     1       6.482   3.666  12.311  0.00  0.00    +0.000 A 
ENDBRANCH  14  22
ENDBRANCH   1  16
TORSDOF 5
ENDMDL
MODEL 3
REMARK VINA RESULT:      -7.1      0.858      1.234
REMARK  Name = 
REMARK  5 active torsions:
REMARK  status: ('A' for Active; 'I' for Inactive)
REMARK    1  A    between atoms: C_4  and  C_5
REMARK    2  A    between atoms: C_7  and  C_8
REMARK    3  A    between atoms: C_8  and  N_9
REMARK    4  A    between atoms: C_13  and  C_14
REMARK    5  A    between atoms: C_14  and  N_15
REMARK                            x       y       z     vdW  Elec       q    Type
REMARK                         _______ _______ _______ _____ _____    ______ ____
ROOT
ATOM      1  C   UNL     1       3.015   5.707  19.756  0.00  0.00    +0.000 C 
ENDROOT
BRANCH   1   2
ATOM      2  N   UNL     1       2.221   4.488  19.536  0.00  0.00    +0.000 NA
ATOM      3  C   UNL     1       2.748   3.337  20.281  0.00  0.00    +0.000 C 
ATOM      4  C   UNL     1       4.100   2.783  19.795  0.00  0.00    +0.000 C 
ATOM      5  O   UNL     1       4.553   3.123  18.485  0.00  0.00    +0.000 OA
ATOM      6  C   UNL     1       3.651   3.717  17.544  0.00  0.00    +0.000 C 
ATOM      7  C   UNL     1       2.257   4.084  18.115  0.00  0.00    +0.000 C 
BRANCH   6   8
ATOM      8  C   UNL     1       4.351   4.943  16.928  0.00  0.00    +0.000 C 
BRANCH   8   9
ATOM      9  N   UNL     1       5.787   4.922  17.112  0.00  0.00    +0.000 N 
ATOM     10  C   UNL     1       6.719   4.346  16.305  0.00  0.00    +0.000 A 
ATOM     11  N   UNL     1       7.902   4.440  16.867  0.00  0.00    +0.000 NA
ATOM     12  C   UNL     1       7.631   5.086  18.040  0.00  0.00    +0.000 A 
ATOM     13  N   UNL     1       6.346   5.394  18.241  0.00  0.00    +0.000 NA
ENDBRANCH   8   9
ENDBRANCH   6   8
ENDBRANCH   1   2
BRANCH   1  16
ATOM     14  C   UNL     1       1.163   8.769  20.193  0.00  0.00    +0.000 A 
ATOM     15  N   UNL     1       1.499   7.515  20.446  0.00  0.00    +0.000 NA
ATOM     16  C   UNL     1       2.316   6.998  19.447  0.00  0.00    +0.000 A 
ATOM     17  C   UNL     1       2.501   7.845  18.374  0.00  0.00    +0.000 A 
ATOM     18  S   UNL     1       1.655   9.317  18.630  0.00  0.00    +0.000 S 
BRANCH  14  22
ATOM     19  C   UNL     1      -0.855  11.372  22.768  0.00  0.00    +0.000 A 
ATOM     20  C   UNL     1      -0.363  11.770  21.549  0.00  0.00    +0.000 A 
ATOM     21  N   UNL     1       0.334  10.957  20.734  0.00  0.00    +0.000 NA
ATOM     22  C   UNL     1       0.530   9.689  21.161  0.00  0.00    +0.000 A 
ATOM     23  N   UNL     1       0.098   9.204  22.346  0.00  0.00    +0.000 NA
ATOM     24  C   UNL     1      -0.584  10.071  23.128  0.00  0.00    +0.000 A 
ENDBRANCH  14  22
ENDBRANCH   1  16
TORSDOF 5
ENDMDL
MODEL 4
REMARK VINA RESULT:      -7.1      2.452      8.283
REMARK  Name = 
REMARK  5 active torsions:
REMARK  status: ('A' for Active; 'I' for Inactive)
REMARK    1  A    between atoms: C_4  and  C_5
REMARK    2  A    between atoms: C_7  and  C_8
REMARK    3  A    between atoms: C_8  and  N_9
REMARK    4  A    between atoms: C_13  and  C_14
REMARK    5  A    between atoms: C_14  and  N_15
REMARK                            x       y       z     vdW  Elec       q    Type
REMARK                         _______ _______ _______ _____ _____    ______ ____
ROOT
ATOM      1  C   UNL     1       3.466   3.662  18.097  0.00  0.00    +0.000 C 
ENDROOT
BRANCH   1   2
ATOM      2  N   UNL     1       3.397   3.154  19.476  0.00  0.00    +0.000 NA
ATOM      3  C   UNL     1       2.161   2.402  19.732  0.00  0.00    +0.000 C 
ATOM      4  C   UNL     1       0.862   3.229  19.759  0.00  0.00    +0.000 C 
ATOM      5  O   UNL     1       0.950   4.643  19.931  0.00  0.00    +0.000 OA
ATOM      6  C   UNL     1       2.181   5.241  20.358  0.00  0.00    +0.000 C 
ATOM      7  C   UNL     1       3.384   4.268  20.448  0.00  0.00    +0.000 C 
BRANCH   6   8
ATOM      8  C   UNL     1       2.479   6.425  19.421  0.00  0.00    +0.000 C 
BRANCH   8   9
ATOM      9  N   UNL     1       1.891   7.667  19.879  0.00  0.00    +0.000 N 
ATOM     10  C   UNL     1       1.369   7.935  21.106  0.00  0.00    +0.000 A 
ATOM     11  N   UNL     1       0.829   9.132  21.100  0.00  0.00    +0.000 NA
ATOM     12  C   UNL     1       1.047   9.557  19.819  0.00  0.00    +0.000 A 
ATOM     13  N   UNL     1       1.686   8.689  19.029  0.00  0.00    +0.000 NA
ENDBRANCH   8   9
ENDBRANCH   6   8
ENDBRANCH   1   2
BRANCH   1  16
ATOM     14  C   UNL     1       6.261   4.332  15.920  0.00  0.00    +0.000 A 
ATOM     15  N   UNL     1       5.176   3.695  16.333  0.00  0.00    +0.000 NA
ATOM     16  C   UNL     1       4.832   4.067  17.626  0.00  0.00    +0.000 A 
ATOM     17  C   UNL     1       5.738   4.912  18.232  0.00  0.00    +0.000 A 
ATOM     18  S   UNL     1       7.031   5.261  17.157  0.00  0.00    +0.000 S 
BRANCH  14  22
ATOM     19  C   UNL     1       7.381   4.560  11.899  0.00  0.00    +0.000 A 
ATOM     20  C   UNL     1       6.439   3.671  12.356  0.00  0.00    +0.000 A 
ATOM     21  N   UNL     1       6.107   3.550  13.655  0.00  0.00    +0.000 NA
ATOM     22  C   UNL     1       6.742   4.370  14.523  0.00  0.00    +0.000 A 
ATOM     23  N   UNL     1       7.690   5.267  14.177  0.00  0.00    +0.000 NA
ATOM     24  C   UNL     1       7.991   5.334  12.860  0.00  0.00    +0.000 A 
ENDBRANCH  14  22
ENDBRANCH   1  16
TORSDOF 5
ENDMDL
MODEL 5
REMARK VINA RESULT:      -7.1      0.750      1.221
REMARK  Name = 
REMARK  5 active torsions:
REMARK  status: ('A' for Active; 'I' for Inactive)
REMARK    1  A    between atoms: C_4  and  C_5
REMARK    2  A    between atoms: C_7  and  C_8
REMARK    3  A    between atoms: C_8  and  N_9
REMARK    4  A    between atoms: C_13  and  C_14
REMARK    5  A    between atoms: C_14  and  N_15
REMARK                            x       y       z     vdW  Elec       q    Type
REMARK                         _______ _______ _______ _____ _____    ______ ____
ROOT
ATOM      1  C   UNL     1       2.906   5.352  20.134  0.00  0.00    +0.000 C 
ENDROOT
BRANCH   1   2
ATOM      2  N   UNL     1       2.325   4.124  19.568  0.00  0.00    +0.000 NA
ATOM      3  C   UNL     1       2.580   2.947  20.409  0.00  0.00    +0.000 C 
ATOM      4  C   UNL     1       4.041   2.465  20.468  0.00  0.00    +0.000 C 
ATOM      5  O   UNL     1       4.950   2.899  19.456  0.00  0.00    +0.000 OA
ATOM      6  C   UNL     1       4.456   3.520  18.264  0.00  0.00    +0.000 C 
ATOM      7  C   UNL     1       2.934   3.808  18.258  0.00  0.00    +0.000 C 
BRANCH   6   8
ATOM      8  C   UNL     1       5.275   4.802  18.026  0.00  0.00    +0.000 C 
BRANCH   8   9
ATOM      9  N   UNL     1       6.040   4.761  16.796  0.00  0.00    +0.000 N 
ATOM     10  C   UNL     1       7.039   5.601  16.411  0.00  0.00    +0.000 A 
ATOM     11  N   UNL     1       7.406   5.311  15.184  0.00  0.00    +0.000 NA
ATOM     12  C   UNL     1       6.580   4.273  14.858  0.00  0.00    +0.000 A 
ATOM     13  N   UNL     1       5.717   3.905  15.810  0.00  0.00    +0.000 NA
ENDBRANCH   8   9
ENDBRANCH   6   8
ENDBRANCH   1   2
BRANCH   1  16
ATOM     14  C   UNL     1       1.106   8.475  20.182  0.00  0.00    +0.000 A 
ATOM     15  N   UNL     1       1.379   7.233  20.546  0.00  0.00    +0.000 NA
ATOM     16  C   UNL     1       2.280   6.634  19.673  0.00  0.00    +0.000 A 
ATOM     17  C   UNL     1       2.600   7.405  18.575  0.00  0.00    +0.000 A 
ATOM     18  S   UNL     1       1.774   8.909  18.648  0.00  0.00    +0.000 S 
BRANCH  14  22
ATOM     19  C   UNL     1      -0.673  11.269  22.733  0.00  0.00    +0.000 A 
ATOM     20  C   UNL     1      -0.629   9.926  23.020  0.00  0.00    +0.000 A 
ATOM     21  N   UNL     1      -0.106   9.010  22.184  0.00  0.00    +0.000 NA
ATOM     22  C   UNL     1       0.403   9.470  21.019  0.00  0.00    +0.000 A 
ATOM     23  N   UNL     1       0.397  10.765  20.638  0.00  0.00    +0.000 NA
ATOM     24  C   UNL     1      -0.153  11.638  21.513  0.00  0.00    +0.000 A 
ENDBRANCH  14  22
ENDBRANCH   1  16
TORSDOF 5
ENDMDL
MODEL 6
REMARK VINA RESULT:      -7.0      2.857      8.049
REMARK  Name = 
REMARK  5 active torsions:
REMARK  status: ('A' for Active; 'I' for Inactive)
REMARK    1  A    between atoms: C_4  and  C_5
REMARK    2  A    between atoms: C_7  and  C_8
REMARK    3  A    between atoms: C_8  and  N_9
REMARK    4  A    between atoms: C_13  and  C_14
REMARK    5  A    between atoms: C_14  and  N_15
REMARK                            x       y       z     vdW  Elec       q    Type
REMARK                         _______ _______ _______ _____ _____    ______ ____
ROOT
ATOM      1  C   UNL     1       3.786   3.406  18.263  0.00  0.00    +0.000 C 
ENDROOT
BRANCH   1   2
ATOM      2  N   UNL     1       3.703   3.468  19.731  0.00  0.00    +0.000 NA
ATOM      3  C   UNL     1       2.537   2.744  20.254  0.00  0.00    +0.000 C 
ATOM      4  C   UNL     1       1.163   3.370  19.952  0.00  0.00    +0.000 C 
ATOM      5  O   UNL     1       1.104   4.741  19.559  0.00  0.00    +0.000 OA
ATOM      6  C   UNL     1       2.248   5.587  19.724  0.00  0.00    +0.000 C 
ATOM      7  C   UNL     1       3.536   4.863  20.191  0.00  0.00    +0.000 C 
BRANCH   6   8
ATOM      8  C   UNL     1       2.472   6.342  18.400  0.00  0.00    +0.000 C 
BRANCH   8   9
ATOM      9  N   UNL     1       2.181   7.757  18.503  0.00  0.00    +0.000 N 
ATOM     10  C   UNL     1       1.568   8.406  19.530  0.00  0.00    +0.000 A 
ATOM     11  N   UNL     1       1.382   9.664  19.203  0.00  0.00    +0.000 NA
ATOM     12  C   UNL     1       1.901   9.730  17.940  0.00  0.00    +0.000 A 
ATOM     13  N   UNL     1       2.394   8.583  17.463  0.00  0.00    +0.000 NA
ENDBRANCH   8   9
ENDBRANCH   6   8
ENDBRANCH   1   2
BRANCH   1  16
ATOM     14  C   UNL     1       6.314   4.257  15.838  0.00  0.00    +0.000 A 
ATOM     15  N   UNL     1       5.272   3.596  16.315  0.00  0.00    +0.000 NA
ATOM     16  C   UNL     1       5.094   3.839  17.672  0.00  0.00    +0.000 A 
ATOM     17  C   UNL     1       6.088   4.607  18.243  0.00  0.00    +0.000 A 
ATOM     18  S   UNL     1       7.251   5.046  17.058  0.00  0.00    +0.000 S 
BRANCH  14  22
ATOM     19  C   UNL     1       7.444   4.627  11.830  0.00  0.00    +0.000 A 
ATOM     20  C   UNL     1       7.975   5.412  12.825  0.00  0.00    +0.000 A 
ATOM     21  N   UNL     1       7.582   5.340  14.111  0.00  0.00    +0.000 NA
ATOM     22  C   UNL     1       6.626   4.430  14.404  0.00  0.00    +0.000 A 
ATOM     23  N   UNL     1       6.033   3.622  13.499  0.00  0.00    +0.000 NA
ATOM     24  C   UNL     1       6.458   3.749  12.222  0.00  0.00    +0.000 A 
ENDBRANCH  14  22
ENDBRANCH   1  16
TORSDOF 5
ENDMDL
MODEL 7
REMARK VINA RESULT:      -6.9      1.205      1.573
REMARK  Name = 
REMARK  5 active torsions:
REMARK  status: ('A' for Active; 'I' for Inactive)
REMARK    1  A    between atoms: C_4  and  C_5
REMARK    2  A    between atoms: C_7  and  C_8
REMARK    3  A    between atoms: C_8  and  N_9
REMARK    4  A    between atoms: C_13  and  C_14
REMARK    5  A    between atoms: C_14  and  N_15
REMARK                            x       y       z     vdW  Elec       q    Type
REMARK                         _______ _______ _______ _____ _____    ______ ____
ROOT
ATOM      1  C   UNL     1       3.026   6.248  18.875  0.00  0.00    +0.000 C 
ENDROOT
BRANCH   1   2
ATOM      2  N   UNL     1       2.539   5.188  17.979  0.00  0.00    +0.000 NA
ATOM      3  C   UNL     1       1.687   4.216  18.677  0.00  0.00    +0.000 C 
ATOM      4  C   UNL     1       2.398   3.304  19.694  0.00  0.00    +0.000 C 
ATOM      5  O   UNL     1       3.818   3.171  19.624  0.00  0.00    +0.000 OA
ATOM      6  C   UNL     1       4.528   3.633  18.469  0.00  0.00    +0.000 C 
ATOM      7  C   UNL     1       3.665   4.399  17.434  0.00  0.00    +0.000 C 
BRANCH   6   8
ATOM      8  C   UNL     1       5.717   4.482  18.954  0.00  0.00    +0.000 C 
BRANCH   8   9
ATOM      9  N   UNL     1       6.377   5.193  17.878  0.00  0.00    +0.000 N 
ATOM     10  C   UNL     1       7.047   4.661  16.820  0.00  0.00    +0.000 A 
ATOM     11  N   UNL     1       7.603   5.627  16.125  0.00  0.00    +0.000 NA
ATOM     12  C   UNL     1       7.241   6.747  16.818  0.00  0.00    +0.000 A 
ATOM     13  N   UNL     1       6.497   6.532  17.908  0.00  0.00    +0.000 NA
ENDBRANCH   8   9
ENDBRANCH   6   8
ENDBRANCH   1   2
BRANCH   1  16
ATOM     14  C   UNL     1       1.078   9.103  19.901  0.00  0.00    +0.000 A 
ATOM     15  N   UNL     1       1.472   7.840  19.919  0.00  0.00    +0.000 NA
ATOM     16  C   UNL     1       2.267   7.540  18.819  0.00  0.00    +0.000 A 
ATOM     17  C   UNL     1       2.375   8.567  17.904  0.00  0.00    +0.000 A 
ATOM     18  S   UNL     1       1.485   9.933  18.441  0.00  0.00    +0.000 S 
BRANCH  14  22
ATOM     19  C   UNL     1      -0.944  11.078  22.980  0.00  0.00    +0.000 A 
ATOM     20  C   UNL     1      -0.733  11.648  21.748  0.00  0.00    +0.000 A 
ATOM     21  N   UNL     1      -0.038  11.044  20.766  0.00  0.00    +0.000 NA
ATOM     22  C   UNL     1       0.450   9.812  21.035  0.00  0.00    +0.000 A 
ATOM     23  N   UNL     1       0.309   9.172  22.215  0.00  0.00    +0.000 NA
ATOM     24  C   UNL     1      -0.387   9.833  23.169  0.00  0.00    +0.000 A 
ENDBRANCH  14  22
ENDBRANCH   1  16
TORSDOF 5
ENDMDL
MODEL 8
REMARK VINA RESULT:      -6.9      0.939      1.122
REMARK  Name = 
REMARK  5 active torsions:
REMARK  status: ('A' for Active; 'I' for Inactive)
REMARK    1  A    between atoms: C_4  and  C_5
REMARK    2  A    between atoms: C_7  and  C_8
REMARK    3  A    between atoms: C_8  and  N_9
REMARK    4  A    between atoms: C_13  and  C_14
REMARK    5  A    between atoms: C_14  and  N_15
REMARK                            x       y       z     vdW  Elec       q    Type
REMARK                         _______ _______ _______ _____ _____    ______ ____
ROOT
ATOM      1  C   UNL     1       3.173   6.377  18.669  0.00  0.00    +0.000 C 
ENDROOT
BRANCH   1   2
ATOM      2  N   UNL     1       2.429   5.150  18.346  0.00  0.00    +0.000 NA
ATOM      3  C   UNL     1       2.159   4.332  19.536  0.00  0.00    +0.000 C 
ATOM      4  C   UNL     1       3.383   3.657  20.183  0.00  0.00    +0.000 C 
ATOM      5  O   UNL     1       4.581   3.529  19.418  0.00  0.00    +0.000 OA
ATOM      6  C   UNL     1       4.560   3.752  18.003  0.00  0.00    +0.000 C 
ATOM      7  C   UNL     1       3.214   4.280  17.444  0.00  0.00    +0.000 C 
BRANCH   6   8
ATOM      8  C   UNL     1       5.725   4.697  17.657  0.00  0.00    +0.000 C 
BRANCH   8   9
ATOM      9  N   UNL     1       6.101   4.638  16.259  0.00  0.00    +0.000 N 
ATOM     10  C   UNL     1       5.909   3.608  15.391  0.00  0.00    +0.000 A 
ATOM     11  N   UNL     1       6.489   3.887  14.246  0.00  0.00    +0.000 NA
ATOM     12  C   UNL     1       7.037   5.118  14.476  0.00  0.00    +0.000 A 
ATOM     13  N   UNL     1       6.835   5.616  15.699  0.00  0.00    +0.000 NA
ENDBRANCH   8   9
ENDBRANCH   6   8
ENDBRANCH   1   2
BRANCH   1  16
ATOM     14  C   UNL     1       1.125   9.097  19.854  0.00  0.00    +0.000 A 
ATOM     15  N   UNL     1       1.570   7.852  19.807  0.00  0.00    +0.000 NA
ATOM     16  C   UNL     1       2.362   7.639  18.685  0.00  0.00    +0.000 A 
ATOM     17  C   UNL     1       2.418   8.712  17.821  0.00  0.00    +0.000 A 
ATOM     18  S   UNL     1       1.481  10.014  18.433  0.00  0.00    +0.000 S 
BRANCH  14  22
ATOM     19  C   UNL     1      -0.937  10.803  23.066  0.00  0.00    +0.000 A 
ATOM     20  C   UNL     1      -0.905  11.376  21.818  0.00  0.00    +0.000 A 
ATOM     21  N   UNL     1      -0.202  10.866  20.790  0.00  0.00    +0.000 NA
ATOM     22  C   UNL     1       0.484   9.725  21.029  0.00  0.00    +0.000 A 
ATOM     23  N   UNL     1       0.527   9.092  22.220  0.00  0.00    +0.000 NA
ATOM     24  C   UNL     1      -0.188   9.658  23.219  0.00  0.00    +0.000 A 
ENDBRANCH  14  22
ENDBRANCH   1  16
TORSDOF 5
ENDMDL
MODEL 9
REMARK VINA RESULT:      -6.8      2.439      4.359
REMARK  Name = 
REMARK  5 active torsions:
REMARK  status: ('A' for Active; 'I' for Inactive)
REMARK    1  A    between atoms: C_4  and  C_5
REMARK    2  A    between atoms: C_7  and  C_8
REMARK    3  A    between atoms: C_8  and  N_9
REMARK    4  A    between atoms: C_13  and  C_14
REMARK    5  A    between atoms: C_14  and  N_15
REMARK                            x       y       z     vdW  Elec       q    Type
REMARK                         _______ _______ _______ _____ _____    ______ ____
ROOT
ATOM      1  C   UNL     1       3.203   6.382  17.966  0.00  0.00    +0.000 C 
ENDROOT
BRANCH   1   2
ATOM      2  N   UNL     1       4.619   6.099  18.250  0.00  0.00    +0.000 NA
ATOM      3  C   UNL     1       5.425   6.004  17.026  0.00  0.00    +0.000 C 
ATOM      4  C   UNL     1       5.154   4.778  16.134  0.00  0.00    +0.000 C 
ATOM      5  O   UNL     1       4.473   3.656  16.696  0.00  0.00    +0.000 OA
ATOM      6  C   UNL     1       4.308   3.551  18.115  0.00  0.00    +0.000 C 
ATOM      7  C   UNL     1       4.771   4.790  18.921  0.00  0.00    +0.000 C 
BRANCH   6   8
ATOM      8  C   UNL     1       2.833   3.213  18.394  0.00  0.00    +0.000 C 
BRANCH   8   9
ATOM      9  N   UNL     1       2.533   3.129  19.809  0.00  0.00    +0.000 N 
ATOM     10  C   UNL     1       3.259   2.506  20.776  0.00  0.00    +0.000 A 
ATOM     11  N   UNL     1       2.604   2.552  21.913  0.00  0.00    +0.000 NA
ATOM     12  C   UNL     1       1.460   3.219  21.578  0.00  0.00    +0.000 A 
ATOM     13  N   UNL     1       1.364   3.586  20.296  0.00  0.00    +0.000 NA
ENDBRANCH   8   9
ENDBRANCH   6   8
ENDBRANCH   1   2
BRANCH   1  16
ATOM     14  C   UNL     1       1.252   9.153  19.194  0.00  0.00    +0.000 A 
ATOM     15  N   UNL     1       2.061   8.522  18.359  0.00  0.00    +0.000 NA
ATOM     16  C   UNL     1       2.534   7.337  18.909  0.00  0.00    +0.000 A 
ATOM     17  C   UNL     1       2.160   7.135  20.222  0.00  0.00    +0.000 A 
ATOM     18  S   UNL     1       1.187   8.440  20.767  0.00  0.00    +0.000 S 
BRANCH  14  22
ATOM     19  C   UNL     1      -1.414  12.256  18.331  0.00  0.00    +0.000 A 
ATOM     20  C   UNL     1      -1.543  10.998  17.795  0.00  0.00    +0.000 A 
ATOM     21  N   UNL     1      -0.663  10.005  18.022  0.00  0.00    +0.000 NA
ATOM     22  C   UNL     1       0.381  10.291  18.833  0.00  0.00    +0.000 A 
ATOM     23  N   UNL     1       0.604  11.497  19.398  0.00  0.00    +0.000 NA
ATOM     24  C   UNL     1      -0.306  12.459  19.123  0.00  0.00    +0.000 A 
ENDBRANCH  14  22
ENDBRANCH   1  16
TORSDOF 5
ENDMDL
