MODEL 1
REMARK VINA RESULT:      -6.9      0.000      0.000
REMARK  Name = 
REMARK  12 active torsions:
REMARK  status: ('A' for Active; 'I' for Inactive)
REMARK    1  A    between atoms: C_1  and  C_2
REMARK    2  A    between atoms: C_2  and  O_3
REMARK    3  A    between atoms: O_3  and  C_4
REMARK    4  A    between atoms: C_4  and  C_6
REMARK    5  A    between atoms: C_8  and  S_9
REMARK    6  A    between atoms: S_9  and  C_10
REMARK    7  A    between atoms: C_10  and  C_11
REMARK    8  A    between atoms: C_10  and  C_12
REMARK    9  A    between atoms: C_13  and  C_14
REMARK   10  A    between atoms: C_16  and  C_17
REMARK   11  A    between atoms: C_19  and  O_20
REMARK   12  A    between atoms: C_22  and  O_23
REMARK                            x       y       z     vdW  Elec       q    Type
REMARK                         _______ _______ _______ _____ _____    ______ ____
ROOT
ATOM      1  C   UNL     1       3.151   4.504  17.514  0.00  0.00    +0.000 A 
ATOM      2  S   UNL     1       4.272   3.406  16.817  0.00  0.00    +0.000 S 
ATOM      3  C   UNL     1       5.470   4.605  16.604  0.00  0.00    +0.000 A 
ATOM      4  C   UNL     1       5.044   5.826  17.092  0.00  0.00    +0.000 A 
ATOM      5  C   UNL     1       3.703   5.779  17.659  0.00  0.00    +0.000 A 
ENDROOT
BRANCH   5   6
ATOM      6  C   UNL     1       2.985   6.894  18.317  0.00  0.00    +0.000 A 
ATOM      7  C   UNL     1       2.646   6.822  19.677  0.00  0.00    +0.000 A 
ATOM      8  C   UNL     1       1.858   7.812  20.265  0.00  0.00    +0.000 A 
ATOM      9  C   UNL     1       1.469   8.936  19.554  0.00  0.00    +0.000 A 
ATOM     10  C   UNL     1       1.843   9.040  18.222  0.00  0.00    +0.000 A 
ATOM     11  C   UNL     1       2.560   8.020  17.596  0.00  0.00    +0.000 A 
BRANCH   8  12
ATOM     12  O   UNL     1       1.431   7.693  21.556  0.00  0.00    +0.000 OA
ATOM     13  H   UNL     1       1.697   8.491  22.045  0.00  0.00    +0.000 HD
ENDBRANCH   8  12
BRANCH  10  14
ATOM     14  O   UNL     1       1.506  10.131  17.475  0.00  0.00    +0.000 OA
ATOM     15  H   UNL     1       0.593  10.383  17.694  0.00  0.00    +0.000 HD
ENDBRANCH  10  14
ENDBRANCH   5   6
BRANCH   1  16
ATOM     16  C   UNL     1       1.800   4.045  17.805  0.00  0.00    +0.000 C 
ATOM     17  O   UNL     1       0.792   4.391  17.201  0.00  0.00    +0.000 OA
BRANCH  16  18
ATOM     18  O   UNL     1       1.784   3.220  18.899  0.00  0.00    +0.000 OA
BRANCH  18  20
ATOM     19  C   UNL     1       1.758   3.556  21.294  0.00  0.00    +0.000 C 
ATOM     20  C   UNL     1       0.977   3.673  19.998  0.00  0.00    +0.000 C 
ENDBRANCH  18  20
ENDBRANCH  16  18
ENDBRANCH   1  16
BRANCH   4  21
ATOM     21  C   UNL     1       5.852   7.012  17.011  0.00  0.00    +0.000 C 
ATOM     22  N   UNL     1       6.466   7.993  16.957  0.00  0.00    +0.000 NA
ENDBRANCH   4  21
BRANCH   3  23
ATOM     23  S   UNL     1       6.966   4.186  15.761  0.00  0.00    +0.000 S 
BRANCH  23  24
ATOM     24  C   UNL     1       6.706   4.762  14.043  0.00  0.00    +0.000 C 
ATOM     25  C   UNL     1       8.005   5.237  13.397  0.00  0.00    +0.000 C 
ATOM     26  C   UNL     1       6.123   3.605  13.229  0.00  0.00    +0.000 C 
ENDBRANCH  23  24
ENDBRANCH   3  23
TORSDOF 9
ENDMDL
MODEL 2
REMARK VINA RESULT:      -6.9      0.273      1.706
REMARK  Name = 
REMARK  12 active torsions:
REMARK  status: ('A' for Active; 'I' for Inactive)
REMARK    1  A    between atoms: C_1  and  C_2
REMARK    2  A    between atoms: C_2  and  O_3
REMARK    3  A    between atoms: O_3  and  C_4
REMARK    4  A    between atoms: C_4  and  C_6
REMARK    5  A    between atoms: C_8  and  S_9
REMARK    6  A    between atoms: S_9  and  C_10
REMARK    7  A    between atoms: C_10  and  C_11
REMARK    8  A    between atoms: C_10  and  C_12
REMARK    9  A    between atoms: C_13  and  C_14
REMARK   10  A    between atoms: C_16  and  C_17
REMARK   11  A    between atoms: C_19  and  O_20
REMARK   12  A    between atoms: C_22  and  O_23
REMARK                            x       y       z     vdW  Elec       q    Type
REMARK                         _______ _______ _______ _____ _____    ______ ____
ROOT
ATOM      1  C   UNL     1       3.195   4.436  17.440  0.00  0.00    +0.000 A 
ATOM      2  S   UNL     1       4.381   3.398  16.760  0.00  0.00    +0.000 S 
ATOM      3  C   UNL     1       5.526   4.653  16.584  0.00  0.00    +0.000 A 
ATOM      4  C   UNL     1       5.033   5.849  17.072  0.00  0.00    +0.000 A 
ATOM      5  C   UNL     1       3.684   5.733  17.608  0.00  0.00    +0.000 A 
ENDROOT
BRANCH   5   6
ATOM      6  C   UNL     1       2.899   6.807  18.259  0.00  0.00    +0.000 A 
ATOM      7  C   UNL     1       2.493   7.936  17.531  0.00  0.00    +0.000 A 
ATOM      8  C   UNL     1       1.867   9.006  18.172  0.00  0.00    +0.000 A 
ATOM      9  C   UNL     1       1.544   8.946  19.519  0.00  0.00    +0.000 A 
ATOM     10  C   UNL     1       1.897   7.812  20.235  0.00  0.00    +0.000 A 
ATOM     11  C   UNL     1       2.597   6.768  19.628  0.00  0.00    +0.000 A 
BRANCH   8  12
ATOM     12  O   UNL     1       1.569  10.153  17.495  0.00  0.00    +0.000 OA
ATOM     13  H   UNL     1       0.798   9.985  16.925  0.00  0.00    +0.000 HD
ENDBRANCH   8  12
BRANCH  10  14
ATOM     14  O   UNL     1       1.591   7.686  21.559  0.00  0.00    +0.000 OA
ATOM     15  H   UNL     1       2.163   6.998  21.942  0.00  0.00    +0.000 HD
ENDBRANCH  10  14
ENDBRANCH   5   6
BRANCH   1  16
ATOM     16  C   UNL     1       1.861   3.911  17.698  0.00  0.00    +0.000 C 
ATOM     17  O   UNL     1       0.825   4.349  17.211  0.00  0.00    +0.000 OA
BRANCH  16  18
ATOM     18  O   UNL     1       1.898   2.898  18.618  0.00  0.00    +0.000 OA
BRANCH  18  20
ATOM     19  C   UNL     1       1.217   3.651  20.813  0.00  0.00    +0.000 C 
ATOM     20  C   UNL     1       0.816   2.887  19.564  0.00  0.00    +0.000 C 
ENDBRANCH  18  20
ENDBRANCH  16  18
ENDBRANCH   1  16
BRANCH   4  21
ATOM     21  C   UNL     1       5.785   7.071  17.019  0.00  0.00    +0.000 C 
ATOM     22  N   UNL     1       6.422   8.037  16.947  0.00  0.00    +0.000 NA
ENDBRANCH   4  21
BRANCH   3  23
ATOM     23  S   UNL     1       7.058   4.312  15.770  0.00  0.00    +0.000 S 
BRANCH  23  24
ATOM     24  C   UNL     1       6.784   4.822  14.034  0.00  0.00    +0.000 C 
ATOM     25  C   UNL     1       8.081   5.254  13.354  0.00  0.00    +0.000 C 
ATOM     26  C   UNL     1       6.178   3.640  13.275  0.00  0.00    +0.000 C 
ENDBRANCH  23  24
ENDBRANCH   3  23
TORSDOF 9
ENDMDL
MODEL 3
REMARK VINA RESULT:      -5.7      3.182      6.167
REMARK  Name = 
REMARK  12 active torsions:
REMARK  status: ('A' for Active; 'I' for Inactive)
REMARK    1  A    between atoms: C_1  and  C_2
REMARK    2  A    between atoms: C_2  and  O_3
REMARK    3  A    between atoms: O_3  and  C_4
REMARK    4  A    between atoms: C_4  and  C_6
REMARK    5  A    between atoms: C_8  and  S_9
REMARK    6  A    between atoms: S_9  and  C_10
REMARK    7  A    between atoms: C_10  and  C_11
REMARK    8  A    between atoms: C_10  and  C_12
REMARK    9  A    between atoms: C_13  and  C_14
REMARK   10  A    between atoms: C_16  and  C_17
REMARK   11  A    between atoms: C_19  and  O_20
REMARK   12  A    between atoms: C_22  and  O_23
REMARK                            x       y       z     vdW  Elec       q    Type
REMARK                         _______ _______ _______ _____ _____    ______ ____
ROOT
ATOM      1  C   UNL     1       3.478   4.727  19.559  0.00  0.00    +0.000 A 
ATOM      2  S   UNL     1       2.161   4.985  20.630  0.00  0.00    +0.000 S 
ATOM      3  C   UNL     1       1.792   6.516  19.969  0.00  0.00    +0.000 A 
ATOM      4  C   UNL     1       2.633   6.820  18.916  0.00  0.00    +0.000 A 
ATOM      5  C   UNL     1       3.604   5.770  18.640  0.00  0.00    +0.000 A 
ENDROOT
BRANCH   5   6
ATOM      6  C   UNL     1       4.601   5.758  17.545  0.00  0.00    +0.000 A 
ATOM      7  C   UNL     1       4.410   4.948  16.414  0.00  0.00    +0.000 A 
ATOM      8  C   UNL     1       5.406   4.838  15.444  0.00  0.00    +0.000 A 
ATOM      9  C   UNL     1       6.568   5.591  15.518  0.00  0.00    +0.000 A 
ATOM     10  C   UNL     1       6.743   6.432  16.608  0.00  0.00    +0.000 A 
ATOM     11  C   UNL     1       5.793   6.492  17.628  0.00  0.00    +0.000 A 
BRANCH   8  12
ATOM     12  O   UNL     1       5.275   3.969  14.400  0.00  0.00    +0.000 OA
ATOM     13  H   UNL     1       4.479   3.427  14.545  0.00  0.00    +0.000 HD
ENDBRANCH   8  12
BRANCH  10  14
ATOM     14  O   UNL     1       7.855   7.212  16.729  0.00  0.00    +0.000 OA
ATOM     15  H   UNL     1       7.856   7.610  17.616  0.00  0.00    +0.000 HD
ENDBRANCH  10  14
ENDBRANCH   5   6
BRANCH   1  16
ATOM     16  C   UNL     1       4.320   3.553  19.745  0.00  0.00    +0.000 C 
ATOM     17  O   UNL     1       5.545   3.561  19.771  0.00  0.00    +0.000 OA
BRANCH  16  18
ATOM     18  O   UNL     1       3.567   2.412  19.819  0.00  0.00    +0.000 OA
BRANCH  18  20
ATOM     19  C   UNL     1       2.351   2.087  17.753  0.00  0.00    +0.000 C 
ATOM     20  C   UNL     1       3.515   1.631  18.613  0.00  0.00    +0.000 C 
ENDBRANCH  18  20
ENDBRANCH  16  18
ENDBRANCH   1  16
BRANCH   4  21
ATOM     21  C   UNL     1       2.555   8.064  18.201  0.00  0.00    +0.000 C 
ATOM     22  N   UNL     1       2.526   9.053  17.597  0.00  0.00    +0.000 NA
ENDBRANCH   4  21
BRANCH   3  23
ATOM     23  S   UNL     1       0.526   7.496  20.721  0.00  0.00    +0.000 S 
BRANCH  23  24
ATOM     24  C   UNL     1       1.366   9.049  21.200  0.00  0.00    +0.000 C 
ATOM     25  C   UNL     1       0.746  10.267  20.520  0.00  0.00    +0.000 C 
ATOM     26  C   UNL     1       1.264   9.204  22.719  0.00  0.00    +0.000 C 
ENDBRANCH  23  24
ENDBRANCH   3  23
TORSDOF 9
ENDMDL
MODEL 4
REMARK VINA RESULT:      -5.5      3.186      6.117
REMARK  Name = 
REMARK  12 active torsions:
REMARK  status: ('A' for Active; 'I' for Inactive)
REMARK    1  A    between atoms: C_1  and  C_2
REMARK    2  A    between atoms: C_2  and  O_3
REMARK    3  A    between atoms: O_3  and  C_4
REMARK    4  A    between atoms: C_4  and  C_6
REMARK    5  A    between atoms: C_8  and  S_9
REMARK    6  A    between atoms: S_9  and  C_10
REMARK    7  A    between atoms: C_10  and  C_11
REMARK    8  A    between atoms: C_10  and  C_12
REMARK    9  A    between atoms: C_13  and  C_14
REMARK   10  A    between atoms: C_16  and  C_17
REMARK   11  A    between atoms: C_19  and  O_20
REMARK   12  A    between atoms: C_22  and  O_23
REMARK                            x       y       z     vdW  Elec       q    Type
REMARK                         _______ _______ _______ _____ _____    ______ ____
ROOT
ATOM      1  C   UNL     1       3.467   4.615  19.606  0.00  0.00    +0.000 A 
ATOM      2  S   UNL     1       2.122   4.915  20.630  0.00  0.00    +0.000 S 
ATOM      3  C   UNL     1       1.808   6.445  19.939  0.00  0.00    +0.000 A 
ATOM      4  C   UNL     1       2.690   6.718  18.911  0.00  0.00    +0.000 A 
ATOM      5  C   UNL     1       3.646   5.644  18.679  0.00  0.00    +0.000 A 
ENDROOT
BRANCH   5   6
ATOM      6  C   UNL     1       4.677   5.596  17.618  0.00  0.00    +0.000 A 
ATOM      7  C   UNL     1       5.859   6.343  17.734  0.00  0.00    +0.000 A 
ATOM      8  C   UNL     1       6.771   6.399  16.680  0.00  0.00    +0.000 A 
ATOM      9  C   UNL     1       6.584   5.649  15.529  0.00  0.00    +0.000 A 
ATOM     10  C   UNL     1       5.442   4.868  15.425  0.00  0.00    +0.000 A 
ATOM     11  C   UNL     1       4.480   4.865  16.436  0.00  0.00    +0.000 A 
BRANCH   8  12
ATOM     12  O   UNL     1       7.867   7.210  16.742  0.00  0.00    +0.000 OA
ATOM     13  H   UNL     1       8.209   7.338  15.840  0.00  0.00    +0.000 HD
ENDBRANCH   8  12
BRANCH  10  14
ATOM     14  O   UNL     1       5.211   4.093  14.326  0.00  0.00    +0.000 OA
ATOM     15  H   UNL     1       4.250   3.984  14.225  0.00  0.00    +0.000 HD
ENDBRANCH  10  14
ENDBRANCH   5   6
BRANCH   1  16
ATOM     16  C   UNL     1       4.277   3.426  19.834  0.00  0.00    +0.000 C 
ATOM     17  O   UNL     1       5.491   3.420  19.991  0.00  0.00    +0.000 OA
BRANCH  16  18
ATOM     18  O   UNL     1       3.512   2.291  19.779  0.00  0.00    +0.000 OA
BRANCH  18  20
ATOM     19  C   UNL     1       2.320   2.091  17.684  0.00  0.00    +0.000 C 
ATOM     20  C   UNL     1       3.502   1.617  18.510  0.00  0.00    +0.000 C 
ENDBRANCH  18  20
ENDBRANCH  16  18
ENDBRANCH   1  16
BRANCH   4  21
ATOM     21  C   UNL     1       2.661   7.954  18.179  0.00  0.00    +0.000 C 
ATOM     22  N   UNL     1       2.597   8.960  17.607  0.00  0.00    +0.000 NA
ENDBRANCH   4  21
BRANCH   3  23
ATOM     23  S   UNL     1       0.540   7.461  20.638  0.00  0.00    +0.000 S 
BRANCH  23  24
ATOM     24  C   UNL     1       1.396   9.008  21.112  0.00  0.00    +0.000 C 
ATOM     25  C   UNL     1       0.811  10.225  20.400  0.00  0.00    +0.000 C 
ATOM     26  C   UNL     1       1.263   9.188  22.626  0.00  0.00    +0.000 C 
ENDBRANCH  23  24
ENDBRANCH   3  23
TORSDOF 9
ENDMDL
MODEL 5
REMARK VINA RESULT:      -5.4      3.087      4.662
REMARK  Name = 
REMARK  12 active torsions:
REMARK  status: ('A' for Active; 'I' for Inactive)
REMARK    1  A    between atoms: C_1  and  C_2
REMARK    2  A    between atoms: C_2  and  O_3
REMARK    3  A    between atoms: O_3  and  C_4
REMARK    4  A    between atoms: C_4  and  C_6
REMARK    5  A    between atoms: C_8  and  S_9
REMARK    6  A    between atoms: S_9  and  C_10
REMARK    7  A    between atoms: C_10  and  C_11
REMARK    8  A    between atoms: C_10  and  C_12
REMARK    9  A    between atoms: C_13  and  C_14
REMARK   10  A    between atoms: C_16  and  C_17
REMARK   11  A    between atoms: C_19  and  O_20
REMARK   12  A    between atoms: C_22  and  O_23
REMARK                            x       y       z     vdW  Elec       q    Type
REMARK                         _______ _______ _______ _____ _____    ______ ____
ROOT
ATOM      1  C   UNL     1       5.437   4.203  16.007  0.00  0.00    +0.000 A 
ATOM      2  S   UNL     1       5.026   3.317  14.596  0.00  0.00    +0.000 S 
ATOM      3  C   UNL     1       6.311   3.976  13.684  0.00  0.00    +0.000 A 
ATOM      4  C   UNL     1       7.076   4.835  14.450  0.00  0.00    +0.000 A 
ATOM      5  C   UNL     1       6.600   4.954  15.821  0.00  0.00    +0.000 A 
ENDROOT
BRANCH   5   6
ATOM      6  C   UNL     1       7.229   5.739  16.907  0.00  0.00    +0.000 A 
ATOM      7  C   UNL     1       7.682   5.108  18.076  0.00  0.00    +0.000 A 
ATOM      8  C   UNL     1       8.156   5.860  19.151  0.00  0.00    +0.000 A 
ATOM      9  C   UNL     1       8.282   7.238  19.063  0.00  0.00    +0.000 A 
ATOM     10  C   UNL     1       7.883   7.866  17.892  0.00  0.00    +0.000 A 
ATOM     11  C   UNL     1       7.330   7.137  16.839  0.00  0.00    +0.000 A 
BRANCH   8  12
ATOM     12  O   UNL     1       8.494   5.262  20.331  0.00  0.00    +0.000 OA
ATOM     13  H   UNL     1       9.024   5.888  20.855  0.00  0.00    +0.000 HD
ENDBRANCH   8  12
BRANCH  10  14
ATOM     14  O   UNL     1       7.999   9.217  17.738  0.00  0.00    +0.000 OA
ATOM     15  H   UNL     1       8.933   9.460  17.853  0.00  0.00    +0.000 HD
ENDBRANCH  10  14
ENDBRANCH   5   6
BRANCH   1  16
ATOM     16  C   UNL     1       4.553   4.140  17.163  0.00  0.00    +0.000 C 
ATOM     17  O   UNL     1       4.528   3.230  17.982  0.00  0.00    +0.000 OA
BRANCH  16  18
ATOM     18  O   UNL     1       3.692   5.205  17.184  0.00  0.00    +0.000 OA
BRANCH  18  20
ATOM     19  C   UNL     1       1.437   4.493  17.694  0.00  0.00    +0.000 C 
ATOM     20  C   UNL     1       2.693   5.167  18.217  0.00  0.00    +0.000 C 
ENDBRANCH  18  20
ENDBRANCH  16  18
ENDBRANCH   1  16
BRANCH   4  21
ATOM     21  C   UNL     1       8.205   5.546  13.916  0.00  0.00    +0.000 C 
ATOM     22  N   UNL     1       9.094   6.120  13.445  0.00  0.00    +0.000 NA
ENDBRANCH   4  21
BRANCH   3  23
ATOM     23  S   UNL     1       6.441   3.577  11.966  0.00  0.00    +0.000 S 
BRANCH  23  24
ATOM     24  C   UNL     1       5.158   2.302  11.688  0.00  0.00    +0.000 C 
ATOM     25  C   UNL     1       3.977   2.845  10.888  0.00  0.00    +0.000 C 
ATOM     26  C   UNL     1       5.795   1.134  10.932  0.00  0.00    +0.000 C 
ENDBRANCH  23  24
ENDBRANCH   3  23
TORSDOF 9
ENDMDL
MODEL 6
REMARK VINA RESULT:      -5.3      1.367      1.878
REMARK  Name = 
REMARK  12 active torsions:
REMARK  status: ('A' for Active; 'I' for Inactive)
REMARK    1  A    between atoms: C_1  and  C_2
REMARK    2  A    between atoms: C_2  and  O_3
REMARK    3  A    between atoms: O_3  and  C_4
REMARK    4  A    between atoms: C_4  and  C_6
REMARK    5  A    between atoms: C_8  and  S_9
REMARK    6  A    between atoms: S_9  and  C_10
REMARK    7  A    between atoms: C_10  and  C_11
REMARK    8  A    between atoms: C_10  and  C_12
REMARK    9  A    between atoms: C_13  and  C_14
REMARK   10  A    between atoms: C_16  and  C_17
REMARK   11  A    between atoms: C_19  and  O_20
REMARK   12  A    between atoms: C_22  and  O_23
REMARK                            x       y       z     vdW  Elec       q    Type
REMARK                         _______ _______ _______ _____ _____    ______ ____
ROOT
ATOM      1  C   UNL     1       3.434   4.752  19.457  0.00  0.00    +0.000 A 
ATOM      2  S   UNL     1       4.698   3.637  19.131  0.00  0.00    +0.000 S 
ATOM      3  C   UNL     1       5.591   4.763  18.207  0.00  0.00    +0.000 A 
ATOM      4  C   UNL     1       4.960   5.992  18.174  0.00  0.00    +0.000 A 
ATOM      5  C   UNL     1       3.714   6.014  18.928  0.00  0.00    +0.000 A 
ENDROOT
BRANCH   5   6
ATOM      6  C   UNL     1       2.834   7.185  19.143  0.00  0.00    +0.000 A 
ATOM      7  C   UNL     1       2.163   7.361  20.363  0.00  0.00    +0.000 A 
ATOM      8  C   UNL     1       1.236   8.392  20.521  0.00  0.00    +0.000 A 
ATOM      9  C   UNL     1       1.022   9.324  19.518  0.00  0.00    +0.000 A 
ATOM     10  C   UNL     1       1.719   9.188  18.326  0.00  0.00    +0.000 A 
ATOM     11  C   UNL     1       2.588   8.115  18.122  0.00  0.00    +0.000 A 
BRANCH   8  12
ATOM     12  O   UNL     1       0.498   8.503  21.664  0.00  0.00    +0.000 OA
ATOM     13  H   UNL     1       0.128   9.401  21.708  0.00  0.00    +0.000 HD
ENDBRANCH   8  12
BRANCH  10  14
ATOM     14  O   UNL     1       1.566  10.083  17.308  0.00  0.00    +0.000 OA
ATOM     15  H   UNL     1       1.472  10.971  17.693  0.00  0.00    +0.000 HD
ENDBRANCH  10  14
ENDBRANCH   5   6
BRANCH   1  16
ATOM     16  C   UNL     1       2.243   4.285  20.152  0.00  0.00    +0.000 C 
ATOM     17  O   UNL     1       2.179   4.030  21.348  0.00  0.00    +0.000 OA
BRANCH  16  18
ATOM     18  O   UNL     1       1.205   4.095  19.279  0.00  0.00    +0.000 OA
BRANCH  18  20
ATOM     19  C   UNL     1       1.543   1.789  18.634  0.00  0.00    +0.000 C 
ATOM     20  C   UNL     1       0.614   2.785  19.302  0.00  0.00    +0.000 C 
ENDBRANCH  18  20
ENDBRANCH  16  18
ENDBRANCH   1  16
BRANCH   4  21
ATOM     21  C   UNL     1       5.487   7.109  17.440  0.00  0.00    +0.000 C 
ATOM     22  N   UNL     1       5.950   8.007  16.874  0.00  0.00    +0.000 NA
ENDBRANCH   4  21
BRANCH   3  23
ATOM     23  S   UNL     1       7.064   4.228  17.387  0.00  0.00    +0.000 S 
BRANCH  23  24
ATOM     24  C   UNL     1       6.551   3.945  15.653  0.00  0.00    +0.000 C 
ATOM     25  C   UNL     1       5.034   3.980  15.493  0.00  0.00    +0.000 C 
ATOM     26  C   UNL     1       7.182   5.033  14.780  0.00  0.00    +0.000 C 
ENDBRANCH  23  24
ENDBRANCH   3  23
TORSDOF 9
ENDMDL
MODEL 7
REMARK VINA RESULT:      -5.3      3.365      4.592
REMARK  Name = 
REMARK  12 active torsions:
REMARK  status: ('A' for Active; 'I' for Inactive)
REMARK    1  A    between atoms: C_1  and  C_2
REMARK    2  A    between atoms: C_2  and  O_3
REMARK    3  A    between atoms: O_3  and  C_4
REMARK    4  A    between atoms: C_4  and  C_6
REMARK    5  A    between atoms: C_8  and  S_9
REMARK    6  A    between atoms: S_9  and  C_10
REMARK    7  A    between atoms: C_10  and  C_11
REMARK    8  A    between atoms: C_10  and  C_12
REMARK    9  A    between atoms: C_13  and  C_14
REMARK   10  A    between atoms: C_16  and  C_17
REMARK   11  A    between atoms: C_19  and  O_20
REMARK   12  A    between atoms: C_22  and  O_23
REMARK                            x       y       z     vdW  Elec       q    Type
REMARK                         _______ _______ _______ _____ _____    ______ ____
ROOT
ATOM      1  C   UNL     1       5.305   4.443  15.907  0.00  0.00    +0.000 A 
ATOM      2  S   UNL     1       4.883   3.556  14.499  0.00  0.00    +0.000 S 
ATOM      3  C   UNL     1       6.246   4.099  13.624  0.00  0.00    +0.000 A 
ATOM      4  C   UNL     1       7.042   4.919  14.401  0.00  0.00    +0.000 A 
ATOM      5  C   UNL     1       6.526   5.104  15.750  0.00  0.00    +0.000 A 
ENDROOT
BRANCH   5   6
ATOM      6  C   UNL     1       7.170   5.868  16.843  0.00  0.00    +0.000 A 
ATOM      7  C   UNL     1       7.620   5.216  18.001  0.00  0.00    +0.000 A 
ATOM      8  C   UNL     1       8.109   5.948  19.084  0.00  0.00    +0.000 A 
ATOM      9  C   UNL     1       8.252   7.326  19.012  0.00  0.00    +0.000 A 
ATOM     10  C   UNL     1       7.856   7.974  17.851  0.00  0.00    +0.000 A 
ATOM     11  C   UNL     1       7.289   7.265  16.791  0.00  0.00    +0.000 A 
BRANCH   8  12
ATOM     12  O   UNL     1       8.444   5.332  20.254  0.00  0.00    +0.000 OA
ATOM     13  H   UNL     1       7.770   5.548  20.922  0.00  0.00    +0.000 HD
ENDBRANCH   8  12
BRANCH  10  14
ATOM     14  O   UNL     1       7.989   9.324  17.712  0.00  0.00    +0.000 OA
ATOM     15  H   UNL     1       8.936   9.535  17.652  0.00  0.00    +0.000 HD
ENDBRANCH  10  14
ENDBRANCH   5   6
BRANCH   1  16
ATOM     16  C   UNL     1       4.378   4.471  17.029  0.00  0.00    +0.000 C 
ATOM     17  O   UNL     1       3.843   5.478  17.476  0.00  0.00    +0.000 OA
BRANCH  16  18
ATOM     18  O   UNL     1       4.228   3.225  17.577  0.00  0.00    +0.000 OA
BRANCH  18  20
ATOM     19  C   UNL     1       2.734   1.839  18.880  0.00  0.00    +0.000 C 
ATOM     20  C   UNL     1       2.872   2.758  17.679  0.00  0.00    +0.000 C 
ENDBRANCH  18  20
ENDBRANCH  16  18
ENDBRANCH   1  16
BRANCH   4  21
ATOM     21  C   UNL     1       8.238   5.535  13.896  0.00  0.00    +0.000 C 
ATOM     22  N   UNL     1       9.185   6.029  13.446  0.00  0.00    +0.000 NA
ENDBRANCH   4  21
BRANCH   3  23
ATOM     23  S   UNL     1       6.409   3.652  11.921  0.00  0.00    +0.000 S 
BRANCH  23  24
ATOM     24  C   UNL     1       5.134   2.366  11.655  0.00  0.00    +0.000 C 
ATOM     25  C   UNL     1       3.957   2.890  10.837  0.00  0.00    +0.000 C 
ATOM     26  C   UNL     1       5.782   1.189  10.924  0.00  0.00    +0.000 C 
ENDBRANCH  23  24
ENDBRANCH   3  23
TORSDOF 9
ENDMDL
MODEL 8
REMARK VINA RESULT:      -5.3      3.370      4.812
REMARK  Name = 
REMARK  12 active torsions:
REMARK  status: ('A' for Active; 'I' for Inactive)
REMARK    1  A    between atoms: C_1  and  C_2
REMARK    2  A    between atoms: C_2  and  O_3
REMARK    3  A    between atoms: O_3  and  C_4
REMARK    4  A    between atoms: C_4  and  C_6
REMARK    5  A    between atoms: C_8  and  S_9
REMARK    6  A    between atoms: S_9  and  C_10
REMARK    7  A    between atoms: C_10  and  C_11
REMARK    8  A    between atoms: C_10  and  C_12
REMARK    9  A    between atoms: C_13  and  C_14
REMARK   10  A    between atoms: C_16  and  C_17
REMARK   11  A    between atoms: C_19  and  O_20
REMARK   12  A    between atoms: C_22  and  O_23
REMARK                            x       y       z     vdW  Elec       q    Type
REMARK                         _______ _______ _______ _____ _____    ______ ____
ROOT
ATOM      1  C   UNL     1       5.238   4.302  15.953  0.00  0.00    +0.000 A 
ATOM      2  S   UNL     1       4.882   3.406  14.533  0.00  0.00    +0.000 S 
ATOM      3  C   UNL     1       6.228   4.024  13.682  0.00  0.00    +0.000 A 
ATOM      4  C   UNL     1       6.970   4.877  14.476  0.00  0.00    +0.000 A 
ATOM      5  C   UNL     1       6.426   5.025  15.819  0.00  0.00    +0.000 A 
ENDROOT
BRANCH   5   6
ATOM      6  C   UNL     1       7.014   5.812  16.926  0.00  0.00    +0.000 A 
ATOM      7  C   UNL     1       7.131   7.207  16.829  0.00  0.00    +0.000 A 
ATOM      8  C   UNL     1       7.800   7.934  17.814  0.00  0.00    +0.000 A 
ATOM      9  C   UNL     1       8.285   7.317  18.957  0.00  0.00    +0.000 A 
ATOM     10  C   UNL     1       8.130   5.944  19.085  0.00  0.00    +0.000 A 
ATOM     11  C   UNL     1       7.536   5.191  18.071  0.00  0.00    +0.000 A 
BRANCH   8  12
ATOM     12  O   UNL     1       8.015   9.274  17.673  0.00  0.00    +0.000 OA
ATOM     13  H   UNL     1       8.607   9.415  16.913  0.00  0.00    +0.000 HD
ENDBRANCH   8  12
BRANCH  10  14
ATOM     14  O   UNL     1       8.568   5.281  20.194  0.00  0.00    +0.000 OA
ATOM     15  H   UNL     1       9.540   5.309  20.204  0.00  0.00    +0.000 HD
ENDBRANCH  10  14
ENDBRANCH   5   6
BRANCH   1  16
ATOM     16  C   UNL     1       4.294   4.274  17.061  0.00  0.00    +0.000 C 
ATOM     17  O   UNL     1       3.742   5.256  17.541  0.00  0.00    +0.000 OA
BRANCH  16  18
ATOM     18  O   UNL     1       4.151   3.005  17.556  0.00  0.00    +0.000 OA
BRANCH  18  20
ATOM     19  C   UNL     1       2.547   2.105  19.127  0.00  0.00    +0.000 C 
ATOM     20  C   UNL     1       2.795   2.551  17.697  0.00  0.00    +0.000 C 
ENDBRANCH  18  20
ENDBRANCH  16  18
ENDBRANCH   1  16
BRANCH   4  21
ATOM     21  C   UNL     1       8.141   5.556  13.993  0.00  0.00    +0.000 C 
ATOM     22  N   UNL     1       9.110   6.070  13.621  0.00  0.00    +0.000 NA
ENDBRANCH   4  21
BRANCH   3  23
ATOM     23  S   UNL     1       6.438   3.599  11.978  0.00  0.00    +0.000 S 
BRANCH  23  24
ATOM     24  C   UNL     1       5.170   2.318  11.660  0.00  0.00    +0.000 C 
ATOM     25  C   UNL     1       4.000   2.862  10.845  0.00  0.00    +0.000 C 
ATOM     26  C   UNL     1       5.830   1.164  10.902  0.00  0.00    +0.000 C 
ENDBRANCH  23  24
ENDBRANCH   3  23
TORSDOF 9
ENDMDL
MODEL 9
REMARK VINA RESULT:      -5.2      6.570     10.248
REMARK  Name = 
REMARK  12 active torsions:
REMARK  status: ('A' for Active; 'I' for Inactive)
REMARK    1  A    between atoms: C_1  and  C_2
REMARK    2  A    between atoms: C_2  and  O_3
REMARK    3  A    between atoms: O_3  and  C_4
REMARK    4  A    between atoms: C_4  and  C_6
REMARK    5  A    between atoms: C_8  and  S_9
REMARK    6  A    between atoms: S_9  and  C_10
REMARK    7  A    between atoms: C_10  and  C_11
REMARK    8  A    between atoms: C_10  and  C_12
REMARK    9  A    between atoms: C_13  and  C_14
REMARK   10  A    between atoms: C_16  and  C_17
REMARK   11  A    between atoms: C_19  and  O_20
REMARK   12  A    between atoms: C_22  and  O_23
REMARK                            x       y       z     vdW  Elec       q    Type
REMARK                         _______ _______ _______ _____ _____    ______ ____
ROOT
ATOM      1  C   UNL     1      -2.954  11.434  19.070  0.00  0.00    +0.000 A 
ATOM      2  S   UNL     1      -4.123  12.598  19.545  0.00  0.00    +0.000 S 
ATOM      3  C   UNL     1      -3.244  13.066  20.932  0.00  0.00    +0.000 A 
ATOM      4  C   UNL     1      -2.050  12.375  21.021  0.00  0.00    +0.000 A 
ATOM      5  C   UNL     1      -1.848  11.441  19.922  0.00  0.00    +0.000 A 
ENDROOT
BRANCH   5   6
ATOM      6  C   UNL     1      -0.652  10.600  19.689  0.00  0.00    +0.000 A 
ATOM      7  C   UNL     1      -0.263   9.633  20.629  0.00  0.00    +0.000 A 
ATOM      8  C   UNL     1       0.932   8.931  20.473  0.00  0.00    +0.000 A 
ATOM      9  C   UNL     1       1.720   9.097  19.345  0.00  0.00    +0.000 A 
ATOM     10  C   UNL     1       1.317  10.014  18.385  0.00  0.00    +0.000 A 
ATOM     11  C   UNL     1       0.167  10.784  18.565  0.00  0.00    +0.000 A 
BRANCH   8  12
ATOM     12  O   UNL     1       1.372   8.072  21.438  0.00  0.00    +0.000 OA
ATOM     13  H   UNL     1       1.077   7.173  21.210  0.00  0.00    +0.000 HD
ENDBRANCH   8  12
BRANCH  10  14
ATOM     14  O   UNL     1       2.039  10.209  17.244  0.00  0.00    +0.000 OA
ATOM     15  H   UNL     1       2.656  10.946  17.393  0.00  0.00    +0.000 HD
ENDBRANCH  10  14
ENDBRANCH   5   6
BRANCH   1  16
ATOM     16  C   UNL     1      -3.242  10.566  17.937  0.00  0.00    +0.000 C 
ATOM     17  O   UNL     1      -3.263   9.341  17.975  0.00  0.00    +0.000 OA
BRANCH  16  18
ATOM     18  O   UNL     1      -3.421  11.293  16.790  0.00  0.00    +0.000 OA
BRANCH  18  20
ATOM     19  C   UNL     1      -3.493  10.204  14.631  0.00  0.00    +0.000 C 
ATOM     20  C   UNL     1      -2.619  10.882  15.671  0.00  0.00    +0.000 C 
ENDBRANCH  18  20
ENDBRANCH  16  18
ENDBRANCH   1  16
BRANCH   4  21
ATOM     21  C   UNL     1      -1.133  12.559  22.112  0.00  0.00    +0.000 C 
ATOM     22  N   UNL     1      -0.428  12.720  23.017  0.00  0.00    +0.000 NA
ENDBRANCH   4  21
BRANCH   3  23
ATOM     23  S   UNL     1      -3.961  14.228  22.056  0.00  0.00    +0.000 S 
BRANCH  23  24
ATOM     24  C   UNL     1      -4.994  13.212  23.174  0.00  0.00    +0.000 C 
ATOM     25  C   UNL     1      -4.189  12.652  24.344  0.00  0.00    +0.000 C 
ATOM     26  C   UNL     1      -6.131  14.087  23.708  0.00  0.00    +0.000 C 
ENDBRANCH  23  24
ENDBRANCH   3  23
TORSDOF 9
ENDMDL
