MODEL 1
REMARK VINA RESULT:      -6.7      0.000      0.000
REMARK  Name = 
REMARK  9 active torsions:
REMARK  status: ('A' for Active; 'I' for Inactive)
REMARK    1  A    between atoms: C_1  and  N_2
REMARK    2  A    between atoms: C_3  and  O_5
REMARK    3  A    between atoms: O_5  and  C_6
REMARK    4  A    between atoms: C_6  and  C_7
REMARK    5  A    between atoms: N_10  and  C_11
REMARK    6  A    between atoms: C_13  and  C_14
REMARK    7  A    between atoms: C_14  and  O_15
REMARK    8  A    between atoms: O_15  and  C_16
REMARK    9  A    between atoms: N_18  and  C_19
REMARK                            x       y       z     vdW  Elec       q    Type
REMARK                         _______ _______ _______ _____ _____    ______ ____
ROOT
ATOM      1  C   UNL     1       3.737   3.673  17.470  0.00  0.00    +0.000 C 
ATOM      2  C   UNL     1       3.255   2.424  17.421  0.00  0.00    +0.000 C 
ATOM      3  C   UNL     1       2.532   2.072  18.675  0.00  0.00    +0.000 C 
ATOM      4  N   UNL     1       2.844   3.184  19.669  0.00  0.00    +0.000 N 
ATOM      5  C   UNL     1       1.627   3.570  20.448  0.00  0.00    +0.000 C 
ATOM      6  O   UNL     1       3.808   2.740  20.551  0.00  0.00    +0.000 OA
ATOM      7  C   UNL     1       3.359   4.347  18.773  0.00  0.00    +0.000 C 
ENDROOT
BRANCH   1   8
ATOM      8  C   UNL     1       4.518   4.345  16.394  0.00  0.00    +0.000 C 
BRANCH   8   9
ATOM      9  O   UNL     1       5.818   3.760  16.291  0.00  0.00    +0.000 OA
BRANCH   9  12
ATOM     10  C   UNL     1       6.645   3.842  12.808  0.00  0.00    +0.000 C 
ATOM     11  N   UNL     1       6.027   3.631  14.088  0.00  0.00    +0.000 N 
ATOM     12  C   UNL     1       6.543   4.175  15.223  0.00  0.00    +0.000 C 
ATOM     13  O   UNL     1       7.516   4.914  15.263  0.00  0.00    +0.000 OA
ATOM     14  H   UNL     1       5.230   3.018  14.194  0.00  0.00    +0.000 HD
ENDBRANCH   9  12
ENDBRANCH   8   9
ENDBRANCH   1   8
BRANCH   7  15
ATOM     15  C   UNL     1       4.454   5.195  19.442  0.00  0.00    +0.000 C 
BRANCH  15  16
ATOM     16  O   UNL     1       5.756   4.572  19.390  0.00  0.00    +0.000 OA
BRANCH  16  17
ATOM     17  C   UNL     1       6.815   5.409  19.336  0.00  0.00    +0.000 C 
ATOM     18  O   UNL     1       7.724   5.440  20.150  0.00  0.00    +0.000 OA
ATOM     19  N   UNL     1       6.722   6.170  18.215  0.00  0.00    +0.000 N 
ATOM     20  C   UNL     1       7.695   7.164  17.851  0.00  0.00    +0.000 C 
ATOM     21  H   UNL     1       5.918   5.994  17.626  0.00  0.00    +0.000 HD
ENDBRANCH  16  17
ENDBRANCH  15  16
ENDBRANCH   7  15
TORSDOF 6
ENDMDL
MODEL 2
REMARK VINA RESULT:      -6.6      1.846      3.727
REMARK  Name = 
REMARK  9 active torsions:
REMARK  status: ('A' for Active; 'I' for Inactive)
REMARK    1  A    between atoms: C_1  and  N_2
REMARK    2  A    between atoms: C_3  and  O_5
REMARK    3  A    between atoms: O_5  and  C_6
REMARK    4  A    between atoms: C_6  and  C_7
REMARK    5  A    between atoms: N_10  and  C_11
REMARK    6  A    between atoms: C_13  and  C_14
REMARK    7  A    between atoms: C_14  and  O_15
REMARK    8  A    between atoms: O_15  and  C_16
REMARK    9  A    between atoms: N_18  and  C_19
REMARK                            x       y       z     vdW  Elec       q    Type
REMARK                         _______ _______ _______ _____ _____    ______ ____
ROOT
ATOM      1  C   UNL     1       5.820   5.862  17.658  0.00  0.00    +0.000 C 
ATOM      2  C   UNL     1       5.216   6.927  17.113  0.00  0.00    +0.000 C 
ATOM      3  C   UNL     1       3.825   7.082  17.623  0.00  0.00    +0.000 C 
ATOM      4  N   UNL     1       3.509   5.800  18.384  0.00  0.00    +0.000 N 
ATOM      5  C   UNL     1       2.769   6.092  19.651  0.00  0.00    +0.000 C 
ATOM      6  O   UNL     1       2.721   4.991  17.592  0.00  0.00    +0.000 OA
ATOM      7  C   UNL     1       4.908   5.174  18.653  0.00  0.00    +0.000 C 
ENDROOT
BRANCH   1   8
ATOM      8  C   UNL     1       7.208   5.407  17.366  0.00  0.00    +0.000 C 
BRANCH   8   9
ATOM      9  O   UNL     1       7.182   4.281  16.486  0.00  0.00    +0.000 OA
BRANCH   9  12
ATOM     10  C   UNL     1       6.130   3.697  13.115  0.00  0.00    +0.000 C 
ATOM     11  N   UNL     1       6.332   3.658  14.536  0.00  0.00    +0.000 N 
ATOM     12  C   UNL     1       7.092   4.592  15.170  0.00  0.00    +0.000 C 
ATOM     13  O   UNL     1       7.615   5.553  14.626  0.00  0.00    +0.000 OA
ATOM     14  H   UNL     1       5.974   2.899  15.099  0.00  0.00    +0.000 HD
ENDBRANCH   9  12
ENDBRANCH   8   9
ENDBRANCH   1   8
BRANCH   7  15
ATOM     15  C   UNL     1       4.906   3.637  18.624  0.00  0.00    +0.000 C 
BRANCH  15  16
ATOM     16  O   UNL     1       4.832   3.051  19.941  0.00  0.00    +0.000 OA
BRANCH  16  17
ATOM     17  C   UNL     1       3.610   2.631  20.338  0.00  0.00    +0.000 C 
ATOM     18  O   UNL     1       3.267   2.478  21.500  0.00  0.00    +0.000 OA
ATOM     19  N   UNL     1       2.825   2.452  19.245  0.00  0.00    +0.000 N 
ATOM     20  C   UNL     1       1.459   2.012  19.316  0.00  0.00    +0.000 C 
ATOM     21  H   UNL     1       3.257   2.656  18.353  0.00  0.00    +0.000 HD
ENDBRANCH  16  17
ENDBRANCH  15  16
ENDBRANCH   7  15
TORSDOF 6
ENDMDL
MODEL 3
REMARK VINA RESULT:      -6.5      2.056      3.635
REMARK  Name = 
REMARK  9 active torsions:
REMARK  status: ('A' for Active; 'I' for Inactive)
REMARK    1  A    between atoms: C_1  and  N_2
REMARK    2  A    between atoms: C_3  and  O_5
REMARK    3  A    between atoms: O_5  and  C_6
REMARK    4  A    between atoms: C_6  and  C_7
REMARK    5  A    between atoms: N_10  and  C_11
REMARK    6  A    between atoms: C_13  and  C_14
REMARK    7  A    between atoms: C_14  and  O_15
REMARK    8  A    between atoms: O_15  and  C_16
REMARK    9  A    between atoms: N_18  and  C_19
REMARK                            x       y       z     vdW  Elec       q    Type
REMARK                         _______ _______ _______ _____ _____    ______ ____
ROOT
ATOM      1  C   UNL     1       4.870   4.902  16.740  0.00  0.00    +0.000 C 
ATOM      2  C   UNL     1       4.804   6.233  16.598  0.00  0.00    +0.000 C 
ATOM      3  C   UNL     1       3.885   6.841  17.600  0.00  0.00    +0.000 C 
ATOM      4  N   UNL     1       3.143   5.680  18.252  0.00  0.00    +0.000 N 
ATOM      5  C   UNL     1       3.014   5.882  19.728  0.00  0.00    +0.000 C 
ATOM      6  O   UNL     1       1.878   5.594  17.708  0.00  0.00    +0.000 OA
ATOM      7  C   UNL     1       4.017   4.441  17.904  0.00  0.00    +0.000 C 
ENDROOT
BRANCH   1   8
ATOM      8  C   UNL     1       5.685   3.978  15.902  0.00  0.00    +0.000 C 
BRANCH   8   9
ATOM      9  O   UNL     1       6.913   4.606  15.529  0.00  0.00    +0.000 OA
BRANCH   9  12
ATOM     10  C   UNL     1       6.514   3.494  12.149  0.00  0.00    +0.000 C 
ATOM     11  N   UNL     1       6.415   3.703  13.567  0.00  0.00    +0.000 N 
ATOM     12  C   UNL     1       7.132   4.674  14.192  0.00  0.00    +0.000 C 
ATOM     13  O   UNL     1       7.864   5.474  13.629  0.00  0.00    +0.000 OA
ATOM     14  H   UNL     1       5.862   3.092  14.152  0.00  0.00    +0.000 HD
ENDBRANCH   9  12
ENDBRANCH   8   9
ENDBRANCH   1   8
BRANCH   7  15
ATOM     15  C   UNL     1       3.198   3.159  17.680  0.00  0.00    +0.000 C 
BRANCH  15  16
ATOM     16  O   UNL     1       3.711   2.029  18.417  0.00  0.00    +0.000 OA
BRANCH  16  17
ATOM     17  C   UNL     1       3.816   2.188  19.755  0.00  0.00    +0.000 C 
ATOM     18  O   UNL     1       4.859   2.125  20.386  0.00  0.00    +0.000 OA
ATOM     19  N   UNL     1       2.590   2.471  20.265  0.00  0.00    +0.000 N 
ATOM     20  C   UNL     1       2.350   2.704  21.663  0.00  0.00    +0.000 C 
ATOM     21  H   UNL     1       1.833   2.519  19.596  0.00  0.00    +0.000 HD
ENDBRANCH  16  17
ENDBRANCH  15  16
ENDBRANCH   7  15
TORSDOF 6
ENDMDL
MODEL 4
REMARK VINA RESULT:      -6.5      0.945      1.029
REMARK  Name = 
REMARK  9 active torsions:
REMARK  status: ('A' for Active; 'I' for Inactive)
REMARK    1  A    between atoms: C_1  and  N_2
REMARK    2  A    between atoms: C_3  and  O_5
REMARK    3  A    between atoms: O_5  and  C_6
REMARK    4  A    between atoms: C_6  and  C_7
REMARK    5  A    between atoms: N_10  and  C_11
REMARK    6  A    between atoms: C_13  and  C_14
REMARK    7  A    between atoms: C_14  and  O_15
REMARK    8  A    between atoms: O_15  and  C_16
REMARK    9  A    between atoms: N_18  and  C_19
REMARK                            x       y       z     vdW  Elec       q    Type
REMARK                         _______ _______ _______ _____ _____    ______ ____
ROOT
ATOM      1  C   UNL     1       3.858   3.661  17.555  0.00  0.00    +0.000 C 
ATOM      2  C   UNL     1       3.261   2.462  17.529  0.00  0.00    +0.000 C 
ATOM      3  C   UNL     1       2.907   2.003  18.901  0.00  0.00    +0.000 C 
ATOM      4  N   UNL     1       3.605   2.959  19.860  0.00  0.00    +0.000 N 
ATOM      5  C   UNL     1       2.715   3.322  21.006  0.00  0.00    +0.000 C 
ATOM      6  O   UNL     1       4.736   2.346  20.360  0.00  0.00    +0.000 OA
ATOM      7  C   UNL     1       3.949   4.189  18.972  0.00  0.00    +0.000 C 
ENDROOT
BRANCH   1   8
ATOM      8  C   UNL     1       4.352   4.411  16.366  0.00  0.00    +0.000 C 
BRANCH   8   9
ATOM      9  O   UNL     1       5.361   3.655  15.692  0.00  0.00    +0.000 OA
BRANCH   9  12
ATOM     10  C   UNL     1       6.808   3.851  12.423  0.00  0.00    +0.000 C 
ATOM     11  N   UNL     1       6.125   3.450  13.621  0.00  0.00    +0.000 N 
ATOM     12  C   UNL     1       5.966   4.305  14.666  0.00  0.00    +0.000 C 
ATOM     13  O   UNL     1       6.322   5.473  14.673  0.00  0.00    +0.000 OA
ATOM     14  H   UNL     1       5.804   2.500  13.752  0.00  0.00    +0.000 HD
ENDBRANCH   9  12
ENDBRANCH   8   9
ENDBRANCH   1   8
BRANCH   7  15
ATOM     15  C   UNL     1       5.270   4.873  19.359  0.00  0.00    +0.000 C 
BRANCH  15  16
ATOM     16  O   UNL     1       6.430   4.178  18.855  0.00  0.00    +0.000 OA
BRANCH  16  17
ATOM     17  C   UNL     1       7.283   4.909  18.104  0.00  0.00    +0.000 C 
ATOM     18  O   UNL     1       8.196   4.450  17.435  0.00  0.00    +0.000 OA
ATOM     19  N   UNL     1       6.931   6.219  18.181  0.00  0.00    +0.000 N 
ATOM     20  C   UNL     1       7.631   7.267  17.492  0.00  0.00    +0.000 C 
ATOM     21  H   UNL     1       6.124   6.426  18.755  0.00  0.00    +0.000 HD
ENDBRANCH  16  17
ENDBRANCH  15  16
ENDBRANCH   7  15
TORSDOF 6
ENDMDL
MODEL 5
REMARK VINA RESULT:      -6.3      3.068      5.275
REMARK  Name = 
REMARK  9 active torsions:
REMARK  status: ('A' for Active; 'I' for Inactive)
REMARK    1  A    between atoms: C_1  and  N_2
REMARK    2  A    between atoms: C_3  and  O_5
REMARK    3  A    between atoms: O_5  and  C_6
REMARK    4  A    between atoms: C_6  and  C_7
REMARK    5  A    between atoms: N_10  and  C_11
REMARK    6  A    between atoms: C_13  and  C_14
REMARK    7  A    between atoms: C_14  and  O_15
REMARK    8  A    between atoms: O_15  and  C_16
REMARK    9  A    between atoms: N_18  and  C_19
REMARK                            x       y       z     vdW  Elec       q    Type
REMARK                         _______ _______ _______ _____ _____    ______ ____
ROOT
ATOM      1  C   UNL     1       2.241   4.612  19.807  0.00  0.00    +0.000 C 
ATOM      2  C   UNL     1       1.143   3.900  19.522  0.00  0.00    +0.000 C 
ATOM      3  C   UNL     1       1.479   2.658  18.771  0.00  0.00    +0.000 C 
ATOM      4  N   UNL     1       2.942   2.793  18.366  0.00  0.00    +0.000 N 
ATOM      5  C   UNL     1       3.673   1.500  18.541  0.00  0.00    +0.000 C 
ATOM      6  O   UNL     1       3.007   3.159  17.037  0.00  0.00    +0.000 OA
ATOM      7  C   UNL     1       3.486   3.906  19.308  0.00  0.00    +0.000 C 
ENDROOT
BRANCH   1   8
ATOM      8  C   UNL     1       2.271   5.910  20.537  0.00  0.00    +0.000 C 
BRANCH   8   9
ATOM      9  O   UNL     1       2.204   6.997  19.611  0.00  0.00    +0.000 OA
BRANCH   9  12
ATOM     10  C   UNL     1       1.110   9.116  22.281  0.00  0.00    +0.000 C 
ATOM     11  N   UNL     1       1.671   8.066  21.479  0.00  0.00    +0.000 N 
ATOM     12  C   UNL     1       1.695   8.146  20.122  0.00  0.00    +0.000 C 
ATOM     13  O   UNL     1       1.307   9.105  19.472  0.00  0.00    +0.000 OA
ATOM     14  H   UNL     1       2.003   7.206  21.894  0.00  0.00    +0.000 HD
ENDBRANCH   9  12
ENDBRANCH   8   9
ENDBRANCH   1   8
BRANCH   7  15
ATOM     15  C   UNL     1       4.554   4.795  18.650  0.00  0.00    +0.000 C 
BRANCH  15  16
ATOM     16  O   UNL     1       5.872   4.208  18.685  0.00  0.00    +0.000 OA
BRANCH  16  17
ATOM     17  C   UNL     1       6.601   4.312  17.552  0.00  0.00    +0.000 C 
ATOM     18  O   UNL     1       7.769   4.663  17.501  0.00  0.00    +0.000 OA
ATOM     19  N   UNL     1       5.839   3.922  16.497  0.00  0.00    +0.000 N 
ATOM     20  C   UNL     1       6.314   3.907  15.141  0.00  0.00    +0.000 C 
ATOM     21  H   UNL     1       4.897   3.627  16.718  0.00  0.00    +0.000 HD
ENDBRANCH  16  17
ENDBRANCH  15  16
ENDBRANCH   7  15
TORSDOF 6
ENDMDL
MODEL 6
REMARK VINA RESULT:      -6.3      1.564      5.650
REMARK  Name = 
REMARK  9 active torsions:
REMARK  status: ('A' for Active; 'I' for Inactive)
REMARK    1  A    between atoms: C_1  and  N_2
REMARK    2  A    between atoms: C_3  and  O_5
REMARK    3  A    between atoms: O_5  and  C_6
REMARK    4  A    between atoms: C_6  and  C_7
REMARK    5  A    between atoms: N_10  and  C_11
REMARK    6  A    between atoms: C_13  and  C_14
REMARK    7  A    between atoms: C_14  and  O_15
REMARK    8  A    between atoms: O_15  and  C_16
REMARK    9  A    between atoms: N_18  and  C_19
REMARK                            x       y       z     vdW  Elec       q    Type
REMARK                         _______ _______ _______ _____ _____    ______ ____
ROOT
ATOM      1  C   UNL     1       4.999   4.465  17.877  0.00  0.00    +0.000 C 
ATOM      2  C   UNL     1       5.222   4.616  19.190  0.00  0.00    +0.000 C 
ATOM      3  C   UNL     1       6.477   5.378  19.444  0.00  0.00    +0.000 C 
ATOM      4  N   UNL     1       7.191   5.474  18.101  0.00  0.00    +0.000 N 
ATOM      5  C   UNL     1       7.777   6.835  17.897  0.00  0.00    +0.000 C 
ATOM      6  O   UNL     1       8.213   4.547  18.070  0.00  0.00    +0.000 OA
ATOM      7  C   UNL     1       6.076   5.155  17.065  0.00  0.00    +0.000 C 
ENDROOT
BRANCH   1   8
ATOM      8  C   UNL     1       3.844   3.747  17.269  0.00  0.00    +0.000 C 
BRANCH   8   9
ATOM      9  O   UNL     1       3.397   2.707  18.142  0.00  0.00    +0.000 OA
BRANCH   9  12
ATOM     10  C   UNL     1       0.839   3.889  20.351  0.00  0.00    +0.000 C 
ATOM     11  N   UNL     1       2.069   3.640  19.651  0.00  0.00    +0.000 N 
ATOM     12  C   UNL     1       2.113   2.832  18.559  0.00  0.00    +0.000 C 
ATOM     13  O   UNL     1       1.140   2.298  18.047  0.00  0.00    +0.000 OA
ATOM     14  H   UNL     1       2.950   4.003  19.989  0.00  0.00    +0.000 HD
ENDBRANCH   9  12
ENDBRANCH   8   9
ENDBRANCH   1   8
BRANCH   7  15
ATOM     15  C   UNL     1       6.589   4.393  15.831  0.00  0.00    +0.000 C 
BRANCH  15  16
ATOM     16  O   UNL     1       7.361   5.224  14.939  0.00  0.00    +0.000 OA
BRANCH  16  17
ATOM     17  C   UNL     1       7.296   4.910  13.626  0.00  0.00    +0.000 C 
ATOM     18  O   UNL     1       7.913   5.479  12.740  0.00  0.00    +0.000 OA
ATOM     19  N   UNL     1       6.475   3.840  13.466  0.00  0.00    +0.000 N 
ATOM     20  C   UNL     1       6.192   3.245  12.189  0.00  0.00    +0.000 C 
ATOM     21  H   UNL     1       6.069   3.465  14.313  0.00  0.00    +0.000 HD
ENDBRANCH  16  17
ENDBRANCH  15  16
ENDBRANCH   7  15
TORSDOF 6
ENDMDL
MODEL 7
REMARK VINA RESULT:      -6.3      2.595      5.407
REMARK  Name = 
REMARK  9 active torsions:
REMARK  status: ('A' for Active; 'I' for Inactive)
REMARK    1  A    between atoms: C_1  and  N_2
REMARK    2  A    between atoms: C_3  and  O_5
REMARK    3  A    between atoms: O_5  and  C_6
REMARK    4  A    between atoms: C_6  and  C_7
REMARK    5  A    between atoms: N_10  and  C_11
REMARK    6  A    between atoms: C_13  and  C_14
REMARK    7  A    between atoms: C_14  and  O_15
REMARK    8  A    between atoms: O_15  and  C_16
REMARK    9  A    between atoms: N_18  and  C_19
REMARK                            x       y       z     vdW  Elec       q    Type
REMARK                         _______ _______ _______ _____ _____    ______ ____
ROOT
ATOM      1  C   UNL     1       4.530   4.118  16.971  0.00  0.00    +0.000 C 
ATOM      2  C   UNL     1       5.451   3.723  16.082  0.00  0.00    +0.000 C 
ATOM      3  C   UNL     1       6.503   4.761  15.893  0.00  0.00    +0.000 C 
ATOM      4  N   UNL     1       5.989   6.015  16.589  0.00  0.00    +0.000 N 
ATOM      5  C   UNL     1       7.083   6.702  17.343  0.00  0.00    +0.000 C 
ATOM      6  O   UNL     1       5.497   6.885  15.638  0.00  0.00    +0.000 OA
ATOM      7  C   UNL     1       4.872   5.483  17.532  0.00  0.00    +0.000 C 
ENDROOT
BRANCH   1   8
ATOM      8  C   UNL     1       3.335   3.333  17.391  0.00  0.00    +0.000 C 
BRANCH   8   9
ATOM      9  O   UNL     1       3.740   2.180  18.133  0.00  0.00    +0.000 OA
BRANCH   9  12
ATOM     10  C   UNL     1       2.474   2.864  21.411  0.00  0.00    +0.000 C 
ATOM     11  N   UNL     1       2.635   2.557  20.017  0.00  0.00    +0.000 N 
ATOM     12  C   UNL     1       3.867   2.381  19.468  0.00  0.00    +0.000 C 
ATOM     13  O   UNL     1       4.919   2.410  20.089  0.00  0.00    +0.000 OA
ATOM     14  H   UNL     1       1.844   2.530  19.389  0.00  0.00    +0.000 HD
ENDBRANCH   9  12
ENDBRANCH   8   9
ENDBRANCH   1   8
BRANCH   7  15
ATOM     15  C   UNL     1       3.698   6.462  17.702  0.00  0.00    +0.000 C 
BRANCH  15  16
ATOM     16  O   UNL     1       3.141   6.444  19.034  0.00  0.00    +0.000 OA
BRANCH  16  17
ATOM     17  C   UNL     1       2.334   7.480  19.356  0.00  0.00    +0.000 C 
ATOM     18  O   UNL     1       1.968   8.348  18.580  0.00  0.00    +0.000 OA
ATOM     19  N   UNL     1       1.968   7.368  20.659  0.00  0.00    +0.000 N 
ATOM     20  C   UNL     1       1.104   8.307  21.320  0.00  0.00    +0.000 C 
ATOM     21  H   UNL     1       2.335   6.565  21.154  0.00  0.00    +0.000 HD
ENDBRANCH  16  17
ENDBRANCH  15  16
ENDBRANCH   7  15
TORSDOF 6
ENDMDL
MODEL 8
REMARK VINA RESULT:      -6.3      2.143      4.045
REMARK  Name = 
REMARK  9 active torsions:
REMARK  status: ('A' for Active; 'I' for Inactive)
REMARK    1  A    between atoms: C_1  and  N_2
REMARK    2  A    between atoms: C_3  and  O_5
REMARK    3  A    between atoms: O_5  and  C_6
REMARK    4  A    between atoms: C_6  and  C_7
REMARK    5  A    between atoms: N_10  and  C_11
REMARK    6  A    between atoms: C_13  and  C_14
REMARK    7  A    between atoms: C_14  and  O_15
REMARK    8  A    between atoms: O_15  and  C_16
REMARK    9  A    between atoms: N_18  and  C_19
REMARK                            x       y       z     vdW  Elec       q    Type
REMARK                         _______ _______ _______ _____ _____    ______ ____
ROOT
ATOM      1  C   UNL     1       5.138   5.269  16.768  0.00  0.00    +0.000 C 
ATOM      2  C   UNL     1       4.820   6.562  16.615  0.00  0.00    +0.000 C 
ATOM      3  C   UNL     1       3.783   6.985  17.597  0.00  0.00    +0.000 C 
ATOM      4  N   UNL     1       3.267   5.706  18.245  0.00  0.00    +0.000 N 
ATOM      5  C   UNL     1       3.075   5.885  19.717  0.00  0.00    +0.000 C 
ATOM      6  O   UNL     1       2.052   5.376  17.680  0.00  0.00    +0.000 OA
ATOM      7  C   UNL     1       4.369   4.657  17.921  0.00  0.00    +0.000 C 
ENDROOT
BRANCH   1   8
ATOM      8  C   UNL     1       6.130   4.516  15.950  0.00  0.00    +0.000 C 
BRANCH   8   9
ATOM      9  O   UNL     1       6.911   5.422  15.167  0.00  0.00    +0.000 OA
BRANCH   9  12
ATOM     10  C   UNL     1       6.304   3.376  12.292  0.00  0.00    +0.000 C 
ATOM     11  N   UNL     1       6.249   4.041  13.564  0.00  0.00    +0.000 N 
ATOM     12  C   UNL     1       7.134   5.020  13.891  0.00  0.00    +0.000 C 
ATOM     13  O   UNL     1       7.998   5.457  13.146  0.00  0.00    +0.000 OA
ATOM     14  H   UNL     1       5.596   3.755  14.281  0.00  0.00    +0.000 HD
ENDBRANCH   9  12
ENDBRANCH   8   9
ENDBRANCH   1   8
BRANCH   7  15
ATOM     15  C   UNL     1       3.816   3.240  17.692  0.00  0.00    +0.000 C 
BRANCH  15  16
ATOM     16  O   UNL     1       3.761   2.457  18.903  0.00  0.00    +0.000 OA
BRANCH  16  17
ATOM     17  C   UNL     1       2.543   2.326  19.474  0.00  0.00    +0.000 C 
ATOM     18  O   UNL     1       1.541   1.932  18.900  0.00  0.00    +0.000 OA
ATOM     19  N   UNL     1       2.631   2.661  20.787  0.00  0.00    +0.000 N 
ATOM     20  C   UNL     1       1.511   2.625  21.688  0.00  0.00    +0.000 C 
ATOM     21  H   UNL     1       3.548   2.935  21.113  0.00  0.00    +0.000 HD
ENDBRANCH  16  17
ENDBRANCH  15  16
ENDBRANCH   7  15
TORSDOF 6
ENDMDL
MODEL 9
REMARK VINA RESULT:      -6.2      1.313      3.878
REMARK  Name = 
REMARK  9 active torsions:
REMARK  status: ('A' for Active; 'I' for Inactive)
REMARK    1  A    between atoms: C_1  and  N_2
REMARK    2  A    between atoms: C_3  and  O_5
REMARK    3  A    between atoms: O_5  and  C_6
REMARK    4  A    between atoms: C_6  and  C_7
REMARK    5  A    between atoms: N_10  and  C_11
REMARK    6  A    between atoms: C_13  and  C_14
REMARK    7  A    between atoms: C_14  and  O_15
REMARK    8  A    between atoms: O_15  and  C_16
REMARK    9  A    between atoms: N_18  and  C_19
REMARK                            x       y       z     vdW  Elec       q    Type
REMARK                         _______ _______ _______ _____ _____    ______ ____
ROOT
ATOM      1  C   UNL     1       3.616   4.832  19.386  0.00  0.00    +0.000 C 
ATOM      2  C   UNL     1       2.588   4.834  20.246  0.00  0.00    +0.000 C 
ATOM      3  C   UNL     1       1.582   3.794  19.892  0.00  0.00    +0.000 C 
ATOM      4  N   UNL     1       1.969   3.286  18.508  0.00  0.00    +0.000 N 
ATOM      5  C   UNL     1       1.826   1.800  18.419  0.00  0.00    +0.000 C 
ATOM      6  O   UNL     1       1.139   3.865  17.570  0.00  0.00    +0.000 OA
ATOM      7  C   UNL     1       3.447   3.744  18.346  0.00  0.00    +0.000 C 
ENDROOT
BRANCH   1   8
ATOM      8  C   UNL     1       4.792   5.745  19.435  0.00  0.00    +0.000 C 
BRANCH   8   9
ATOM      9  O   UNL     1       5.992   4.993  19.626  0.00  0.00    +0.000 OA
BRANCH   9  12
ATOM     10  C   UNL     1       7.766   7.263  17.501  0.00  0.00    +0.000 C 
ATOM     11  N   UNL     1       6.769   6.529  18.230  0.00  0.00    +0.000 N 
ATOM     12  C   UNL     1       7.114   5.583  19.144  0.00  0.00    +0.000 C 
ATOM     13  O   UNL     1       8.260   5.309  19.468  0.00  0.00    +0.000 OA
ATOM     14  H   UNL     1       5.784   6.643  18.037  0.00  0.00    +0.000 HD
ENDBRANCH   9  12
ENDBRANCH   8   9
ENDBRANCH   1   8
BRANCH   7  15
ATOM     15  C   UNL     1       3.814   4.121  16.901  0.00  0.00    +0.000 C 
BRANCH  15  16
ATOM     16  O   UNL     1       5.232   4.041  16.644  0.00  0.00    +0.000 OA
BRANCH  16  17
ATOM     17  C   UNL     1       5.662   4.610  15.496  0.00  0.00    +0.000 C 
ATOM     18  O   UNL     1       5.734   5.812  15.295  0.00  0.00    +0.000 OA
ATOM     19  N   UNL     1       6.039   3.633  14.631  0.00  0.00    +0.000 N 
ATOM     20  C   UNL     1       6.553   3.897  13.315  0.00  0.00    +0.000 C 
ATOM     21  H   UNL     1       5.948   2.684  14.969  0.00  0.00    +0.000 HD
ENDBRANCH  16  17
ENDBRANCH  15  16
ENDBRANCH   7  15
TORSDOF 6
ENDMDL
