MODEL 1
REMARK VINA RESULT:      -7.7      0.000      0.000
REMARK  Name = 
REMARK  8 active torsions:
REMARK  status: ('A' for Active; 'I' for Inactive)
REMARK    1  A    between atoms: C_1  and  O_2
REMARK    2  A    between atoms: O_2  and  C_3
REMARK    3  A    between atoms: C_3  and  C_5
REMARK    4  A    between atoms: C_5  and  C_6
REMARK    5  A    between atoms: C_5  and  O_7
REMARK    6  A    between atoms: O_7  and  C_8
REMARK    7  A    between atoms: C_11  and  N_12
REMARK    8  A    between atoms: N_12  and  C_13
REMARK                            x       y       z     vdW  Elec       q    Type
REMARK                         _______ _______ _______ _____ _____    ______ ____
ROOT
ATOM      1  C   UNL     1       2.796   5.414  19.606  0.00  0.00    +0.000 A 
ATOM      2  C   UNL     1       2.680   6.347  18.579  0.00  0.00    +0.000 A 
ATOM      3  C   UNL     1       3.737   6.547  17.677  0.00  0.00    +0.000 A 
ATOM      4  C   UNL     1       4.955   5.853  17.796  0.00  0.00    +0.000 A 
ATOM      5  C   UNL     1       5.054   4.947  18.863  0.00  0.00    +0.000 A 
ATOM      6  C   UNL     1       3.997   4.732  19.758  0.00  0.00    +0.000 A 
ENDROOT
BRANCH   4   7
ATOM      7  N   UNL     1       6.013   6.050  16.888  0.00  0.00    +0.000 N 
ATOM      8  C   UNL     1       7.231   6.721  17.343  0.00  0.00    +0.000 C 
ATOM      9  C   UNL     1       6.189   5.412  15.640  0.00  0.00    +0.000 A 
ATOM     10  N   UNL     1       5.241   4.578  15.171  0.00  0.00    +0.000 NA
ATOM     11  C   UNL     1       5.475   3.931  14.008  0.00  0.00    +0.000 A 
ATOM     12  C   UNL     1       6.629   4.068  13.283  0.00  0.00    +0.000 A 
ATOM     13 CL   UNL     1       6.913   3.213  11.831  0.00  0.00    +0.000 Cl
ATOM     14  C   UNL     1       7.542   4.938  13.810  0.00  0.00    +0.000 A 
ATOM     15  N   UNL     1       7.346   5.613  14.966  0.00  0.00    +0.000 NA
ENDBRANCH   4   7
BRANCH   1  16
ATOM     16  O   UNL     1       1.686   5.239  20.383  0.00  0.00    +0.000 OA
BRANCH  16  17
ATOM     17  C   UNL     1       1.124   3.921  20.482  0.00  0.00    +0.000 C 
ATOM     18  C   UNL     1       1.830   3.094  21.561  0.00  0.00    +0.000 C 
BRANCH  17  19
ATOM     19  C   UNL     1       1.299   3.222  19.128  0.00  0.00    +0.000 C 
ATOM     20  O   UNL     1       0.834   3.599  18.062  0.00  0.00    +0.000 OA
BRANCH  19  22
ATOM     21  C   UNL     1       2.874   1.780  18.157  0.00  0.00    +0.000 C 
ATOM     22  O   UNL     1       2.042   2.081  19.277  0.00  0.00    +0.000 OA
ENDBRANCH  19  22
ENDBRANCH  17  19
ENDBRANCH  16  17
ENDBRANCH   1  16
TORSDOF 5
ENDMDL
MODEL 2
REMARK VINA RESULT:      -7.2      0.225      1.044
REMARK  Name = 
REMARK  8 active torsions:
REMARK  status: ('A' for Active; 'I' for Inactive)
REMARK    1  A    between atoms: C_1  and  O_2
REMARK    2  A    between atoms: O_2  and  C_3
REMARK    3  A    between atoms: C_3  and  C_5
REMARK    4  A    between atoms: C_5  and  C_6
REMARK    5  A    between atoms: C_5  and  O_7
REMARK    6  A    between atoms: O_7  and  C_8
REMARK    7  A    between atoms: C_11  and  N_12
REMARK    8  A    between atoms: N_12  and  C_13
REMARK                            x       y       z     vdW  Elec       q    Type
REMARK                         _______ _______ _______ _____ _____    ______ ____
ROOT
ATOM      1  C   UNL     1       2.892   5.383  19.754  0.00  0.00    +0.000 A 
ATOM      2  C   UNL     1       4.093   4.691  19.880  0.00  0.00    +0.000 A 
ATOM      3  C   UNL     1       5.139   4.910  18.970  0.00  0.00    +0.000 A 
ATOM      4  C   UNL     1       5.005   5.793  17.884  0.00  0.00    +0.000 A 
ATOM      5  C   UNL     1       3.769   6.448  17.764  0.00  0.00    +0.000 A 
ATOM      6  C   UNL     1       2.726   6.245  18.677  0.00  0.00    +0.000 A 
ENDROOT
BRANCH   4   7
ATOM      7  N   UNL     1       6.055   6.017  16.974  0.00  0.00    +0.000 N 
ATOM      8  C   UNL     1       7.273   6.685  17.436  0.00  0.00    +0.000 C 
ATOM      9  C   UNL     1       6.227   5.409  15.710  0.00  0.00    +0.000 A 
ATOM     10  N   UNL     1       5.280   4.581  15.229  0.00  0.00    +0.000 NA
ATOM     11  C   UNL     1       5.510   3.962  14.050  0.00  0.00    +0.000 A 
ATOM     12  C   UNL     1       6.658   4.123  13.320  0.00  0.00    +0.000 A 
ATOM     13 CL   UNL     1       6.936   3.303  11.847  0.00  0.00    +0.000 Cl
ATOM     14  C   UNL     1       7.569   4.985  13.861  0.00  0.00    +0.000 A 
ATOM     15  N   UNL     1       7.377   5.632  15.033  0.00  0.00    +0.000 NA
ENDBRANCH   4   7
BRANCH   1  16
ATOM     16  O   UNL     1       1.966   5.156  20.733  0.00  0.00    +0.000 OA
BRANCH  16  17
ATOM     17  C   UNL     1       1.369   3.853  20.819  0.00  0.00    +0.000 C 
ATOM     18  C   UNL     1       2.202   2.915  21.699  0.00  0.00    +0.000 C 
BRANCH  17  19
ATOM     19  C   UNL     1       1.293   3.265  19.404  0.00  0.00    +0.000 C 
ATOM     20  O   UNL     1       0.659   3.731  18.468  0.00  0.00    +0.000 OA
BRANCH  19  22
ATOM     21  C   UNL     1       2.740   1.954  18.104  0.00  0.00    +0.000 C 
ATOM     22  O   UNL     1       2.027   2.111  19.331  0.00  0.00    +0.000 OA
ENDBRANCH  19  22
ENDBRANCH  17  19
ENDBRANCH  16  17
ENDBRANCH   1  16
TORSDOF 5
ENDMDL
MODEL 3
REMARK VINA RESULT:      -7.1      5.635      7.489
REMARK  Name = 
REMARK  8 active torsions:
REMARK  status: ('A' for Active; 'I' for Inactive)
REMARK    1  A    between atoms: C_1  and  O_2
REMARK    2  A    between atoms: O_2  and  C_3
REMARK    3  A    between atoms: C_3  and  C_5
REMARK    4  A    between atoms: C_5  and  C_6
REMARK    5  A    between atoms: C_5  and  O_7
REMARK    6  A    between atoms: O_7  and  C_8
REMARK    7  A    between atoms: C_11  and  N_12
REMARK    8  A    between atoms: N_12  and  C_13
REMARK                            x       y       z     vdW  Elec       q    Type
REMARK                         _______ _______ _______ _____ _____    ______ ____
ROOT
ATOM      1  C   UNL     1       3.129   6.788  18.626  0.00  0.00    +0.000 A 
ATOM      2  C   UNL     1       2.957   7.834  17.725  0.00  0.00    +0.000 A 
ATOM      3  C   UNL     1       2.127   8.920  18.045  0.00  0.00    +0.000 A 
ATOM      4  C   UNL     1       1.412   8.975  19.255  0.00  0.00    +0.000 A 
ATOM      5  C   UNL     1       1.578   7.888  20.126  0.00  0.00    +0.000 A 
ATOM      6  C   UNL     1       2.417   6.808  19.819  0.00  0.00    +0.000 A 
ENDROOT
BRANCH   4   7
ATOM      7  N   UNL     1       0.584  10.067  19.579  0.00  0.00    +0.000 N 
ATOM      8  C   UNL     1       1.119  11.155  20.398  0.00  0.00    +0.000 C 
ATOM      9  C   UNL     1      -0.640  10.415  18.963  0.00  0.00    +0.000 A 
ATOM     10  N   UNL     1      -1.167   9.615  18.017  0.00  0.00    +0.000 NA
ATOM     11  C   UNL     1      -2.301  10.015  17.400  0.00  0.00    +0.000 A 
ATOM     12  C   UNL     1      -2.940  11.194  17.677  0.00  0.00    +0.000 A 
ATOM     13 CL   UNL     1      -4.356  11.691  16.859  0.00  0.00    +0.000 Cl
ATOM     14  C   UNL     1      -2.358  11.950  18.655  0.00  0.00    +0.000 A 
ATOM     15  N   UNL     1      -1.228  11.585  19.304  0.00  0.00    +0.000 NA
ENDBRANCH   4   7
BRANCH   1  16
ATOM     16  O   UNL     1       4.015   5.817  18.254  0.00  0.00    +0.000 OA
BRANCH  16  17
ATOM     17  C   UNL     1       4.736   5.120  19.282  0.00  0.00    +0.000 C 
ATOM     18  C   UNL     1       6.229   5.463  19.246  0.00  0.00    +0.000 C 
BRANCH  17  19
ATOM     19  C   UNL     1       4.569   3.613  19.049  0.00  0.00    +0.000 C 
ATOM     20  O   UNL     1       4.902   2.727  19.823  0.00  0.00    +0.000 OA
BRANCH  19  22
ATOM     21  C   UNL     1       2.968   2.401  17.835  0.00  0.00    +0.000 C 
ATOM     22  O   UNL     1       4.004   3.384  17.822  0.00  0.00    +0.000 OA
ENDBRANCH  19  22
ENDBRANCH  17  19
ENDBRANCH  16  17
ENDBRANCH   1  16
TORSDOF 5
ENDMDL
MODEL 4
REMARK VINA RESULT:      -7.1      5.840      7.776
REMARK  Name = 
REMARK  8 active torsions:
REMARK  status: ('A' for Active; 'I' for Inactive)
REMARK    1  A    between atoms: C_1  and  O_2
REMARK    2  A    between atoms: O_2  and  C_3
REMARK    3  A    between atoms: C_3  and  C_5
REMARK    4  A    between atoms: C_5  and  C_6
REMARK    5  A    between atoms: C_5  and  O_7
REMARK    6  A    between atoms: O_7  and  C_8
REMARK    7  A    between atoms: C_11  and  N_12
REMARK    8  A    between atoms: N_12  and  C_13
REMARK                            x       y       z     vdW  Elec       q    Type
REMARK                         _______ _______ _______ _____ _____    ______ ____
ROOT
ATOM      1  C   UNL     1       2.821   6.955  18.649  0.00  0.00    +0.000 A 
ATOM      2  C   UNL     1       2.238   7.004  19.912  0.00  0.00    +0.000 A 
ATOM      3  C   UNL     1       1.428   8.089  20.281  0.00  0.00    +0.000 A 
ATOM      4  C   UNL     1       1.209   9.178  19.417  0.00  0.00    +0.000 A 
ATOM      5  C   UNL     1       1.840   9.116  18.165  0.00  0.00    +0.000 A 
ATOM      6  C   UNL     1       2.638   8.028  17.785  0.00  0.00    +0.000 A 
ENDROOT
BRANCH   4   7
ATOM      7  N   UNL     1       0.393  10.264  19.785  0.00  0.00    +0.000 N 
ATOM      8  C   UNL     1       0.968  11.360  20.567  0.00  0.00    +0.000 C 
ATOM      9  C   UNL     1      -0.868  10.601  19.242  0.00  0.00    +0.000 A 
ATOM     10  N   UNL     1      -1.444   9.793  18.331  0.00  0.00    +0.000 NA
ATOM     11  C   UNL     1      -2.615  10.182  17.780  0.00  0.00    +0.000 A 
ATOM     12  C   UNL     1      -3.246  11.358  18.090  0.00  0.00    +0.000 A 
ATOM     13 CL   UNL     1      -4.710  11.841  17.355  0.00  0.00    +0.000 Cl
ATOM     14  C   UNL     1      -2.612  12.122  19.029  0.00  0.00    +0.000 A 
ATOM     15  N   UNL     1      -1.443  11.768  19.612  0.00  0.00    +0.000 NA
ENDBRANCH   4   7
BRANCH   1  16
ATOM     16  O   UNL     1       3.528   5.823  18.359  0.00  0.00    +0.000 OA
BRANCH  16  17
ATOM     17  C   UNL     1       4.347   5.247  19.389  0.00  0.00    +0.000 C 
ATOM     18  C   UNL     1       5.834   5.499  19.124  0.00  0.00    +0.000 C 
BRANCH  17  19
ATOM     19  C   UNL     1       4.098   3.734  19.411  0.00  0.00    +0.000 C 
ATOM     20  O   UNL     1       4.914   2.878  19.721  0.00  0.00    +0.000 OA
BRANCH  19  22
ATOM     21  C   UNL     1       1.932   3.123  20.076  0.00  0.00    +0.000 C 
ATOM     22  O   UNL     1       2.818   3.459  19.008  0.00  0.00    +0.000 OA
ENDBRANCH  19  22
ENDBRANCH  17  19
ENDBRANCH  16  17
ENDBRANCH   1  16
TORSDOF 5
ENDMDL
MODEL 5
REMARK VINA RESULT:      -7.0      5.901      7.749
REMARK  Name = 
REMARK  8 active torsions:
REMARK  status: ('A' for Active; 'I' for Inactive)
REMARK    1  A    between atoms: C_1  and  O_2
REMARK    2  A    between atoms: O_2  and  C_3
REMARK    3  A    between atoms: C_3  and  C_5
REMARK    4  A    between atoms: C_5  and  C_6
REMARK    5  A    between atoms: C_5  and  O_7
REMARK    6  A    between atoms: O_7  and  C_8
REMARK    7  A    between atoms: C_11  and  N_12
REMARK    8  A    between atoms: N_12  and  C_13
REMARK                            x       y       z     vdW  Elec       q    Type
REMARK                         _______ _______ _______ _____ _____    ______ ____
ROOT
ATOM      1  C   UNL     1       2.804   6.956  18.787  0.00  0.00    +0.000 A 
ATOM      2  C   UNL     1       2.209   7.122  20.035  0.00  0.00    +0.000 A 
ATOM      3  C   UNL     1       1.392   8.234  20.291  0.00  0.00    +0.000 A 
ATOM      4  C   UNL     1       1.178   9.235  19.325  0.00  0.00    +0.000 A 
ATOM      5  C   UNL     1       1.821   9.057  18.091  0.00  0.00    +0.000 A 
ATOM      6  C   UNL     1       2.626   7.941  17.824  0.00  0.00    +0.000 A 
ENDROOT
BRANCH   4   7
ATOM      7  N   UNL     1       0.355  10.348  19.580  0.00  0.00    +0.000 N 
ATOM      8  C   UNL     1       0.929  11.532  20.221  0.00  0.00    +0.000 C 
ATOM      9  C   UNL     1      -0.918  10.608  19.024  0.00  0.00    +0.000 A 
ATOM     10  N   UNL     1      -1.499   9.695  18.222  0.00  0.00    +0.000 NA
ATOM     11  C   UNL     1      -2.684  10.006  17.651  0.00  0.00    +0.000 A 
ATOM     12  C   UNL     1      -3.323  11.204  17.835  0.00  0.00    +0.000 A 
ATOM     13 CL   UNL     1      -4.806  11.584  17.075  0.00  0.00    +0.000 Cl
ATOM     14  C   UNL     1      -2.684  12.077  18.669  0.00  0.00    +0.000 A 
ATOM     15  N   UNL     1      -1.502  11.804  19.268  0.00  0.00    +0.000 NA
ENDBRANCH   4   7
BRANCH   1  16
ATOM     16  O   UNL     1       3.516   5.803  18.614  0.00  0.00    +0.000 OA
BRANCH  16  17
ATOM     17  C   UNL     1       3.100   4.892  17.585  0.00  0.00    +0.000 C 
ATOM     18  C   UNL     1       1.679   4.377  17.838  0.00  0.00    +0.000 C 
BRANCH  17  19
ATOM     19  C   UNL     1       4.065   3.699  17.581  0.00  0.00    +0.000 C 
ATOM     20  O   UNL     1       3.763   2.533  17.795  0.00  0.00    +0.000 OA
BRANCH  19  22
ATOM     21  C   UNL     1       5.726   4.006  15.954  0.00  0.00    +0.000 C 
ATOM     22  O   UNL     1       5.341   4.124  17.324  0.00  0.00    +0.000 OA
ENDBRANCH  19  22
ENDBRANCH  17  19
ENDBRANCH  16  17
ENDBRANCH   1  16
TORSDOF 5
ENDMDL
MODEL 6
REMARK VINA RESULT:      -7.0      6.003      7.811
REMARK  Name = 
REMARK  8 active torsions:
REMARK  status: ('A' for Active; 'I' for Inactive)
REMARK    1  A    between atoms: C_1  and  O_2
REMARK    2  A    between atoms: O_2  and  C_3
REMARK    3  A    between atoms: C_3  and  C_5
REMARK    4  A    between atoms: C_5  and  C_6
REMARK    5  A    between atoms: C_5  and  O_7
REMARK    6  A    between atoms: O_7  and  C_8
REMARK    7  A    between atoms: C_11  and  N_12
REMARK    8  A    between atoms: N_12  and  C_13
REMARK                            x       y       z     vdW  Elec       q    Type
REMARK                         _______ _______ _______ _____ _____    ______ ____
ROOT
ATOM      1  C   UNL     1       2.618   6.996  19.229  0.00  0.00    +0.000 A 
ATOM      2  C   UNL     1       1.964   7.215  20.439  0.00  0.00    +0.000 A 
ATOM      3  C   UNL     1       1.179   8.364  20.625  0.00  0.00    +0.000 A 
ATOM      4  C   UNL     1       1.056   9.348  19.628  0.00  0.00    +0.000 A 
ATOM      5  C   UNL     1       1.756   9.115  18.434  0.00  0.00    +0.000 A 
ATOM      6  C   UNL     1       2.529   7.963  18.236  0.00  0.00    +0.000 A 
ENDROOT
BRANCH   4   7
ATOM      7  N   UNL     1       0.265  10.498  19.812  0.00  0.00    +0.000 N 
ATOM      8  C   UNL     1       0.863  11.689  20.417  0.00  0.00    +0.000 C 
ATOM      9  C   UNL     1      -0.984  10.774  19.212  0.00  0.00    +0.000 A 
ATOM     10  N   UNL     1      -1.576   9.847  18.435  0.00  0.00    +0.000 NA
ATOM     11  C   UNL     1      -2.734  10.172  17.820  0.00  0.00    +0.000 A 
ATOM     12  C   UNL     1      -3.337  11.397  17.935  0.00  0.00    +0.000 A 
ATOM     13 CL   UNL     1      -4.786  11.792  17.120  0.00  0.00    +0.000 Cl
ATOM     14  C   UNL     1      -2.689  12.284  18.747  0.00  0.00    +0.000 A 
ATOM     15  N   UNL     1      -1.533  11.999  19.389  0.00  0.00    +0.000 NA
ENDBRANCH   4   7
BRANCH   1  16
ATOM     16  O   UNL     1       3.292   5.813  19.120  0.00  0.00    +0.000 OA
BRANCH  16  17
ATOM     17  C   UNL     1       3.138   5.048  17.915  0.00  0.00    +0.000 C 
ATOM     18  C   UNL     1       1.758   4.384  17.849  0.00  0.00    +0.000 C 
BRANCH  17  19
ATOM     19  C   UNL     1       4.214   3.954  17.899  0.00  0.00    +0.000 C 
ATOM     20  O   UNL     1       4.642   3.386  16.905  0.00  0.00    +0.000 OA
BRANCH  19  22
ATOM     21  C   UNL     1       4.323   2.349  19.606  0.00  0.00    +0.000 C 
ATOM     22  O   UNL     1       4.625   3.677  19.176  0.00  0.00    +0.000 OA
ENDBRANCH  19  22
ENDBRANCH  17  19
ENDBRANCH  16  17
ENDBRANCH   1  16
TORSDOF 5
ENDMDL
MODEL 7
REMARK VINA RESULT:      -7.0      4.014      5.664
REMARK  Name = 
REMARK  8 active torsions:
REMARK  status: ('A' for Active; 'I' for Inactive)
REMARK    1  A    between atoms: C_1  and  O_2
REMARK    2  A    between atoms: O_2  and  C_3
REMARK    3  A    between atoms: C_3  and  C_5
REMARK    4  A    between atoms: C_5  and  C_6
REMARK    5  A    between atoms: C_5  and  O_7
REMARK    6  A    between atoms: O_7  and  C_8
REMARK    7  A    between atoms: C_11  and  N_12
REMARK    8  A    between atoms: N_12  and  C_13
REMARK                            x       y       z     vdW  Elec       q    Type
REMARK                         _______ _______ _______ _____ _____    ______ ____
ROOT
ATOM      1  C   UNL     1       1.368   9.229  19.622  0.00  0.00    +0.000 A 
ATOM      2  C   UNL     1       1.528   8.186  20.529  0.00  0.00    +0.000 A 
ATOM      3  C   UNL     1       2.095   6.968  20.121  0.00  0.00    +0.000 A 
ATOM      4  C   UNL     1       2.480   6.741  18.787  0.00  0.00    +0.000 A 
ATOM      5  C   UNL     1       2.272   7.799  17.889  0.00  0.00    +0.000 A 
ATOM      6  C   UNL     1       1.721   9.022  18.294  0.00  0.00    +0.000 A 
ENDROOT
BRANCH   4   7
ATOM      7  N   UNL     1       3.053   5.522  18.378  0.00  0.00    +0.000 N 
ATOM      8  C   UNL     1       2.393   4.265  18.733  0.00  0.00    +0.000 C 
ATOM      9  C   UNL     1       4.050   5.341  17.392  0.00  0.00    +0.000 A 
ATOM     10  N   UNL     1       4.612   6.413  16.801  0.00  0.00    +0.000 NA
ATOM     11  C   UNL     1       5.509   6.201  15.813  0.00  0.00    +0.000 A 
ATOM     12  C   UNL     1       5.872   4.956  15.371  0.00  0.00    +0.000 A 
ATOM     13 CL   UNL     1       6.986   4.718  14.097  0.00  0.00    +0.000 Cl
ATOM     14  C   UNL     1       5.272   3.916  16.022  0.00  0.00    +0.000 A 
ATOM     15  N   UNL     1       4.375   4.081  17.022  0.00  0.00    +0.000 NA
ENDBRANCH   4   7
BRANCH   1  16
ATOM     16  O   UNL     1       0.879  10.397  20.134  0.00  0.00    +0.000 OA
BRANCH  16  17
ATOM     17  C   UNL     1      -0.522  10.474  20.443  0.00  0.00    +0.000 C 
ATOM     18  C   UNL     1      -1.316  11.083  19.282  0.00  0.00    +0.000 C 
BRANCH  17  19
ATOM     19  C   UNL     1      -0.694  11.364  21.681  0.00  0.00    +0.000 C 
ATOM     20  O   UNL     1      -1.385  12.370  21.749  0.00  0.00    +0.000 OA
BRANCH  19  22
ATOM     21  C   UNL     1      -0.425   9.667  23.278  0.00  0.00    +0.000 C 
ATOM     22  O   UNL     1       0.064  10.885  22.716  0.00  0.00    +0.000 OA
ENDBRANCH  19  22
ENDBRANCH  17  19
ENDBRANCH  16  17
ENDBRANCH   1  16
TORSDOF 5
ENDMDL
MODEL 8
REMARK VINA RESULT:      -6.9      5.830      7.608
REMARK  Name = 
REMARK  8 active torsions:
REMARK  status: ('A' for Active; 'I' for Inactive)
REMARK    1  A    between atoms: C_1  and  O_2
REMARK    2  A    between atoms: O_2  and  C_3
REMARK    3  A    between atoms: C_3  and  C_5
REMARK    4  A    between atoms: C_5  and  C_6
REMARK    5  A    between atoms: C_5  and  O_7
REMARK    6  A    between atoms: O_7  and  C_8
REMARK    7  A    between atoms: C_11  and  N_12
REMARK    8  A    between atoms: N_12  and  C_13
REMARK                            x       y       z     vdW  Elec       q    Type
REMARK                         _______ _______ _______ _____ _____    ______ ____
ROOT
ATOM      1  C   UNL     1       2.663   6.830  18.975  0.00  0.00    +0.000 A 
ATOM      2  C   UNL     1       2.437   7.727  17.934  0.00  0.00    +0.000 A 
ATOM      3  C   UNL     1       1.705   8.904  18.155  0.00  0.00    +0.000 A 
ATOM      4  C   UNL     1       1.140   9.201  19.408  0.00  0.00    +0.000 A 
ATOM      5  C   UNL     1       1.354   8.260  20.427  0.00  0.00    +0.000 A 
ATOM      6  C   UNL     1       2.097   7.091  20.217  0.00  0.00    +0.000 A 
ENDROOT
BRANCH   4   7
ATOM      7  N   UNL     1       0.409  10.384  19.631  0.00  0.00    +0.000 N 
ATOM      8  C   UNL     1       1.097  11.561  20.164  0.00  0.00    +0.000 C 
ATOM      9  C   UNL     1      -0.872  10.698  19.125  0.00  0.00    +0.000 A 
ATOM     10  N   UNL     1      -1.557   9.781  18.415  0.00  0.00    +0.000 NA
ATOM     11  C   UNL     1      -2.748  10.139  17.886  0.00  0.00    +0.000 A 
ATOM     12  C   UNL     1      -3.294  11.389  18.024  0.00  0.00    +0.000 A 
ATOM     13 CL   UNL     1      -4.787  11.825  17.317  0.00  0.00    +0.000 Cl
ATOM     14  C   UNL     1      -2.552  12.264  18.765  0.00  0.00    +0.000 A 
ATOM     15  N   UNL     1      -1.359  11.945  19.320  0.00  0.00    +0.000 NA
ENDBRANCH   4   7
BRANCH   1  16
ATOM     16  O   UNL     1       3.451   5.755  18.678  0.00  0.00    +0.000 OA
BRANCH  16  17
ATOM     17  C   UNL     1       3.125   4.486  19.267  0.00  0.00    +0.000 C 
ATOM     18  C   UNL     1       4.337   3.549  19.277  0.00  0.00    +0.000 C 
BRANCH  17  19
ATOM     19  C   UNL     1       2.009   3.842  18.434  0.00  0.00    +0.000 C 
ATOM     20  O   UNL     1       1.878   3.931  17.221  0.00  0.00    +0.000 OA
BRANCH  19  22
ATOM     21  C   UNL     1       1.084   3.663  20.582  0.00  0.00    +0.000 C 
ATOM     22  O   UNL     1       1.145   3.158  19.248  0.00  0.00    +0.000 OA
ENDBRANCH  19  22
ENDBRANCH  17  19
ENDBRANCH  16  17
ENDBRANCH   1  16
TORSDOF 5
ENDMDL
MODEL 9
REMARK VINA RESULT:      -6.9      6.169      7.815
REMARK  Name = 
REMARK  8 active torsions:
REMARK  status: ('A' for Active; 'I' for Inactive)
REMARK    1  A    between atoms: C_1  and  O_2
REMARK    2  A    between atoms: O_2  and  C_3
REMARK    3  A    between atoms: C_3  and  C_5
REMARK    4  A    between atoms: C_5  and  C_6
REMARK    5  A    between atoms: C_5  and  O_7
REMARK    6  A    between atoms: O_7  and  C_8
REMARK    7  A    between atoms: C_11  and  N_12
REMARK    8  A    between atoms: N_12  and  C_13
REMARK                            x       y       z     vdW  Elec       q    Type
REMARK                         _______ _______ _______ _____ _____    ______ ____
ROOT
ATOM      1  C   UNL     1       2.243   7.443  19.374  0.00  0.00    +0.000 A 
ATOM      2  C   UNL     1       1.588   8.080  20.425  0.00  0.00    +0.000 A 
ATOM      3  C   UNL     1       0.909   9.290  20.211  0.00  0.00    +0.000 A 
ATOM      4  C   UNL     1       0.896   9.921  18.954  0.00  0.00    +0.000 A 
ATOM      5  C   UNL     1       1.596   9.273  17.925  0.00  0.00    +0.000 A 
ATOM      6  C   UNL     1       2.263   8.058  18.128  0.00  0.00    +0.000 A 
ENDROOT
BRANCH   4   7
ATOM      7  N   UNL     1       0.211  11.132  18.738  0.00  0.00    +0.000 N 
ATOM      8  C   UNL     1      -1.252  11.139  18.750  0.00  0.00    +0.000 C 
ATOM      9  C   UNL     1       0.751  12.436  18.805  0.00  0.00    +0.000 A 
ATOM     10  N   UNL     1       2.071  12.607  19.012  0.00  0.00    +0.000 NA
ATOM     11  C   UNL     1       2.541  13.867  19.141  0.00  0.00    +0.000 A 
ATOM     12  C   UNL     1       1.748  14.983  19.083  0.00  0.00    +0.000 A 
ATOM     13 CL   UNL     1       2.364  16.564  19.282  0.00  0.00    +0.000 Cl
ATOM     14  C   UNL     1       0.423  14.737  18.860  0.00  0.00    +0.000 A 
ATOM     15  N   UNL     1      -0.090  13.493  18.716  0.00  0.00    +0.000 NA
ENDBRANCH   4   7
BRANCH   1  16
ATOM     16  O   UNL     1       2.808   6.235  19.666  0.00  0.00    +0.000 OA
BRANCH  16  17
ATOM     17  C   UNL     1       1.967   5.071  19.668  0.00  0.00    +0.000 C 
ATOM     18  C   UNL     1       2.345   4.111  20.800  0.00  0.00    +0.000 C 
BRANCH  17  19
ATOM     19  C   UNL     1       2.144   4.348  18.327  0.00  0.00    +0.000 C 
ATOM     20  O   UNL     1       1.281   3.717  17.733  0.00  0.00    +0.000 OA
BRANCH  19  22
ATOM     21  C   UNL     1       4.030   3.264  17.448  0.00  0.00    +0.000 C 
ATOM     22  O   UNL     1       3.432   4.486  17.882  0.00  0.00    +0.000 OA
ENDBRANCH  19  22
ENDBRANCH  17  19
ENDBRANCH  16  17
ENDBRANCH   1  16
TORSDOF 5
ENDMDL
