MODEL 1
REMARK VINA RESULT:      -8.5      0.000      0.000
REMARK  Name = 
REMARK  6 active torsions:
REMARK  status: ('A' for Active; 'I' for Inactive)
REMARK    1  A    between atoms: C_1  and  C_2
REMARK    2  A    between atoms: C_2  and  C_4
REMARK    3  A    between atoms: N_6  and  C_7
REMARK    4  A    between atoms: C_7  and  C_8
REMARK    5  A    between atoms: C_11  and  C_12
REMARK    6  A    between atoms: C_12  and  O_14
REMARK                            x       y       z     vdW  Elec       q    Type
REMARK                         _______ _______ _______ _____ _____    ______ ____
ROOT
ATOM      1  C   UNL     1       2.151   3.950  18.498  0.00  0.00    +0.000 A 
ATOM      2  C   UNL     1       2.107   5.289  18.469  0.00  0.00    +0.000 A 
ATOM      3  N   UNL     1       2.996   6.152  17.834  0.00  0.00    +0.000 N 
ATOM      4  C   UNL     1       4.099   5.581  17.142  0.00  0.00    +0.000 A 
ATOM      5  C   UNL     1       5.095   6.338  16.503  0.00  0.00    +0.000 A 
ATOM      6  C   UNL     1       6.186   5.727  15.867  0.00  0.00    +0.000 A 
ATOM      7  C   UNL     1       6.300   4.341  15.838  0.00  0.00    +0.000 A 
ATOM      8  C   UNL     1       5.322   3.561  16.440  0.00  0.00    +0.000 A 
ATOM      9  C   UNL     1       4.239   4.175  17.088  0.00  0.00    +0.000 A 
ATOM     10  C   UNL     1       3.235   3.300  17.739  0.00  0.00    +0.000 A 
ATOM     11  O   UNL     1       3.309   2.079  17.638  0.00  0.00    +0.000 OA
ENDROOT
BRANCH   1  13
ATOM     12  C   UNL     1       1.158   3.437  20.820  0.00  0.00    +0.000 C 
ATOM     13  C   UNL     1       1.147   3.227  19.329  0.00  0.00    +0.000 C 
ATOM     14  O   UNL     1       0.299   2.498  18.804  0.00  0.00    +0.000 OA
ENDBRANCH   1  13
BRANCH   3  15
ATOM     15  C   UNL     1       2.925   7.635  17.908  0.00  0.00    +0.000 C 
BRANCH  15  16
ATOM     16  C   UNL     1       1.998   8.152  18.993  0.00  0.00    +0.000 A 
ATOM     17  C   UNL     1       1.225   9.302  18.762  0.00  0.00    +0.000 A 
ATOM     18  C   UNL     1       0.527   9.904  19.809  0.00  0.00    +0.000 A 
ATOM     19  C   UNL     1       0.593   9.365  21.098  0.00  0.00    +0.000 A 
ATOM     20  C   UNL     1       1.296   8.174  21.321  0.00  0.00    +0.000 A 
ATOM     21  C   UNL     1       2.000   7.574  20.273  0.00  0.00    +0.000 A 
BRANCH  19  22
ATOM     22  C   UNL     1      -0.100  10.090  22.192  0.00  0.00    +0.000 C 
ATOM     23  O   UNL     1      -0.979  10.910  21.990  0.00  0.00    +0.000 OA
BRANCH  22  24
ATOM     24  O   UNL     1       0.370   9.800  23.424  0.00  0.00    +0.000 OA
ATOM     25  H   UNL     1       0.207  10.487  24.097  0.00  0.00    +0.000 HD
ENDBRANCH  22  24
ENDBRANCH  19  22
ENDBRANCH  15  16
ENDBRANCH   3  15
TORSDOF 5
ENDMDL
MODEL 2
REMARK VINA RESULT:      -8.4      1.961      3.792
REMARK  Name = 
REMARK  6 active torsions:
REMARK  status: ('A' for Active; 'I' for Inactive)
REMARK    1  A    between atoms: C_1  and  C_2
REMARK    2  A    between atoms: C_2  and  C_4
REMARK    3  A    between atoms: N_6  and  C_7
REMARK    4  A    between atoms: C_7  and  C_8
REMARK    5  A    between atoms: C_11  and  C_12
REMARK    6  A    between atoms: C_12  and  O_14
REMARK                            x       y       z     vdW  Elec       q    Type
REMARK                         _______ _______ _______ _____ _____    ______ ____
ROOT
ATOM      1  C   UNL     1       5.741   6.176  17.860  0.00  0.00    +0.000 A 
ATOM      2  C   UNL     1       4.683   6.991  17.762  0.00  0.00    +0.000 A 
ATOM      3  N   UNL     1       3.336   6.636  17.784  0.00  0.00    +0.000 N 
ATOM      4  C   UNL     1       3.013   5.256  17.904  0.00  0.00    +0.000 A 
ATOM      5  C   UNL     1       1.699   4.759  17.888  0.00  0.00    +0.000 A 
ATOM      6  C   UNL     1       1.434   3.384  17.969  0.00  0.00    +0.000 A 
ATOM      7  C   UNL     1       2.476   2.471  18.088  0.00  0.00    +0.000 A 
ATOM      8  C   UNL     1       3.786   2.929  18.128  0.00  0.00    +0.000 A 
ATOM      9  C   UNL     1       4.050   4.304  18.033  0.00  0.00    +0.000 A 
ATOM     10  C   UNL     1       5.466   4.741  18.055  0.00  0.00    +0.000 A 
ATOM     11  O   UNL     1       6.368   3.930  18.237  0.00  0.00    +0.000 OA
ENDROOT
BRANCH   1  13
ATOM     12  C   UNL     1       8.082   6.617  18.846  0.00  0.00    +0.000 C 
ATOM     13  C   UNL     1       7.103   6.764  17.710  0.00  0.00    +0.000 C 
ATOM     14  O   UNL     1       7.437   7.329  16.664  0.00  0.00    +0.000 OA
ENDBRANCH   1  13
BRANCH   3  15
ATOM     15  C   UNL     1       2.212   7.591  17.596  0.00  0.00    +0.000 C 
BRANCH  15  16
ATOM     16  C   UNL     1       1.828   8.343  18.857  0.00  0.00    +0.000 A 
ATOM     17  C   UNL     1       1.881   7.693  20.101  0.00  0.00    +0.000 A 
ATOM     18  C   UNL     1       1.342   8.298  21.237  0.00  0.00    +0.000 A 
ATOM     19  C   UNL     1       0.745   9.560  21.142  0.00  0.00    +0.000 A 
ATOM     20  C   UNL     1       0.759  10.249  19.923  0.00  0.00    +0.000 A 
ATOM     21  C   UNL     1       1.294   9.640  18.784  0.00  0.00    +0.000 A 
BRANCH  19  22
ATOM     22  C   UNL     1       0.114  10.124  22.362  0.00  0.00    +0.000 C 
ATOM     23  O   UNL     1      -0.714  11.018  22.326  0.00  0.00    +0.000 OA
BRANCH  22  24
ATOM     24  O   UNL     1       0.582   9.596  23.513  0.00  0.00    +0.000 OA
ATOM     25  H   UNL     1      -0.047   9.618  24.259  0.00  0.00    +0.000 HD
ENDBRANCH  22  24
ENDBRANCH  19  22
ENDBRANCH  15  16
ENDBRANCH   3  15
TORSDOF 5
ENDMDL
MODEL 3
REMARK VINA RESULT:      -8.4      1.953      3.783
REMARK  Name = 
REMARK  6 active torsions:
REMARK  status: ('A' for Active; 'I' for Inactive)
REMARK    1  A    between atoms: C_1  and  C_2
REMARK    2  A    between atoms: C_2  and  C_4
REMARK    3  A    between atoms: N_6  and  C_7
REMARK    4  A    between atoms: C_7  and  C_8
REMARK    5  A    between atoms: C_11  and  C_12
REMARK    6  A    between atoms: C_12  and  O_14
REMARK                            x       y       z     vdW  Elec       q    Type
REMARK                         _______ _______ _______ _____ _____    ______ ____
ROOT
ATOM      1  C   UNL     1       5.451   5.211  19.087  0.00  0.00    +0.000 A 
ATOM      2  C   UNL     1       4.589   6.175  18.738  0.00  0.00    +0.000 A 
ATOM      3  N   UNL     1       3.224   6.043  18.499  0.00  0.00    +0.000 N 
ATOM      4  C   UNL     1       2.649   4.747  18.611  0.00  0.00    +0.000 A 
ATOM      5  C   UNL     1       1.298   4.468  18.348  0.00  0.00    +0.000 A 
ATOM      6  C   UNL     1       0.789   3.164  18.435  0.00  0.00    +0.000 A 
ATOM      7  C   UNL     1       1.613   2.107  18.806  0.00  0.00    +0.000 A 
ATOM      8  C   UNL     1       2.949   2.351  19.094  0.00  0.00    +0.000 A 
ATOM      9  C   UNL     1       3.461   3.654  18.993  0.00  0.00    +0.000 A 
ATOM     10  C   UNL     1       4.899   3.858  19.286  0.00  0.00    +0.000 A 
ATOM     11  O   UNL     1       5.594   2.930  19.686  0.00  0.00    +0.000 OA
ENDROOT
BRANCH   1  13
ATOM     12  C   UNL     1       7.564   6.238  18.027  0.00  0.00    +0.000 C 
ATOM     13  C   UNL     1       6.897   5.559  19.194  0.00  0.00    +0.000 C 
ATOM     14  O   UNL     1       7.528   5.330  20.231  0.00  0.00    +0.000 OA
ENDBRANCH   1  13
BRANCH   3  15
ATOM     15  C   UNL     1       2.341   7.148  18.041  0.00  0.00    +0.000 C 
BRANCH  15  16
ATOM     16  C   UNL     1       1.857   8.052  19.161  0.00  0.00    +0.000 A 
ATOM     17  C   UNL     1       1.810   7.566  20.478  0.00  0.00    +0.000 A 
ATOM     18  C   UNL     1       1.182   8.306  21.481  0.00  0.00    +0.000 A 
ATOM     19  C   UNL     1       0.595   9.539  21.178  0.00  0.00    +0.000 A 
ATOM     20  C   UNL     1       0.707  10.068  19.886  0.00  0.00    +0.000 A 
ATOM     21  C   UNL     1       1.331   9.323  18.880  0.00  0.00    +0.000 A 
BRANCH  19  22
ATOM     22  C   UNL     1      -0.132  10.248  22.262  0.00  0.00    +0.000 C 
ATOM     23  O   UNL     1      -0.116  11.461  22.386  0.00  0.00    +0.000 OA
BRANCH  22  24
ATOM     24  O   UNL     1      -0.762   9.425  23.127  0.00  0.00    +0.000 OA
ATOM     25  H   UNL     1      -1.607   9.766  23.476  0.00  0.00    +0.000 HD
ENDBRANCH  22  24
ENDBRANCH  19  22
ENDBRANCH  15  16
ENDBRANCH   3  15
TORSDOF 5
ENDMDL
MODEL 4
REMARK VINA RESULT:      -8.3      1.283      1.626
REMARK  Name = 
REMARK  6 active torsions:
REMARK  status: ('A' for Active; 'I' for Inactive)
REMARK    1  A    between atoms: C_1  and  C_2
REMARK    2  A    between atoms: C_2  and  C_4
REMARK    3  A    between atoms: N_6  and  C_7
REMARK    4  A    between atoms: C_7  and  C_8
REMARK    5  A    between atoms: C_11  and  C_12
REMARK    6  A    between atoms: C_12  and  O_14
REMARK                            x       y       z     vdW  Elec       q    Type
REMARK                         _______ _______ _______ _____ _____    ______ ____
ROOT
ATOM      1  C   UNL     1       2.856   3.976  19.329  0.00  0.00    +0.000 A 
ATOM      2  C   UNL     1       2.317   5.128  18.910  0.00  0.00    +0.000 A 
ATOM      3  N   UNL     1       2.966   6.187  18.281  0.00  0.00    +0.000 N 
ATOM      4  C   UNL     1       4.366   6.074  18.059  0.00  0.00    +0.000 A 
ATOM      5  C   UNL     1       5.150   7.087  17.482  0.00  0.00    +0.000 A 
ATOM      6  C   UNL     1       6.535   6.941  17.321  0.00  0.00    +0.000 A 
ATOM      7  C   UNL     1       7.172   5.769  17.717  0.00  0.00    +0.000 A 
ATOM      8  C   UNL     1       6.426   4.739  18.271  0.00  0.00    +0.000 A 
ATOM      9  C   UNL     1       5.041   4.892  18.444  0.00  0.00    +0.000 A 
ATOM     10  C   UNL     1       4.292   3.774  19.064  0.00  0.00    +0.000 A 
ATOM     11  O   UNL     1       4.856   2.718  19.336  0.00  0.00    +0.000 OA
ENDROOT
BRANCH   1  13
ATOM     12  C   UNL     1       2.050   3.009  21.579  0.00  0.00    +0.000 C 
ATOM     13  C   UNL     1       1.989   3.019  20.074  0.00  0.00    +0.000 C 
ATOM     14  O   UNL     1       1.209   2.273  19.473  0.00  0.00    +0.000 OA
ENDBRANCH   1  13
BRANCH   3  15
ATOM     15  C   UNL     1       2.314   7.471  17.908  0.00  0.00    +0.000 C 
BRANCH  15  16
ATOM     16  C   UNL     1       1.819   8.275  19.097  0.00  0.00    +0.000 A 
ATOM     17  C   UNL     1       1.925   7.743  20.392  0.00  0.00    +0.000 A 
ATOM     18  C   UNL     1       1.296   8.373  21.467  0.00  0.00    +0.000 A 
ATOM     19  C   UNL     1       0.555   9.541  21.259  0.00  0.00    +0.000 A 
ATOM     20  C   UNL     1       0.511  10.122  19.985  0.00  0.00    +0.000 A 
ATOM     21  C   UNL     1       1.135   9.487  18.908  0.00  0.00    +0.000 A 
BRANCH  19  22
ATOM     22  C   UNL     1      -0.162  10.126  22.420  0.00  0.00    +0.000 C 
ATOM     23  O   UNL     1      -0.190  11.323  22.646  0.00  0.00    +0.000 OA
BRANCH  22  24
ATOM     24  O   UNL     1      -0.730   9.208  23.231  0.00  0.00    +0.000 OA
ATOM     25  H   UNL     1      -0.224   8.380  23.331  0.00  0.00    +0.000 HD
ENDBRANCH  22  24
ENDBRANCH  19  22
ENDBRANCH  15  16
ENDBRANCH   3  15
TORSDOF 5
ENDMDL
MODEL 5
REMARK VINA RESULT:      -8.2      2.026      4.192
REMARK  Name = 
REMARK  6 active torsions:
REMARK  status: ('A' for Active; 'I' for Inactive)
REMARK    1  A    between atoms: C_1  and  C_2
REMARK    2  A    between atoms: C_2  and  C_4
REMARK    3  A    between atoms: N_6  and  C_7
REMARK    4  A    between atoms: C_7  and  C_8
REMARK    5  A    between atoms: C_11  and  C_12
REMARK    6  A    between atoms: C_12  and  O_14
REMARK                            x       y       z     vdW  Elec       q    Type
REMARK                         _______ _______ _______ _____ _____    ______ ____
ROOT
ATOM      1  C   UNL     1       4.542   5.761  17.482  0.00  0.00    +0.000 A 
ATOM      2  C   UNL     1       3.995   6.448  18.493  0.00  0.00    +0.000 A 
ATOM      3  N   UNL     1       2.973   6.032  19.343  0.00  0.00    +0.000 N 
ATOM      4  C   UNL     1       2.411   4.743  19.129  0.00  0.00    +0.000 A 
ATOM      5  C   UNL     1       1.344   4.223  19.880  0.00  0.00    +0.000 A 
ATOM      6  C   UNL     1       0.799   2.961  19.603  0.00  0.00    +0.000 A 
ATOM      7  C   UNL     1       1.319   2.177  18.579  0.00  0.00    +0.000 A 
ATOM      8  C   UNL     1       2.388   2.650  17.830  0.00  0.00    +0.000 A 
ATOM      9  C   UNL     1       2.923   3.920  18.100  0.00  0.00    +0.000 A 
ATOM     10  C   UNL     1       4.046   4.392  17.256  0.00  0.00    +0.000 A 
ATOM     11  O   UNL     1       4.543   3.657  16.408  0.00  0.00    +0.000 OA
ENDROOT
BRANCH   1  13
ATOM     12  C   UNL     1       6.930   6.693  17.210  0.00  0.00    +0.000 C 
ATOM     13  C   UNL     1       5.561   6.444  16.633  0.00  0.00    +0.000 C 
ATOM     14  O   UNL     1       5.303   6.766  15.469  0.00  0.00    +0.000 OA
ENDBRANCH   1  13
BRANCH   3  15
ATOM     15  C   UNL     1       2.363   6.880  20.401  0.00  0.00    +0.000 C 
BRANCH  15  16
ATOM     16  C   UNL     1       1.657   8.114  19.868  0.00  0.00    +0.000 A 
ATOM     17  C   UNL     1       0.750   8.807  20.686  0.00  0.00    +0.000 A 
ATOM     18  C   UNL     1      -0.055   9.813  20.152  0.00  0.00    +0.000 A 
ATOM     19  C   UNL     1       0.038  10.138  18.794  0.00  0.00    +0.000 A 
ATOM     20  C   UNL     1       0.996   9.508  17.989  0.00  0.00    +0.000 A 
ATOM     21  C   UNL     1       1.797   8.495  18.524  0.00  0.00    +0.000 A 
BRANCH  19  22
ATOM     22  C   UNL     1      -0.897  11.159  18.257  0.00  0.00    +0.000 C 
ATOM     23  O   UNL     1      -1.163  12.190  18.850  0.00  0.00    +0.000 OA
BRANCH  22  24
ATOM     24  O   UNL     1      -1.468  10.814  17.084  0.00  0.00    +0.000 OA
ATOM     25  H   UNL     1      -1.823   9.905  17.052  0.00  0.00    +0.000 HD
ENDBRANCH  22  24
ENDBRANCH  19  22
ENDBRANCH  15  16
ENDBRANCH   3  15
TORSDOF 5
ENDMDL
MODEL 6
REMARK VINA RESULT:      -8.2      2.248      4.132
REMARK  Name = 
REMARK  6 active torsions:
REMARK  status: ('A' for Active; 'I' for Inactive)
REMARK    1  A    between atoms: C_1  and  C_2
REMARK    2  A    between atoms: C_2  and  C_4
REMARK    3  A    between atoms: N_6  and  C_7
REMARK    4  A    between atoms: C_7  and  C_8
REMARK    5  A    between atoms: C_11  and  C_12
REMARK    6  A    between atoms: C_12  and  O_14
REMARK                            x       y       z     vdW  Elec       q    Type
REMARK                         _______ _______ _______ _____ _____    ______ ____
ROOT
ATOM      1  C   UNL     1       5.858   6.222  17.703  0.00  0.00    +0.000 A 
ATOM      2  C   UNL     1       4.688   6.843  17.506  0.00  0.00    +0.000 A 
ATOM      3  N   UNL     1       3.427   6.426  17.923  0.00  0.00    +0.000 N 
ATOM      4  C   UNL     1       3.331   5.193  18.626  0.00  0.00    +0.000 A 
ATOM      5  C   UNL     1       2.117   4.634  19.057  0.00  0.00    +0.000 A 
ATOM      6  C   UNL     1       2.073   3.395  19.712  0.00  0.00    +0.000 A 
ATOM      7  C   UNL     1       3.244   2.690  19.970  0.00  0.00    +0.000 A 
ATOM      8  C   UNL     1       4.463   3.224  19.577  0.00  0.00    +0.000 A 
ATOM      9  C   UNL     1       4.504   4.457  18.909  0.00  0.00    +0.000 A 
ATOM     10  C   UNL     1       5.828   4.973  18.486  0.00  0.00    +0.000 A 
ATOM     11  O   UNL     1       6.857   4.377  18.790  0.00  0.00    +0.000 OA
ENDROOT
BRANCH   1  13
ATOM     12  C   UNL     1       7.751   7.970  17.751  0.00  0.00    +0.000 C 
ATOM     13  C   UNL     1       7.081   6.800  17.078  0.00  0.00    +0.000 C 
ATOM     14  O   UNL     1       7.559   6.310  16.050  0.00  0.00    +0.000 OA
ENDBRANCH   1  13
BRANCH   3  15
ATOM     15  C   UNL     1       2.159   7.133  17.601  0.00  0.00    +0.000 C 
BRANCH  15  16
ATOM     16  C   UNL     1       1.884   8.335  18.488  0.00  0.00    +0.000 A 
ATOM     17  C   UNL     1       1.591   8.146  19.848  0.00  0.00    +0.000 A 
ATOM     18  C   UNL     1       1.140   9.211  20.628  0.00  0.00    +0.000 A 
ATOM     19  C   UNL     1       0.977  10.478  20.056  0.00  0.00    +0.000 A 
ATOM     20  C   UNL     1       1.343  10.694  18.721  0.00  0.00    +0.000 A 
ATOM     21  C   UNL     1       1.789   9.624  17.939  0.00  0.00    +0.000 A 
BRANCH  19  22
ATOM     22  C   UNL     1       0.416  11.558  20.906  0.00  0.00    +0.000 C 
ATOM     23  O   UNL     1      -0.781  11.748  21.031  0.00  0.00    +0.000 OA
BRANCH  22  24
ATOM     24  O   UNL     1       1.352  12.343  21.481  0.00  0.00    +0.000 OA
ATOM     25  H   UNL     1       1.690  13.061  20.914  0.00  0.00    +0.000 HD
ENDBRANCH  22  24
ENDBRANCH  19  22
ENDBRANCH  15  16
ENDBRANCH   3  15
TORSDOF 5
ENDMDL
MODEL 7
REMARK VINA RESULT:      -8.2      1.438      1.955
REMARK  Name = 
REMARK  6 active torsions:
REMARK  status: ('A' for Active; 'I' for Inactive)
REMARK    1  A    between atoms: C_1  and  C_2
REMARK    2  A    between atoms: C_2  and  C_4
REMARK    3  A    between atoms: N_6  and  C_7
REMARK    4  A    between atoms: C_7  and  C_8
REMARK    5  A    between atoms: C_11  and  C_12
REMARK    6  A    between atoms: C_12  and  O_14
REMARK                            x       y       z     vdW  Elec       q    Type
REMARK                         _______ _______ _______ _____ _____    ______ ____
ROOT
ATOM      1  C   UNL     1       1.966   3.809  18.978  0.00  0.00    +0.000 A 
ATOM      2  C   UNL     1       2.085   5.074  19.402  0.00  0.00    +0.000 A 
ATOM      3  N   UNL     1       2.926   6.062  18.895  0.00  0.00    +0.000 N 
ATOM      4  C   UNL     1       3.783   5.716  17.815  0.00  0.00    +0.000 A 
ATOM      5  C   UNL     1       4.714   6.601  17.244  0.00  0.00    +0.000 A 
ATOM      6  C   UNL     1       5.565   6.199  16.205  0.00  0.00    +0.000 A 
ATOM      7  C   UNL     1       5.496   4.907  15.696  0.00  0.00    +0.000 A 
ATOM      8  C   UNL     1       4.574   4.013  16.221  0.00  0.00    +0.000 A 
ATOM      9  C   UNL     1       3.732   4.412  17.271  0.00  0.00    +0.000 A 
ATOM     10  C   UNL     1       2.781   3.414  17.815  0.00  0.00    +0.000 A 
ATOM     11  O   UNL     1       2.679   2.303  17.304  0.00  0.00    +0.000 OA
ENDROOT
BRANCH   1  13
ATOM     12  C   UNL     1       1.276   2.746  21.222  0.00  0.00    +0.000 C 
ATOM     13  C   UNL     1       1.071   2.890  19.737  0.00  0.00    +0.000 C 
ATOM     14  O   UNL     1       0.156   2.285  19.169  0.00  0.00    +0.000 OA
ENDBRANCH   1  13
BRANCH   3  15
ATOM     15  C   UNL     1       3.057   7.428  19.467  0.00  0.00    +0.000 C 
BRANCH  15  16
ATOM     16  C   UNL     1       1.824   8.293  19.281  0.00  0.00    +0.000 A 
ATOM     17  C   UNL     1       1.512   8.800  18.009  0.00  0.00    +0.000 A 
ATOM     18  C   UNL     1       0.507   9.755  17.857  0.00  0.00    +0.000 A 
ATOM     19  C   UNL     1      -0.199  10.214  18.975  0.00  0.00    +0.000 A 
ATOM     20  C   UNL     1       0.050   9.656  20.235  0.00  0.00    +0.000 A 
ATOM     21  C   UNL     1       1.062   8.703  20.387  0.00  0.00    +0.000 A 
BRANCH  19  22
ATOM     22  C   UNL     1      -1.201  11.290  18.771  0.00  0.00    +0.000 C 
ATOM     23  O   UNL     1      -1.872  11.750  19.678  0.00  0.00    +0.000 OA
BRANCH  22  24
ATOM     24  O   UNL     1      -1.341  11.670  17.483  0.00  0.00    +0.000 OA
ATOM     25  H   UNL     1      -2.250  11.608  17.133  0.00  0.00    +0.000 HD
ENDBRANCH  22  24
ENDBRANCH  19  22
ENDBRANCH  15  16
ENDBRANCH   3  15
TORSDOF 5
ENDMDL
MODEL 8
REMARK VINA RESULT:      -8.1      0.511      1.110
REMARK  Name = 
REMARK  6 active torsions:
REMARK  status: ('A' for Active; 'I' for Inactive)
REMARK    1  A    between atoms: C_1  and  C_2
REMARK    2  A    between atoms: C_2  and  C_4
REMARK    3  A    between atoms: N_6  and  C_7
REMARK    4  A    between atoms: C_7  and  C_8
REMARK    5  A    between atoms: C_11  and  C_12
REMARK    6  A    between atoms: C_12  and  O_14
REMARK                            x       y       z     vdW  Elec       q    Type
REMARK                         _______ _______ _______ _____ _____    ______ ____
ROOT
ATOM      1  C   UNL     1       2.174   3.981  18.310  0.00  0.00    +0.000 A 
ATOM      2  C   UNL     1       2.086   5.313  18.199  0.00  0.00    +0.000 A 
ATOM      3  N   UNL     1       3.005   6.176  17.606  0.00  0.00    +0.000 N 
ATOM      4  C   UNL     1       4.193   5.613  17.063  0.00  0.00    +0.000 A 
ATOM      5  C   UNL     1       5.222   6.374  16.483  0.00  0.00    +0.000 A 
ATOM      6  C   UNL     1       6.392   5.773  15.996  0.00  0.00    +0.000 A 
ATOM      7  C   UNL     1       6.556   4.394  16.059  0.00  0.00    +0.000 A 
ATOM      8  C   UNL     1       5.550   3.610  16.606  0.00  0.00    +0.000 A 
ATOM      9  C   UNL     1       4.386   4.213  17.105  0.00  0.00    +0.000 A 
ATOM     10  C   UNL     1       3.352   3.335  17.703  0.00  0.00    +0.000 A 
ATOM     11  O   UNL     1       3.478   2.115  17.681  0.00  0.00    +0.000 OA
ENDROOT
BRANCH   1  13
ATOM     12  C   UNL     1       0.993   3.527  20.556  0.00  0.00    +0.000 C 
ATOM     13  C   UNL     1       1.116   3.264  19.078  0.00  0.00    +0.000 C 
ATOM     14  O   UNL     1       0.332   2.497  18.509  0.00  0.00    +0.000 OA
ENDBRANCH   1  13
BRANCH   3  15
ATOM     15  C   UNL     1       2.875   7.657  17.586  0.00  0.00    +0.000 C 
BRANCH  15  16
ATOM     16  C   UNL     1       2.153   8.226  18.794  0.00  0.00    +0.000 A 
ATOM     17  C   UNL     1       2.119   7.499  19.994  0.00  0.00    +0.000 A 
ATOM     18  C   UNL     1       1.296   7.907  21.044  0.00  0.00    +0.000 A 
ATOM     19  C   UNL     1       0.497   9.047  20.905  0.00  0.00    +0.000 A 
ATOM     20  C   UNL     1       0.584   9.823  19.743  0.00  0.00    +0.000 A 
ATOM     21  C   UNL     1       1.404   9.410  18.689  0.00  0.00    +0.000 A 
BRANCH  19  22
ATOM     22  C   UNL     1      -0.423   9.392  22.019  0.00  0.00    +0.000 C 
ATOM     23  O   UNL     1      -0.765  10.535  22.264  0.00  0.00    +0.000 OA
BRANCH  22  24
ATOM     24  O   UNL     1      -0.797   8.332  22.766  0.00  0.00    +0.000 OA
ATOM     25  H   UNL     1      -1.588   7.860  22.443  0.00  0.00    +0.000 HD
ENDBRANCH  22  24
ENDBRANCH  19  22
ENDBRANCH  15  16
ENDBRANCH   3  15
TORSDOF 5
ENDMDL
MODEL 9
REMARK VINA RESULT:      -8.1      1.340      1.508
REMARK  Name = 
REMARK  6 active torsions:
REMARK  status: ('A' for Active; 'I' for Inactive)
REMARK    1  A    between atoms: C_1  and  C_2
REMARK    2  A    between atoms: C_2  and  C_4
REMARK    3  A    between atoms: N_6  and  C_7
REMARK    4  A    between atoms: C_7  and  C_8
REMARK    5  A    between atoms: C_11  and  C_12
REMARK    6  A    between atoms: C_12  and  O_14
REMARK                            x       y       z     vdW  Elec       q    Type
REMARK                         _______ _______ _______ _____ _____    ______ ____
ROOT
ATOM      1  C   UNL     1       2.994   4.114  19.351  0.00  0.00    +0.000 A 
ATOM      2  C   UNL     1       2.535   5.283  18.885  0.00  0.00    +0.000 A 
ATOM      3  N   UNL     1       3.266   6.294  18.267  0.00  0.00    +0.000 N 
ATOM      4  C   UNL     1       4.667   6.105  18.113  0.00  0.00    +0.000 A 
ATOM      5  C   UNL     1       5.527   7.064  17.554  0.00  0.00    +0.000 A 
ATOM      6  C   UNL     1       6.909   6.844  17.461  0.00  0.00    +0.000 A 
ATOM      7  C   UNL     1       7.466   5.651  17.908  0.00  0.00    +0.000 A 
ATOM      8  C   UNL     1       6.643   4.672  18.446  0.00  0.00    +0.000 A 
ATOM      9  C   UNL     1       5.262   4.899  18.552  0.00  0.00    +0.000 A 
ATOM     10  C   UNL     1       4.428   3.833  19.157  0.00  0.00    +0.000 A 
ATOM     11  O   UNL     1       4.923   2.756  19.475  0.00  0.00    +0.000 OA
ENDROOT
BRANCH   1  13
ATOM     12  C   UNL     1       2.133   3.132  21.573  0.00  0.00    +0.000 C 
ATOM     13  C   UNL     1       2.045   3.218  20.072  0.00  0.00    +0.000 C 
ATOM     14  O   UNL     1       1.181   2.586  19.457  0.00  0.00    +0.000 OA
ENDBRANCH   1  13
BRANCH   3  15
ATOM     15  C   UNL     1       2.699   7.601  17.841  0.00  0.00    +0.000 C 
BRANCH  15  16
ATOM     16  C   UNL     1       1.837   8.269  18.896  0.00  0.00    +0.000 A 
ATOM     17  C   UNL     1       1.111   9.427  18.573  0.00  0.00    +0.000 A 
ATOM     18  C   UNL     1       0.479  10.166  19.574  0.00  0.00    +0.000 A 
ATOM     19  C   UNL     1       0.566   9.755  20.909  0.00  0.00    +0.000 A 
ATOM     20  C   UNL     1       1.220   8.559  21.230  0.00  0.00    +0.000 A 
ATOM     21  C   UNL     1       1.858   7.823  20.228  0.00  0.00    +0.000 A 
BRANCH  19  22
ATOM     22  C   UNL     1      -0.053  10.620  21.945  0.00  0.00    +0.000 C 
ATOM     23  O   UNL     1       0.059  10.406  23.139  0.00  0.00    +0.000 OA
BRANCH  22  24
ATOM     24  O   UNL     1      -0.796  11.629  21.442  0.00  0.00    +0.000 OA
ATOM     25  H   UNL     1      -0.319  12.229  20.838  0.00  0.00    +0.000 HD
ENDBRANCH  22  24
ENDBRANCH  19  22
ENDBRANCH  15  16
ENDBRANCH   3  15
TORSDOF 5
ENDMDL
