MODEL 1
REMARK VINA RESULT:      -6.4      0.000      0.000
REMARK  Name = 
REMARK  10 active torsions:
REMARK  status: ('A' for Active; 'I' for Inactive)
REMARK    1  A    between atoms: C_1  and  C_2
REMARK    2  A    between atoms: C_2  and  C_3
REMARK    3  A    between atoms: C_2  and  C_4
REMARK    4  A    between atoms: C_4  and  C_5
REMARK    5  A    between atoms: C_5  and  C_6
REMARK    6  A    between atoms: C_5  and  O_7
REMARK    7  A    between atoms: O_7  and  C_8
REMARK    8  A    between atoms: C_8  and  C_9
REMARK    9  A    between atoms: C_9  and  C_10
REMARK   10  A    between atoms: C_17  and  C_18
REMARK                            x       y       z     vdW  Elec       q    Type
REMARK                         _______ _______ _______ _____ _____    ______ ____
ROOT
ATOM      1  C   UNL     1       1.987   4.584  18.017  0.00  0.00    +0.000 C 
ATOM      2  O   UNL     1       1.261   4.385  17.043  0.00  0.00    +0.000 OA
ATOM      3  N   UNL     1       2.434   3.526  18.785  0.00  0.00    +0.000 N 
ATOM      4  C   UNL     1       2.159   2.151  18.342  0.00  0.00    +0.000 C 
ATOM      5  C   UNL     1       3.468   1.364  18.230  0.00  0.00    +0.000 C 
ATOM      6  O   UNL     1       4.196   1.398  19.469  0.00  0.00    +0.000 OA
ATOM      7  C   UNL     1       4.496   2.745  19.875  0.00  0.00    +0.000 C 
ATOM      8  C   UNL     1       3.231   3.614  20.028  0.00  0.00    +0.000 C 
ENDROOT
BRANCH   8   9
ATOM      9  C   UNL     1       2.453   3.180  21.216  0.00  0.00    +0.000 C 
ATOM     10  N   UNL     1       1.848   2.850  22.151  0.00  0.00    +0.000 NA
ENDBRANCH   8   9
BRANCH   1  11
ATOM     11  C   UNL     1       2.440   5.999  18.371  0.00  0.00    +0.000 C 
BRANCH  11  12
ATOM     12  C   UNL     1       3.651   6.344  17.502  0.00  0.00    +0.000 C 
BRANCH  12  13
ATOM     13  O   UNL     1       4.439   5.200  17.149  0.00  0.00    +0.000 OA
BRANCH  13  14
ATOM     14  C   UNL     1       5.587   5.563  16.339  0.00  0.00    +0.000 C 
ATOM     15  C   UNL     1       5.417   5.103  14.888  0.00  0.00    +0.000 C 
BRANCH  14  16
ATOM     16  C   UNL     1       6.850   4.931  16.970  0.00  0.00    +0.000 C 
BRANCH  16  18
ATOM     17  C   UNL     1       7.538   7.305  17.625  0.00  0.00    +0.000 C 
ATOM     18  C   UNL     1       7.603   5.821  17.989  0.00  0.00    +0.000 C 
ATOM     19  C   UNL     1       7.055   5.612  19.405  0.00  0.00    +0.000 C 
ENDBRANCH  16  18
ENDBRANCH  14  16
ENDBRANCH  13  14
ENDBRANCH  12  13
ENDBRANCH  11  12
ENDBRANCH   1  11
TORSDOF 7
ENDMDL
MODEL 2
REMARK VINA RESULT:      -6.3      2.205      4.432
REMARK  Name = 
REMARK  10 active torsions:
REMARK  status: ('A' for Active; 'I' for Inactive)
REMARK    1  A    between atoms: C_1  and  C_2
REMARK    2  A    between atoms: C_2  and  C_3
REMARK    3  A    between atoms: C_2  and  C_4
REMARK    4  A    between atoms: C_4  and  C_5
REMARK    5  A    between atoms: C_5  and  C_6
REMARK    6  A    between atoms: C_5  and  O_7
REMARK    7  A    between atoms: O_7  and  C_8
REMARK    8  A    between atoms: C_8  and  C_9
REMARK    9  A    between atoms: C_9  and  C_10
REMARK   10  A    between atoms: C_17  and  C_18
REMARK                            x       y       z     vdW  Elec       q    Type
REMARK                         _______ _______ _______ _____ _____    ______ ____
ROOT
ATOM      1  C   UNL     1       6.209   4.817  18.886  0.00  0.00    +0.000 C 
ATOM      2  O   UNL     1       6.611   5.464  19.852  0.00  0.00    +0.000 OA
ATOM      3  N   UNL     1       4.886   4.426  18.806  0.00  0.00    +0.000 N 
ATOM      4  C   UNL     1       3.931   4.919  19.810  0.00  0.00    +0.000 C 
ATOM      5  C   UNL     1       2.759   5.620  19.119  0.00  0.00    +0.000 C 
ATOM      6  O   UNL     1       2.134   4.754  18.157  0.00  0.00    +0.000 OA
ATOM      7  C   UNL     1       3.066   4.309  17.155  0.00  0.00    +0.000 C 
ATOM      8  C   UNL     1       4.280   3.574  17.759  0.00  0.00    +0.000 C 
ENDROOT
BRANCH   8   9
ATOM      9  C   UNL     1       3.864   2.254  18.295  0.00  0.00    +0.000 C 
ATOM     10  N   UNL     1       3.548   1.215  18.708  0.00  0.00    +0.000 NA
ENDBRANCH   8   9
BRANCH   1  11
ATOM     11  C   UNL     1       7.154   4.468  17.738  0.00  0.00    +0.000 C 
BRANCH  11  12
ATOM     12  C   UNL     1       7.186   5.651  16.769  0.00  0.00    +0.000 C 
BRANCH  12  13
ATOM     13  O   UNL     1       7.613   5.289  15.448  0.00  0.00    +0.000 OA
BRANCH  13  14
ATOM     14  C   UNL     1       6.512   5.303  14.503  0.00  0.00    +0.000 C 
ATOM     15  C   UNL     1       5.297   6.046  15.069  0.00  0.00    +0.000 C 
BRANCH  14  16
ATOM     16  C   UNL     1       6.147   3.840  14.157  0.00  0.00    +0.000 C 
BRANCH  16  18
ATOM     17  C   UNL     1       4.894   3.433  11.965  0.00  0.00    +0.000 C 
ATOM     18  C   UNL     1       6.257   3.462  12.659  0.00  0.00    +0.000 C 
ATOM     19  C   UNL     1       7.192   4.425  11.922  0.00  0.00    +0.000 C 
ENDBRANCH  16  18
ENDBRANCH  14  16
ENDBRANCH  13  14
ENDBRANCH  12  13
ENDBRANCH  11  12
ENDBRANCH   1  11
TORSDOF 7
ENDMDL
MODEL 3
REMARK VINA RESULT:      -6.3      2.640      4.659
REMARK  Name = 
REMARK  10 active torsions:
REMARK  status: ('A' for Active; 'I' for Inactive)
REMARK    1  A    between atoms: C_1  and  C_2
REMARK    2  A    between atoms: C_2  and  C_3
REMARK    3  A    between atoms: C_2  and  C_4
REMARK    4  A    between atoms: C_4  and  C_5
REMARK    5  A    between atoms: C_5  and  C_6
REMARK    6  A    between atoms: C_5  and  O_7
REMARK    7  A    between atoms: O_7  and  C_8
REMARK    8  A    between atoms: C_8  and  C_9
REMARK    9  A    between atoms: C_9  and  C_10
REMARK   10  A    between atoms: C_17  and  C_18
REMARK                            x       y       z     vdW  Elec       q    Type
REMARK                         _______ _______ _______ _____ _____    ______ ____
ROOT
ATOM      1  C   UNL     1       5.478   4.983  17.677  0.00  0.00    +0.000 C 
ATOM      2  O   UNL     1       5.889   6.140  17.762  0.00  0.00    +0.000 OA
ATOM      3  N   UNL     1       4.549   4.503  18.581  0.00  0.00    +0.000 N 
ATOM      4  C   UNL     1       3.945   5.430  19.550  0.00  0.00    +0.000 C 
ATOM      5  C   UNL     1       2.419   5.388  19.434  0.00  0.00    +0.000 C 
ATOM      6  O   UNL     1       1.926   4.047  19.589  0.00  0.00    +0.000 OA
ATOM      7  C   UNL     1       2.492   3.156  18.611  0.00  0.00    +0.000 C 
ATOM      8  C   UNL     1       4.033   3.119  18.662  0.00  0.00    +0.000 C 
ENDROOT
BRANCH   8   9
ATOM      9  C   UNL     1       4.488   2.432  19.897  0.00  0.00    +0.000 C 
ATOM     10  N   UNL     1       4.854   1.889  20.857  0.00  0.00    +0.000 NA
ENDBRANCH   8   9
BRANCH   1  11
ATOM     11  C   UNL     1       5.954   4.070  16.550  0.00  0.00    +0.000 C 
BRANCH  11  12
ATOM     12  C   UNL     1       7.078   4.785  15.798  0.00  0.00    +0.000 C 
BRANCH  12  13
ATOM     13  O   UNL     1       6.677   5.273  14.511  0.00  0.00    +0.000 OA
BRANCH  13  14
ATOM     14  C   UNL     1       6.914   4.296  13.464  0.00  0.00    +0.000 C 
ATOM     15  C   UNL     1       7.525   4.948  12.219  0.00  0.00    +0.000 C 
BRANCH  14  16
ATOM     16  C   UNL     1       5.570   3.611  13.122  0.00  0.00    +0.000 C 
BRANCH  16  18
ATOM     17  C   UNL     1       5.931   1.689  11.474  0.00  0.00    +0.000 C 
ATOM     18  C   UNL     1       5.426   3.121  11.660  0.00  0.00    +0.000 C 
ATOM     19  C   UNL     1       3.970   3.220  11.194  0.00  0.00    +0.000 C 
ENDBRANCH  16  18
ENDBRANCH  14  16
ENDBRANCH  13  14
ENDBRANCH  12  13
ENDBRANCH  11  12
ENDBRANCH   1  11
TORSDOF 7
ENDMDL
MODEL 4
REMARK VINA RESULT:      -6.1      0.966      1.945
REMARK  Name = 
REMARK  10 active torsions:
REMARK  status: ('A' for Active; 'I' for Inactive)
REMARK    1  A    between atoms: C_1  and  C_2
REMARK    2  A    between atoms: C_2  and  C_3
REMARK    3  A    between atoms: C_2  and  C_4
REMARK    4  A    between atoms: C_4  and  C_5
REMARK    5  A    between atoms: C_5  and  C_6
REMARK    6  A    between atoms: C_5  and  O_7
REMARK    7  A    between atoms: O_7  and  C_8
REMARK    8  A    between atoms: C_8  and  C_9
REMARK    9  A    between atoms: C_9  and  C_10
REMARK   10  A    between atoms: C_17  and  C_18
REMARK                            x       y       z     vdW  Elec       q    Type
REMARK                         _______ _______ _______ _____ _____    ______ ____
ROOT
ATOM      1  C   UNL     1       1.797   4.581  18.182  0.00  0.00    +0.000 C 
ATOM      2  O   UNL     1       1.101   4.415  17.181  0.00  0.00    +0.000 OA
ATOM      3  N   UNL     1       2.317   3.495  18.860  0.00  0.00    +0.000 N 
ATOM      4  C   UNL     1       2.156   2.149  18.290  0.00  0.00    +0.000 C 
ATOM      5  C   UNL     1       3.524   1.479  18.133  0.00  0.00    +0.000 C 
ATOM      6  O   UNL     1       4.233   1.456  19.383  0.00  0.00    +0.000 OA
ATOM      7  C   UNL     1       4.421   2.780  19.914  0.00  0.00    +0.000 C 
ATOM      8  C   UNL     1       3.089   3.531  20.121  0.00  0.00    +0.000 C 
ENDROOT
BRANCH   8   9
ATOM      9  C   UNL     1       2.334   2.931  21.249  0.00  0.00    +0.000 C 
ATOM     10  N   UNL     1       1.753   2.455  22.136  0.00  0.00    +0.000 NA
ENDBRANCH   8   9
BRANCH   1  11
ATOM     11  C   UNL     1       2.133   5.988  18.670  0.00  0.00    +0.000 C 
BRANCH  11  12
ATOM     12  C   UNL     1       3.342   6.492  17.880  0.00  0.00    +0.000 C 
BRANCH  12  13
ATOM     13  O   UNL     1       4.594   6.203  18.516  0.00  0.00    +0.000 OA
BRANCH  13  14
ATOM     14  C   UNL     1       5.649   5.962  17.549  0.00  0.00    +0.000 C 
ATOM     15  C   UNL     1       6.463   7.232  17.280  0.00  0.00    +0.000 C 
BRANCH  14  16
ATOM     16  C   UNL     1       5.005   5.437  16.245  0.00  0.00    +0.000 C 
BRANCH  16  18
ATOM     17  C   UNL     1       5.640   4.270  14.060  0.00  0.00    +0.000 C 
ATOM     18  C   UNL     1       5.719   4.231  15.586  0.00  0.00    +0.000 C 
ATOM     19  C   UNL     1       7.185   4.161  16.026  0.00  0.00    +0.000 C 
ENDBRANCH  16  18
ENDBRANCH  14  16
ENDBRANCH  13  14
ENDBRANCH  12  13
ENDBRANCH  11  12
ENDBRANCH   1  11
TORSDOF 7
ENDMDL
MODEL 5
REMARK VINA RESULT:      -6.1      1.554      1.874
REMARK  Name = 
REMARK  10 active torsions:
REMARK  status: ('A' for Active; 'I' for Inactive)
REMARK    1  A    between atoms: C_1  and  C_2
REMARK    2  A    between atoms: C_2  and  C_3
REMARK    3  A    between atoms: C_2  and  C_4
REMARK    4  A    between atoms: C_4  and  C_5
REMARK    5  A    between atoms: C_5  and  C_6
REMARK    6  A    between atoms: C_5  and  O_7
REMARK    7  A    between atoms: O_7  and  C_8
REMARK    8  A    between atoms: C_8  and  C_9
REMARK    9  A    between atoms: C_9  and  C_10
REMARK   10  A    between atoms: C_17  and  C_18
REMARK                            x       y       z     vdW  Elec       q    Type
REMARK                         _______ _______ _______ _____ _____    ______ ____
ROOT
ATOM      1  C   UNL     1       2.870   5.344  19.859  0.00  0.00    +0.000 C 
ATOM      2  O   UNL     1       1.946   5.946  20.406  0.00  0.00    +0.000 OA
ATOM      3  N   UNL     1       2.839   3.966  19.749  0.00  0.00    +0.000 N 
ATOM      4  C   UNL     1       1.627   3.241  20.156  0.00  0.00    +0.000 C 
ATOM      5  C   UNL     1       1.119   2.376  18.999  0.00  0.00    +0.000 C 
ATOM      6  O   UNL     1       2.148   1.490  18.528  0.00  0.00    +0.000 OA
ATOM      7  C   UNL     1       3.315   2.211  18.094  0.00  0.00    +0.000 C 
ATOM      8  C   UNL     1       3.909   3.102  19.204  0.00  0.00    +0.000 C 
ENDROOT
BRANCH   8   9
ATOM      9  C   UNL     1       4.531   2.262  20.257  0.00  0.00    +0.000 C 
ATOM     10  N   UNL     1       5.013   1.611  21.091  0.00  0.00    +0.000 NA
ENDBRANCH   8   9
BRANCH   1  11
ATOM     11  C   UNL     1       4.045   6.108  19.255  0.00  0.00    +0.000 C 
BRANCH  11  12
ATOM     12  C   UNL     1       3.710   6.427  17.797  0.00  0.00    +0.000 C 
BRANCH  12  13
ATOM     13  O   UNL     1       4.165   5.424  16.879  0.00  0.00    +0.000 OA
BRANCH  13  14
ATOM     14  C   UNL     1       5.495   5.713  16.378  0.00  0.00    +0.000 C 
ATOM     15  C   UNL     1       5.651   5.272  14.918  0.00  0.00    +0.000 C 
BRANCH  14  16
ATOM     16  C   UNL     1       6.525   4.995  17.280  0.00  0.00    +0.000 C 
BRANCH  16  18
ATOM     17  C   UNL     1       7.429   7.373  17.532  0.00  0.00    +0.000 C 
ATOM     18  C   UNL     1       7.631   5.898  17.880  0.00  0.00    +0.000 C 
ATOM     19  C   UNL     1       7.704   5.730  19.402  0.00  0.00    +0.000 C 
ENDBRANCH  16  18
ENDBRANCH  14  16
ENDBRANCH  13  14
ENDBRANCH  12  13
ENDBRANCH  11  12
ENDBRANCH   1  11
TORSDOF 7
ENDMDL
MODEL 6
REMARK VINA RESULT:      -6.1      2.367      4.291
REMARK  Name = 
REMARK  10 active torsions:
REMARK  status: ('A' for Active; 'I' for Inactive)
REMARK    1  A    between atoms: C_1  and  C_2
REMARK    2  A    between atoms: C_2  and  C_3
REMARK    3  A    between atoms: C_2  and  C_4
REMARK    4  A    between atoms: C_4  and  C_5
REMARK    5  A    between atoms: C_5  and  C_6
REMARK    6  A    between atoms: C_5  and  O_7
REMARK    7  A    between atoms: O_7  and  C_8
REMARK    8  A    between atoms: C_8  and  C_9
REMARK    9  A    between atoms: C_9  and  C_10
REMARK   10  A    between atoms: C_17  and  C_18
REMARK                            x       y       z     vdW  Elec       q    Type
REMARK                         _______ _______ _______ _____ _____    ______ ____
ROOT
ATOM      1  C   UNL     1       4.656   5.325  17.846  0.00  0.00    +0.000 C 
ATOM      2  O   UNL     1       4.396   6.528  17.846  0.00  0.00    +0.000 OA
ATOM      3  N   UNL     1       3.736   4.411  18.324  0.00  0.00    +0.000 N 
ATOM      4  C   UNL     1       2.390   4.873  18.692  0.00  0.00    +0.000 C 
ATOM      5  C   UNL     1       1.333   4.077  17.923  0.00  0.00    +0.000 C 
ATOM      6  O   UNL     1       1.497   2.665  18.134  0.00  0.00    +0.000 OA
ATOM      7  C   UNL     1       2.803   2.214  17.733  0.00  0.00    +0.000 C 
ATOM      8  C   UNL     1       3.938   2.953  18.470  0.00  0.00    +0.000 C 
ENDROOT
BRANCH   8   9
ATOM      9  C   UNL     1       3.976   2.541  19.896  0.00  0.00    +0.000 C 
ATOM     10  N   UNL     1       4.002   2.206  21.008  0.00  0.00    +0.000 NA
ENDBRANCH   8   9
BRANCH   1  11
ATOM     11  C   UNL     1       5.980   4.816  17.280  0.00  0.00    +0.000 C 
BRANCH  11  12
ATOM     12  C   UNL     1       5.759   4.435  15.815  0.00  0.00    +0.000 C 
BRANCH  12  13
ATOM     13  O   UNL     1       6.713   5.030  14.926  0.00  0.00    +0.000 OA
BRANCH  13  14
ATOM     14  C   UNL     1       6.885   4.248  13.716  0.00  0.00    +0.000 C 
ATOM     15  C   UNL     1       7.555   5.070  12.609  0.00  0.00    +0.000 C 
BRANCH  14  16
ATOM     16  C   UNL     1       5.497   3.743  13.259  0.00  0.00    +0.000 C 
BRANCH  16  18
ATOM     17  C   UNL     1       5.993   1.853  11.610  0.00  0.00    +0.000 C 
ATOM     18  C   UNL     1       5.414   3.257  11.791  0.00  0.00    +0.000 C 
ATOM     19  C   UNL     1       3.967   3.288  11.288  0.00  0.00    +0.000 C 
ENDBRANCH  16  18
ENDBRANCH  14  16
ENDBRANCH  13  14
ENDBRANCH  12  13
ENDBRANCH  11  12
ENDBRANCH   1  11
TORSDOF 7
ENDMDL
MODEL 7
REMARK VINA RESULT:      -6.1      2.297      5.553
REMARK  Name = 
REMARK  10 active torsions:
REMARK  status: ('A' for Active; 'I' for Inactive)
REMARK    1  A    between atoms: C_1  and  C_2
REMARK    2  A    between atoms: C_2  and  C_3
REMARK    3  A    between atoms: C_2  and  C_4
REMARK    4  A    between atoms: C_4  and  C_5
REMARK    5  A    between atoms: C_5  and  C_6
REMARK    6  A    between atoms: C_5  and  O_7
REMARK    7  A    between atoms: O_7  and  C_8
REMARK    8  A    between atoms: C_8  and  C_9
REMARK    9  A    between atoms: C_9  and  C_10
REMARK   10  A    between atoms: C_17  and  C_18
REMARK                            x       y       z     vdW  Elec       q    Type
REMARK                         _______ _______ _______ _____ _____    ______ ____
ROOT
ATOM      1  C   UNL     1       3.842   6.192  17.775  0.00  0.00    +0.000 C 
ATOM      2  O   UNL     1       3.395   7.339  17.774  0.00  0.00    +0.000 OA
ATOM      3  N   UNL     1       5.102   5.932  17.270  0.00  0.00    +0.000 N 
ATOM      4  C   UNL     1       5.961   7.057  16.870  0.00  0.00    +0.000 C 
ATOM      5  C   UNL     1       7.299   6.982  17.609  0.00  0.00    +0.000 C 
ATOM      6  O   UNL     1       7.937   5.712  17.394  0.00  0.00    +0.000 OA
ATOM      7  C   UNL     1       7.106   4.619  17.825  0.00  0.00    +0.000 C 
ATOM      8  C   UNL     1       5.734   4.603  17.120  0.00  0.00    +0.000 C 
ENDROOT
BRANCH   8   9
ATOM      9  C   UNL     1       5.897   4.226  15.694  0.00  0.00    +0.000 C 
ATOM     10  N   UNL     1       6.027   3.919  14.581  0.00  0.00    +0.000 NA
ENDBRANCH   8   9
BRANCH   1  11
ATOM     11  C   UNL     1       3.032   5.043  18.370  0.00  0.00    +0.000 C 
BRANCH  11  12
ATOM     12  C   UNL     1       2.184   4.428  17.255  0.00  0.00    +0.000 C 
BRANCH  12  13
ATOM     13  O   UNL     1       2.075   3.001  17.349  0.00  0.00    +0.000 OA
BRANCH  13  14
ATOM     14  C   UNL     1       2.618   2.498  18.597  0.00  0.00    +0.000 C 
ATOM     15  C   UNL     1       3.635   1.378  18.354  0.00  0.00    +0.000 C 
BRANCH  14  16
ATOM     16  C   UNL     1       1.447   1.995  19.472  0.00  0.00    +0.000 C 
BRANCH  16  18
ATOM     17  C   UNL     1       2.530   2.685  21.683  0.00  0.00    +0.000 C 
ATOM     18  C   UNL     1       1.264   2.724  20.826  0.00  0.00    +0.000 C 
ATOM     19  C   UNL     1       0.832   4.178  20.607  0.00  0.00    +0.000 C 
ENDBRANCH  16  18
ENDBRANCH  14  16
ENDBRANCH  13  14
ENDBRANCH  12  13
ENDBRANCH  11  12
ENDBRANCH   1  11
TORSDOF 7
ENDMDL
MODEL 8
REMARK VINA RESULT:      -6.0      2.533      5.771
REMARK  Name = 
REMARK  10 active torsions:
REMARK  status: ('A' for Active; 'I' for Inactive)
REMARK    1  A    between atoms: C_1  and  C_2
REMARK    2  A    between atoms: C_2  and  C_3
REMARK    3  A    between atoms: C_2  and  C_4
REMARK    4  A    between atoms: C_4  and  C_5
REMARK    5  A    between atoms: C_5  and  C_6
REMARK    6  A    between atoms: C_5  and  O_7
REMARK    7  A    between atoms: O_7  and  C_8
REMARK    8  A    between atoms: C_8  and  C_9
REMARK    9  A    between atoms: C_9  and  C_10
REMARK   10  A    between atoms: C_17  and  C_18
REMARK                            x       y       z     vdW  Elec       q    Type
REMARK                         _______ _______ _______ _____ _____    ______ ____
ROOT
ATOM      1  C   UNL     1       5.467   4.780  18.798  0.00  0.00    +0.000 C 
ATOM      2  O   UNL     1       5.866   3.751  19.340  0.00  0.00    +0.000 OA
ATOM      3  N   UNL     1       6.144   5.309  17.715  0.00  0.00    +0.000 N 
ATOM      4  C   UNL     1       7.257   4.551  17.125  0.00  0.00    +0.000 C 
ATOM      5  C   UNL     1       7.008   4.331  15.631  0.00  0.00    +0.000 C 
ATOM      6  O   UNL     1       6.787   5.580  14.956  0.00  0.00    +0.000 OA
ATOM      7  C   UNL     1       5.671   6.297  15.513  0.00  0.00    +0.000 C 
ATOM      8  C   UNL     1       5.840   6.579  17.020  0.00  0.00    +0.000 C 
ENDROOT
BRANCH   8   9
ATOM      9  C   UNL     1       6.901   7.595  17.235  0.00  0.00    +0.000 C 
ATOM     10  N   UNL     1       7.735   8.384  17.414  0.00  0.00    +0.000 NA
ENDBRANCH   8   9
BRANCH   1  11
ATOM     11  C   UNL     1       4.193   5.470  19.282  0.00  0.00    +0.000 C 
BRANCH  11  12
ATOM     12  C   UNL     1       3.105   5.260  18.228  0.00  0.00    +0.000 C 
BRANCH  12  13
ATOM     13  O   UNL     1       3.084   3.929  17.694  0.00  0.00    +0.000 OA
BRANCH  13  14
ATOM     14  C   UNL     1       2.806   2.940  18.720  0.00  0.00    +0.000 C 
ATOM     15  C   UNL     1       3.337   1.558  18.323  0.00  0.00    +0.000 C 
BRANCH  14  16
ATOM     16  C   UNL     1       1.277   2.894  18.952  0.00  0.00    +0.000 C 
BRANCH  16  18
ATOM     17  C   UNL     1       1.609   2.576  21.468  0.00  0.00    +0.000 C 
ATOM     18  C   UNL     1       0.808   3.285  20.375  0.00  0.00    +0.000 C 
ATOM     19  C   UNL     1       0.888   4.802  20.577  0.00  0.00    +0.000 C 
ENDBRANCH  16  18
ENDBRANCH  14  16
ENDBRANCH  13  14
ENDBRANCH  12  13
ENDBRANCH  11  12
ENDBRANCH   1  11
TORSDOF 7
ENDMDL
MODEL 9
REMARK VINA RESULT:      -6.0      1.879      3.183
REMARK  Name = 
REMARK  10 active torsions:
REMARK  status: ('A' for Active; 'I' for Inactive)
REMARK    1  A    between atoms: C_1  and  C_2
REMARK    2  A    between atoms: C_2  and  C_3
REMARK    3  A    between atoms: C_2  and  C_4
REMARK    4  A    between atoms: C_4  and  C_5
REMARK    5  A    between atoms: C_5  and  C_6
REMARK    6  A    between atoms: C_5  and  O_7
REMARK    7  A    between atoms: O_7  and  C_8
REMARK    8  A    between atoms: C_8  and  C_9
REMARK    9  A    between atoms: C_9  and  C_10
REMARK   10  A    between atoms: C_17  and  C_18
REMARK                            x       y       z     vdW  Elec       q    Type
REMARK                         _______ _______ _______ _____ _____    ______ ____
ROOT
ATOM      1  C   UNL     1       3.207   5.657  18.820  0.00  0.00    +0.000 C 
ATOM      2  O   UNL     1       2.942   6.722  19.375  0.00  0.00    +0.000 OA
ATOM      3  N   UNL     1       2.917   4.455  19.437  0.00  0.00    +0.000 N 
ATOM      4  C   UNL     1       2.153   4.460  20.694  0.00  0.00    +0.000 C 
ATOM      5  C   UNL     1       0.908   3.580  20.555  0.00  0.00    +0.000 C 
ATOM      6  O   UNL     1       1.260   2.250  20.142  0.00  0.00    +0.000 OA
ATOM      7  C   UNL     1       1.971   2.251  18.890  0.00  0.00    +0.000 C 
ATOM      8  C   UNL     1       3.256   3.104  18.939  0.00  0.00    +0.000 C 
ENDROOT
BRANCH   8   9
ATOM      9  C   UNL     1       4.277   2.442  19.788  0.00  0.00    +0.000 C 
ATOM     10  N   UNL     1       5.085   1.933  20.451  0.00  0.00    +0.000 NA
ENDBRANCH   8   9
BRANCH   1  11
ATOM     11  C   UNL     1       3.823   5.641  17.423  0.00  0.00    +0.000 C 
BRANCH  11  12
ATOM     12  C   UNL     1       4.754   6.847  17.298  0.00  0.00    +0.000 C 
BRANCH  12  13
ATOM     13  O   UNL     1       6.125   6.536  17.583  0.00  0.00    +0.000 OA
BRANCH  13  14
ATOM     14  C   UNL     1       6.541   5.298  16.949  0.00  0.00    +0.000 C 
ATOM     15  C   UNL     1       7.637   4.597  17.758  0.00  0.00    +0.000 C 
BRANCH  14  16
ATOM     16  C   UNL     1       7.036   5.623  15.521  0.00  0.00    +0.000 C 
BRANCH  16  18
ATOM     17  C   UNL     1       5.365   4.147  14.267  0.00  0.00    +0.000 C 
ATOM     18  C   UNL     1       6.839   4.497  14.475  0.00  0.00    +0.000 C 
ATOM     19  C   UNL     1       7.474   4.883  13.135  0.00  0.00    +0.000 C 
ENDBRANCH  16  18
ENDBRANCH  14  16
ENDBRANCH  13  14
ENDBRANCH  12  13
ENDBRANCH  11  12
ENDBRANCH   1  11
TORSDOF 7
ENDMDL
