MODEL 1
REMARK VINA RESULT:      -7.6      0.000      0.000
REMARK  Name = 
REMARK  10 active torsions:
REMARK  status: ('A' for Active; 'I' for Inactive)
REMARK    1  A    between atoms: C_1  and  C_2
REMARK    2  A    between atoms: C_5  and  N_6
REMARK    3  A    between atoms: C_7  and  C_9
REMARK    4  A    between atoms: C_11  and  N_12
REMARK    5  A    between atoms: C_13  and  C_15
REMARK    6  A    between atoms: C_15  and  C_16
REMARK    7  A    between atoms: C_16  and  C_17
REMARK    8  A    between atoms: C_17  and  C_18
REMARK    9  A    between atoms: C_18  and  O_20
REMARK   10  A    between atoms: C_23  and  N_24
REMARK                            x       y       z     vdW  Elec       q    Type
REMARK                         _______ _______ _______ _____ _____    ______ ____
ROOT
ATOM      1  C   UNL     1       0.598   9.404  21.260  0.00  0.00    +0.000 A 
ATOM      2  C   UNL     1       1.117   8.124  21.558  0.00  0.00    +0.000 A 
ATOM      3  C   UNL     1       1.771   7.345  20.598  0.00  0.00    +0.000 A 
ATOM      4  C   UNL     1       1.921   7.854  19.314  0.00  0.00    +0.000 A 
ATOM      5  C   UNL     1       1.437   9.129  19.007  0.00  0.00    +0.000 A 
ATOM      6  C   UNL     1       0.789   9.949  19.957  0.00  0.00    +0.000 A 
ENDROOT
BRANCH   6   7
ATOM      7  N   UNL     1       0.442  11.244  19.593  0.00  0.00    +0.000 N 
ATOM      8  C   UNL     1       1.415  12.345  19.675  0.00  0.00    +0.000 C 
ATOM      9  C   UNL     1       0.670  13.655  19.979  0.00  0.00    +0.000 C 
ATOM     10  O   UNL     1      -0.333  13.927  18.984  0.00  0.00    +0.000 OA
ATOM     11  C   UNL     1      -1.301  12.858  18.964  0.00  0.00    +0.000 C 
ATOM     12  C   UNL     1      -0.643  11.504  18.630  0.00  0.00    +0.000 C 
ENDBRANCH   6   7
BRANCH   1  14
ATOM     13  N   UNL     1      -1.040  11.085  22.051  0.00  0.00    +0.000 N 
ATOM     14  C   UNL     1      -0.025  10.181  22.386  0.00  0.00    +0.000 C 
ATOM     15  O   UNL     1       0.365   9.995  23.538  0.00  0.00    +0.000 OA
ATOM     16  H   UNL     1      -1.361  11.101  21.092  0.00  0.00    +0.000 HD
BRANCH  13  21
ATOM     17  C   UNL     1      -3.703  15.416  24.662  0.00  0.00    +0.000 C 
ATOM     18  C   UNL     1      -2.926  14.232  24.166  0.00  0.00    +0.000 A 
ATOM     19  C   UNL     1      -1.597  14.372  23.764  0.00  0.00    +0.000 A 
ATOM     20  C   UNL     1      -0.928  13.315  23.133  0.00  0.00    +0.000 A 
ATOM     21  C   UNL     1      -1.576  12.106  22.881  0.00  0.00    +0.000 A 
ATOM     22  C   UNL     1      -2.867  11.927  23.396  0.00  0.00    +0.000 A 
ATOM     23  C   UNL     1      -3.535  12.981  24.038  0.00  0.00    +0.000 A 
ENDBRANCH  13  21
ENDBRANCH   1  14
BRANCH   3  24
ATOM     24  N   UNL     1       2.321   6.072  20.866  0.00  0.00    +0.000 N 
ATOM     25  C   UNL     1       1.682   4.859  20.701  0.00  0.00    +0.000 C 
ATOM     26  O   UNL     1       0.566   4.688  20.215  0.00  0.00    +0.000 OA
ATOM     27  H   UNL     1       3.307   6.050  21.112  0.00  0.00    +0.000 HD
BRANCH  25  28
ATOM     28  C   UNL     1       2.516   3.665  21.119  0.00  0.00    +0.000 C 
BRANCH  28  29
ATOM     29  C   UNL     1       2.396   2.533  20.096  0.00  0.00    +0.000 C 
BRANCH  29  30
ATOM     30  C   UNL     1       3.717   2.152  19.434  0.00  0.00    +0.000 C 
BRANCH  30  31
ATOM     31  C   UNL     1       4.324   3.330  18.718  0.00  0.00    +0.000 C 
ATOM     32  O   UNL     1       3.731   3.971  17.862  0.00  0.00    +0.000 OA
BRANCH  31  33
ATOM     33  O   UNL     1       5.551   3.664  19.168  0.00  0.00    +0.000 OA
ATOM     34  H   UNL     1       5.960   4.420  18.703  0.00  0.00    +0.000 HD
ENDBRANCH  31  33
ENDBRANCH  30  31
ENDBRANCH  29  30
ENDBRANCH  28  29
ENDBRANCH  25  28
ENDBRANCH   3  24
TORSDOF 9
ENDMDL
MODEL 2
REMARK VINA RESULT:      -7.5      0.897      1.291
REMARK  Name = 
REMARK  10 active torsions:
REMARK  status: ('A' for Active; 'I' for Inactive)
REMARK    1  A    between atoms: C_1  and  C_2
REMARK    2  A    between atoms: C_5  and  N_6
REMARK    3  A    between atoms: C_7  and  C_9
REMARK    4  A    between atoms: C_11  and  N_12
REMARK    5  A    between atoms: C_13  and  C_15
REMARK    6  A    between atoms: C_15  and  C_16
REMARK    7  A    between atoms: C_16  and  C_17
REMARK    8  A    between atoms: C_17  and  C_18
REMARK    9  A    between atoms: C_18  and  O_20
REMARK   10  A    between atoms: C_23  and  N_24
REMARK                            x       y       z     vdW  Elec       q    Type
REMARK                         _______ _______ _______ _____ _____    ______ ____
ROOT
ATOM      1  C   UNL     1       0.857   9.173  20.829  0.00  0.00    +0.000 A 
ATOM      2  C   UNL     1       1.337   7.907  21.235  0.00  0.00    +0.000 A 
ATOM      3  C   UNL     1       1.963   7.029  20.344  0.00  0.00    +0.000 A 
ATOM      4  C   UNL     1       2.123   7.422  19.020  0.00  0.00    +0.000 A 
ATOM      5  C   UNL     1       1.679   8.681  18.606  0.00  0.00    +0.000 A 
ATOM      6  C   UNL     1       1.059   9.599  19.483  0.00  0.00    +0.000 A 
ENDROOT
BRANCH   6   7
ATOM      7  N   UNL     1       0.752  10.868  19.011  0.00  0.00    +0.000 N 
ATOM      8  C   UNL     1       1.802  11.877  18.798  0.00  0.00    +0.000 C 
ATOM      9  C   UNL     1       1.213  13.276  19.038  0.00  0.00    +0.000 C 
ATOM     10  O   UNL     1       0.083  13.520  18.183  0.00  0.00    +0.000 OA
ATOM     11  C   UNL     1      -0.950  12.550  18.452  0.00  0.00    +0.000 C 
ATOM     12  C   UNL     1      -0.455  11.111  18.201  0.00  0.00    +0.000 C 
ENDBRANCH   6   7
BRANCH   1  14
ATOM     13  N   UNL     1      -0.802  10.885  21.500  0.00  0.00    +0.000 N 
ATOM     14  C   UNL     1       0.263  10.062  21.885  0.00  0.00    +0.000 C 
ATOM     15  O   UNL     1       0.718  10.031  23.027  0.00  0.00    +0.000 OA
ATOM     16  H   UNL     1      -1.172  10.773  20.565  0.00  0.00    +0.000 HD
BRANCH  13  21
ATOM     17  C   UNL     1      -2.319  15.087  25.065  0.00  0.00    +0.000 C 
ATOM     18  C   UNL     1      -2.050  14.074  23.991  0.00  0.00    +0.000 A 
ATOM     19  C   UNL     1      -2.861  12.947  23.857  0.00  0.00    +0.000 A 
ATOM     20  C   UNL     1      -2.508  11.914  22.979  0.00  0.00    +0.000 A 
ATOM     21  C   UNL     1      -1.334  11.982  22.228  0.00  0.00    +0.000 A 
ATOM     22  C   UNL     1      -0.589  13.168  22.272  0.00  0.00    +0.000 A 
ATOM     23  C   UNL     1      -0.947  14.208  23.143  0.00  0.00    +0.000 A 
ENDBRANCH  13  21
ENDBRANCH   1  14
BRANCH   3  24
ATOM     24  N   UNL     1       2.474   5.767  20.718  0.00  0.00    +0.000 N 
ATOM     25  C   UNL     1       1.771   4.579  20.741  0.00  0.00    +0.000 C 
ATOM     26  O   UNL     1       0.615   4.414  20.357  0.00  0.00    +0.000 OA
ATOM     27  H   UNL     1       3.473   5.721  20.896  0.00  0.00    +0.000 HD
BRANCH  25  28
ATOM     28  C   UNL     1       2.580   3.397  21.235  0.00  0.00    +0.000 C 
BRANCH  28  29
ATOM     29  C   UNL     1       3.526   2.891  20.143  0.00  0.00    +0.000 C 
BRANCH  29  30
ATOM     30  C   UNL     1       2.822   2.168  18.998  0.00  0.00    +0.000 C 
BRANCH  30  31
ATOM     31  C   UNL     1       2.942   2.943  17.712  0.00  0.00    +0.000 C 
ATOM     32  O   UNL     1       1.976   3.291  17.048  0.00  0.00    +0.000 OA
BRANCH  31  33
ATOM     33  O   UNL     1       4.208   3.290  17.405  0.00  0.00    +0.000 OA
ATOM     34  H   UNL     1       4.783   3.447  18.179  0.00  0.00    +0.000 HD
ENDBRANCH  31  33
ENDBRANCH  30  31
ENDBRANCH  29  30
ENDBRANCH  28  29
ENDBRANCH  25  28
ENDBRANCH   3  24
TORSDOF 9
ENDMDL
MODEL 3
REMARK VINA RESULT:      -7.4      4.057      8.049
REMARK  Name = 
REMARK  10 active torsions:
REMARK  status: ('A' for Active; 'I' for Inactive)
REMARK    1  A    between atoms: C_1  and  C_2
REMARK    2  A    between atoms: C_5  and  N_6
REMARK    3  A    between atoms: C_7  and  C_9
REMARK    4  A    between atoms: C_11  and  N_12
REMARK    5  A    between atoms: C_13  and  C_15
REMARK    6  A    between atoms: C_15  and  C_16
REMARK    7  A    between atoms: C_16  and  C_17
REMARK    8  A    between atoms: C_17  and  C_18
REMARK    9  A    between atoms: C_18  and  O_20
REMARK   10  A    between atoms: C_23  and  N_24
REMARK                            x       y       z     vdW  Elec       q    Type
REMARK                         _______ _______ _______ _____ _____    ______ ____
ROOT
ATOM      1  C   UNL     1       4.136   4.866  17.806  0.00  0.00    +0.000 A 
ATOM      2  C   UNL     1       4.881   5.074  16.623  0.00  0.00    +0.000 A 
ATOM      3  C   UNL     1       5.225   4.023  15.767  0.00  0.00    +0.000 A 
ATOM      4  C   UNL     1       4.811   2.736  16.090  0.00  0.00    +0.000 A 
ATOM      5  C   UNL     1       4.051   2.515  17.241  0.00  0.00    +0.000 A 
ATOM      6  C   UNL     1       3.671   3.555  18.118  0.00  0.00    +0.000 A 
ENDROOT
BRANCH   6   7
ATOM      7  N   UNL     1       2.822   3.259  19.176  0.00  0.00    +0.000 N 
ATOM      8  C   UNL     1       1.376   3.078  18.966  0.00  0.00    +0.000 C 
ATOM      9  C   UNL     1       0.624   3.525  20.230  0.00  0.00    +0.000 C 
ATOM     10  O   UNL     1       1.071   2.798  21.388  0.00  0.00    +0.000 OA
ATOM     11  C   UNL     1       2.478   3.037  21.599  0.00  0.00    +0.000 C 
ATOM     12  C   UNL     1       3.317   2.582  20.388  0.00  0.00    +0.000 C 
ENDBRANCH   6   7
BRANCH   1  14
ATOM     13  N   UNL     1       2.520   6.662  18.351  0.00  0.00    +0.000 N 
ATOM     14  C   UNL     1       3.765   6.078  18.615  0.00  0.00    +0.000 C 
ATOM     15  O   UNL     1       4.546   6.500  19.465  0.00  0.00    +0.000 OA
ATOM     16  H   UNL     1       1.904   6.190  17.702  0.00  0.00    +0.000 HD
BRANCH  13  21
ATOM     17  C   UNL     1      -0.114  11.465  19.982  0.00  0.00    +0.000 C 
ATOM     18  C   UNL     1       0.755  10.299  19.613  0.00  0.00    +0.000 A 
ATOM     19  C   UNL     1       1.338  10.219  18.348  0.00  0.00    +0.000 A 
ATOM     20  C   UNL     1       1.997   9.052  17.939  0.00  0.00    +0.000 A 
ATOM     21  C   UNL     1       2.075   7.942  18.779  0.00  0.00    +0.000 A 
ATOM     22  C   UNL     1       1.599   8.069  20.090  0.00  0.00    +0.000 A 
ATOM     23  C   UNL     1       0.948   9.241  20.506  0.00  0.00    +0.000 A 
ENDBRANCH  13  21
ENDBRANCH   1  14
BRANCH   3  24
ATOM     24  N   UNL     1       5.948   4.196  14.567  0.00  0.00    +0.000 N 
ATOM     25  C   UNL     1       7.088   4.959  14.407  0.00  0.00    +0.000 C 
ATOM     26  O   UNL     1       7.702   5.540  15.299  0.00  0.00    +0.000 OA
ATOM     27  H   UNL     1       5.651   3.630  13.777  0.00  0.00    +0.000 HD
BRANCH  25  28
ATOM     28  C   UNL     1       7.611   4.989  12.985  0.00  0.00    +0.000 C 
BRANCH  28  29
ATOM     29  C   UNL     1       6.636   4.292  12.033  0.00  0.00    +0.000 C 
BRANCH  29  30
ATOM     30  C   UNL     1       7.042   2.869  11.662  0.00  0.00    +0.000 C 
BRANCH  30  31
ATOM     31  C   UNL     1       5.832   1.993  11.467  0.00  0.00    +0.000 C 
ATOM     32  O   UNL     1       4.706   2.436  11.295  0.00  0.00    +0.000 OA
BRANCH  31  33
ATOM     33  O   UNL     1       6.119   0.676  11.417  0.00  0.00    +0.000 OA
ATOM     34  H   UNL     1       5.833   0.231  10.596  0.00  0.00    +0.000 HD
ENDBRANCH  31  33
ENDBRANCH  30  31
ENDBRANCH  29  30
ENDBRANCH  28  29
ENDBRANCH  25  28
ENDBRANCH   3  24
TORSDOF 9
ENDMDL
MODEL 4
REMARK VINA RESULT:      -7.2      0.954      1.392
REMARK  Name = 
REMARK  10 active torsions:
REMARK  status: ('A' for Active; 'I' for Inactive)
REMARK    1  A    between atoms: C_1  and  C_2
REMARK    2  A    between atoms: C_5  and  N_6
REMARK    3  A    between atoms: C_7  and  C_9
REMARK    4  A    between atoms: C_11  and  N_12
REMARK    5  A    between atoms: C_13  and  C_15
REMARK    6  A    between atoms: C_15  and  C_16
REMARK    7  A    between atoms: C_16  and  C_17
REMARK    8  A    between atoms: C_17  and  C_18
REMARK    9  A    between atoms: C_18  and  O_20
REMARK   10  A    between atoms: C_23  and  N_24
REMARK                            x       y       z     vdW  Elec       q    Type
REMARK                         _______ _______ _______ _____ _____    ______ ____
ROOT
ATOM      1  C   UNL     1       0.851   9.435  20.802  0.00  0.00    +0.000 A 
ATOM      2  C   UNL     1       1.342   8.126  21.008  0.00  0.00    +0.000 A 
ATOM      3  C   UNL     1       1.955   7.393  19.987  0.00  0.00    +0.000 A 
ATOM      4  C   UNL     1       2.090   7.978  18.733  0.00  0.00    +0.000 A 
ATOM      5  C   UNL     1       1.634   9.281  18.518  0.00  0.00    +0.000 A 
ATOM      6  C   UNL     1       1.028  10.056  19.532  0.00  0.00    +0.000 A 
ENDROOT
BRANCH   6   7
ATOM      7  N   UNL     1       0.707  11.380  19.258  0.00  0.00    +0.000 N 
ATOM      8  C   UNL     1      -0.674  11.781  18.948  0.00  0.00    +0.000 C 
ATOM      9  C   UNL     1      -0.647  12.982  17.989  0.00  0.00    +0.000 C 
ATOM     10  O   UNL     1       0.095  14.080  18.549  0.00  0.00    +0.000 OA
ATOM     11  C   UNL     1       1.458  13.673  18.792  0.00  0.00    +0.000 C 
ATOM     12  C   UNL     1       1.528  12.489  19.777  0.00  0.00    +0.000 C 
ENDBRANCH   6   7
BRANCH   1  14
ATOM     13  N   UNL     1      -0.836  10.977  21.757  0.00  0.00    +0.000 N 
ATOM     14  C   UNL     1       0.273  10.155  21.989  0.00  0.00    +0.000 C 
ATOM     15  O   UNL     1       0.780   9.995  23.099  0.00  0.00    +0.000 OA
ATOM     16  H   UNL     1      -1.242  10.972  20.831  0.00  0.00    +0.000 HD
BRANCH  13  21
ATOM     17  C   UNL     1      -3.559  15.097  24.634  0.00  0.00    +0.000 C 
ATOM     18  C   UNL     1      -2.753  13.969  24.061  0.00  0.00    +0.000 A 
ATOM     19  C   UNL     1      -1.460  14.189  23.585  0.00  0.00    +0.000 A 
ATOM     20  C   UNL     1      -0.776  13.185  22.889  0.00  0.00    +0.000 A 
ATOM     21  C   UNL     1      -1.373  11.948  22.644  0.00  0.00    +0.000 A 
ATOM     22  C   UNL     1      -2.620  11.688  23.229  0.00  0.00    +0.000 A 
ATOM     23  C   UNL     1      -3.302  12.689  23.938  0.00  0.00    +0.000 A 
ENDBRANCH  13  21
ENDBRANCH   1  14
BRANCH   3  24
ATOM     24  N   UNL     1       2.477   6.093  20.161  0.00  0.00    +0.000 N 
ATOM     25  C   UNL     1       1.750   4.958  20.463  0.00  0.00    +0.000 C 
ATOM     26  O   UNL     1       0.525   4.882  20.543  0.00  0.00    +0.000 OA
ATOM     27  H   UNL     1       3.464   5.972  19.953  0.00  0.00    +0.000 HD
BRANCH  25  28
ATOM     28  C   UNL     1       2.598   3.715  20.636  0.00  0.00    +0.000 C 
BRANCH  28  29
ATOM     29  C   UNL     1       1.799   2.458  20.278  0.00  0.00    +0.000 C 
BRANCH  29  30
ATOM     30  C   UNL     1       1.479   2.330  18.791  0.00  0.00    +0.000 C 
BRANCH  30  31
ATOM     31  C   UNL     1       2.738   2.338  17.964  0.00  0.00    +0.000 C 
ATOM     32  O   UNL     1       3.591   1.464  18.033  0.00  0.00    +0.000 OA
BRANCH  31  33
ATOM     33  O   UNL     1       2.798   3.354  17.079  0.00  0.00    +0.000 OA
ATOM     34  H   UNL     1       2.492   3.126  16.180  0.00  0.00    +0.000 HD
ENDBRANCH  31  33
ENDBRANCH  30  31
ENDBRANCH  29  30
ENDBRANCH  28  29
ENDBRANCH  25  28
ENDBRANCH   3  24
TORSDOF 9
ENDMDL
MODEL 5
REMARK VINA RESULT:      -7.1      1.095      1.871
REMARK  Name = 
REMARK  10 active torsions:
REMARK  status: ('A' for Active; 'I' for Inactive)
REMARK    1  A    between atoms: C_1  and  C_2
REMARK    2  A    between atoms: C_5  and  N_6
REMARK    3  A    between atoms: C_7  and  C_9
REMARK    4  A    between atoms: C_11  and  N_12
REMARK    5  A    between atoms: C_13  and  C_15
REMARK    6  A    between atoms: C_15  and  C_16
REMARK    7  A    between atoms: C_16  and  C_17
REMARK    8  A    between atoms: C_17  and  C_18
REMARK    9  A    between atoms: C_18  and  O_20
REMARK   10  A    between atoms: C_23  and  N_24
REMARK                            x       y       z     vdW  Elec       q    Type
REMARK                         _______ _______ _______ _____ _____    ______ ____
ROOT
ATOM      1  C   UNL     1       1.033   9.282  20.495  0.00  0.00    +0.000 A 
ATOM      2  C   UNL     1       1.647   8.031  20.733  0.00  0.00    +0.000 A 
ATOM      3  C   UNL     1       2.228   7.282  19.704  0.00  0.00    +0.000 A 
ATOM      4  C   UNL     1       2.205   7.791  18.411  0.00  0.00    +0.000 A 
ATOM      5  C   UNL     1       1.625   9.038  18.162  0.00  0.00    +0.000 A 
ATOM      6  C   UNL     1       1.047   9.829  19.179  0.00  0.00    +0.000 A 
ENDROOT
BRANCH   6   7
ATOM      7  N   UNL     1       0.595  11.103  18.858  0.00  0.00    +0.000 N 
ATOM      8  C   UNL     1       1.535  12.222  18.682  0.00  0.00    +0.000 C 
ATOM      9  C   UNL     1       0.843  13.530  19.099  0.00  0.00    +0.000 C 
ATOM     10  O   UNL     1      -0.363  13.746  18.345  0.00  0.00    +0.000 OA
ATOM     11  C   UNL     1      -1.284  12.661  18.580  0.00  0.00    +0.000 C 
ATOM     12  C   UNL     1      -0.683  11.306  18.154  0.00  0.00    +0.000 C 
ENDBRANCH   6   7
BRANCH   1  14
ATOM     13  N   UNL     1      -0.614  10.851  21.475  0.00  0.00    +0.000 N 
ATOM     14  C   UNL     1       0.502  10.032  21.685  0.00  0.00    +0.000 C 
ATOM     15  O   UNL     1       1.050   9.898  22.778  0.00  0.00    +0.000 OA
ATOM     16  H   UNL     1      -1.055  10.824  20.566  0.00  0.00    +0.000 HD
BRANCH  13  21
ATOM     17  C   UNL     1      -3.272  14.990  24.387  0.00  0.00    +0.000 C 
ATOM     18  C   UNL     1      -2.462  13.873  23.797  0.00  0.00    +0.000 A 
ATOM     19  C   UNL     1      -1.239  14.132  23.177  0.00  0.00    +0.000 A 
ATOM     20  C   UNL     1      -0.570  13.124  22.470  0.00  0.00    +0.000 A 
ATOM     21  C   UNL     1      -1.116  11.845  22.358  0.00  0.00    +0.000 A 
ATOM     22  C   UNL     1      -2.278  11.556  23.084  0.00  0.00    +0.000 A 
ATOM     23  C   UNL     1      -2.944  12.560  23.803  0.00  0.00    +0.000 A 
ENDBRANCH  13  21
ENDBRANCH   1  14
BRANCH   3  24
ATOM     24  N   UNL     1       2.869   6.040  19.907  0.00  0.00    +0.000 N 
ATOM     25  C   UNL     1       3.442   5.251  18.930  0.00  0.00    +0.000 C 
ATOM     26  O   UNL     1       3.561   5.541  17.741  0.00  0.00    +0.000 OA
ATOM     27  H   UNL     1       2.999   5.754  20.873  0.00  0.00    +0.000 HD
BRANCH  25  28
ATOM     28  C   UNL     1       4.012   3.947  19.450  0.00  0.00    +0.000 C 
BRANCH  28  29
ATOM     29  C   UNL     1       3.278   2.750  18.840  0.00  0.00    +0.000 C 
BRANCH  29  30
ATOM     30  C   UNL     1       1.757   2.874  18.872  0.00  0.00    +0.000 C 
BRANCH  30  31
ATOM     31  C   UNL     1       1.254   3.010  20.286  0.00  0.00    +0.000 C 
ATOM     32  O   UNL     1       1.588   2.258  21.190  0.00  0.00    +0.000 OA
BRANCH  31  33
ATOM     33  O   UNL     1       0.468   4.088  20.479  0.00  0.00    +0.000 OA
ATOM     34  H   UNL     1       0.931   4.945  20.405  0.00  0.00    +0.000 HD
ENDBRANCH  31  33
ENDBRANCH  30  31
ENDBRANCH  29  30
ENDBRANCH  28  29
ENDBRANCH  25  28
ENDBRANCH   3  24
TORSDOF 9
ENDMDL
MODEL 6
REMARK VINA RESULT:      -7.1      1.019      1.020
REMARK  Name = 
REMARK  10 active torsions:
REMARK  status: ('A' for Active; 'I' for Inactive)
REMARK    1  A    between atoms: C_1  and  C_2
REMARK    2  A    between atoms: C_5  and  N_6
REMARK    3  A    between atoms: C_7  and  C_9
REMARK    4  A    between atoms: C_11  and  N_12
REMARK    5  A    between atoms: C_13  and  C_15
REMARK    6  A    between atoms: C_15  and  C_16
REMARK    7  A    between atoms: C_16  and  C_17
REMARK    8  A    between atoms: C_17  and  C_18
REMARK    9  A    between atoms: C_18  and  O_20
REMARK   10  A    between atoms: C_23  and  N_24
REMARK                            x       y       z     vdW  Elec       q    Type
REMARK                         _______ _______ _______ _____ _____    ______ ____
ROOT
ATOM      1  C   UNL     1       0.444   9.756  21.340  0.00  0.00    +0.000 A 
ATOM      2  C   UNL     1       0.826   8.413  21.561  0.00  0.00    +0.000 A 
ATOM      3  C   UNL     1       1.523   7.671  20.601  0.00  0.00    +0.000 A 
ATOM      4  C   UNL     1       1.855   8.282  19.397  0.00  0.00    +0.000 A 
ATOM      5  C   UNL     1       1.509   9.616  19.171  0.00  0.00    +0.000 A 
ATOM      6  C   UNL     1       0.821  10.399  20.126  0.00  0.00    +0.000 A 
ENDROOT
BRANCH   6   7
ATOM      7  N   UNL     1       0.618  11.748  19.860  0.00  0.00    +0.000 N 
ATOM      8  C   UNL     1       1.663  12.745  20.141  0.00  0.00    +0.000 C 
ATOM      9  C   UNL     1       0.997  14.084  20.500  0.00  0.00    +0.000 C 
ATOM     10  O   UNL     1       0.126  14.532  19.447  0.00  0.00    +0.000 OA
ATOM     11  C   UNL     1      -0.918  13.560  19.231  0.00  0.00    +0.000 C 
ATOM     12  C   UNL     1      -0.339  12.188  18.829  0.00  0.00    +0.000 C 
ENDBRANCH   6   7
BRANCH   1  14
ATOM     13  N   UNL     1      -1.193  11.443  22.120  0.00  0.00    +0.000 N 
ATOM     14  C   UNL     1      -0.240  10.477  22.467  0.00  0.00    +0.000 C 
ATOM     15  O   UNL     1       0.049  10.196  23.629  0.00  0.00    +0.000 OA
ATOM     16  H   UNL     1      -1.435  11.538  21.143  0.00  0.00    +0.000 HD
BRANCH  13  21
ATOM     17  C   UNL     1      -3.933  15.665  24.828  0.00  0.00    +0.000 C 
ATOM     18  C   UNL     1      -3.147  14.498  24.307  0.00  0.00    +0.000 A 
ATOM     19  C   UNL     1      -1.797  14.638  23.984  0.00  0.00    +0.000 A 
ATOM     20  C   UNL     1      -1.109  13.607  23.331  0.00  0.00    +0.000 A 
ATOM     21  C   UNL     1      -1.759  12.424  22.977  0.00  0.00    +0.000 A 
ATOM     22  C   UNL     1      -3.078  12.239  23.412  0.00  0.00    +0.000 A 
ATOM     23  C   UNL     1      -3.765  13.266  24.077  0.00  0.00    +0.000 A 
ENDBRANCH  13  21
ENDBRANCH   1  14
BRANCH   3  24
ATOM     24  N   UNL     1       1.940   6.337  20.795  0.00  0.00    +0.000 N 
ATOM     25  C   UNL     1       2.104   5.384  19.810  0.00  0.00    +0.000 C 
ATOM     26  O   UNL     1       1.996   5.568  18.599  0.00  0.00    +0.000 OA
ATOM     27  H   UNL     1       2.235   6.090  21.736  0.00  0.00    +0.000 HD
BRANCH  25  28
ATOM     28  C   UNL     1       2.516   4.024  20.334  0.00  0.00    +0.000 C 
BRANCH  28  29
ATOM     29  C   UNL     1       1.538   2.942  19.868  0.00  0.00    +0.000 C 
BRANCH  29  30
ATOM     30  C   UNL     1       2.202   1.778  19.139  0.00  0.00    +0.000 C 
BRANCH  30  31
ATOM     31  C   UNL     1       2.843   2.237  17.855  0.00  0.00    +0.000 C 
ATOM     32  O   UNL     1       2.239   2.852  16.988  0.00  0.00    +0.000 OA
BRANCH  31  33
ATOM     33  O   UNL     1       4.165   1.981  17.788  0.00  0.00    +0.000 OA
ATOM     34  H   UNL     1       4.520   1.920  16.880  0.00  0.00    +0.000 HD
ENDBRANCH  31  33
ENDBRANCH  30  31
ENDBRANCH  29  30
ENDBRANCH  28  29
ENDBRANCH  25  28
ENDBRANCH   3  24
TORSDOF 9
ENDMDL
MODEL 7
REMARK VINA RESULT:      -7.1      3.954      7.602
REMARK  Name = 
REMARK  10 active torsions:
REMARK  status: ('A' for Active; 'I' for Inactive)
REMARK    1  A    between atoms: C_1  and  C_2
REMARK    2  A    between atoms: C_5  and  N_6
REMARK    3  A    between atoms: C_7  and  C_9
REMARK    4  A    between atoms: C_11  and  N_12
REMARK    5  A    between atoms: C_13  and  C_15
REMARK    6  A    between atoms: C_15  and  C_16
REMARK    7  A    between atoms: C_16  and  C_17
REMARK    8  A    between atoms: C_17  and  C_18
REMARK    9  A    between atoms: C_18  and  O_20
REMARK   10  A    between atoms: C_23  and  N_24
REMARK                            x       y       z     vdW  Elec       q    Type
REMARK                         _______ _______ _______ _____ _____    ______ ____
ROOT
ATOM      1  C   UNL     1       3.604   5.898  17.803  0.00  0.00    +0.000 A 
ATOM      2  C   UNL     1       4.402   6.192  16.674  0.00  0.00    +0.000 A 
ATOM      3  C   UNL     1       5.128   5.205  16.000  0.00  0.00    +0.000 A 
ATOM      4  C   UNL     1       5.053   3.893  16.454  0.00  0.00    +0.000 A 
ATOM      5  C   UNL     1       4.248   3.579  17.553  0.00  0.00    +0.000 A 
ATOM      6  C   UNL     1       3.488   4.548  18.245  0.00  0.00    +0.000 A 
ENDROOT
BRANCH   6   7
ATOM      7  N   UNL     1       2.631   4.127  19.254  0.00  0.00    +0.000 N 
ATOM      8  C   UNL     1       2.976   4.310  20.672  0.00  0.00    +0.000 C 
ATOM      9  C   UNL     1       2.351   3.171  21.494  0.00  0.00    +0.000 C 
ATOM     10  O   UNL     1       0.925   3.118  21.313  0.00  0.00    +0.000 OA
ATOM     11  C   UNL     1       0.619   2.884  19.923  0.00  0.00    +0.000 C 
ATOM     12  C   UNL     1       1.180   4.005  19.024  0.00  0.00    +0.000 C 
ENDBRANCH   6   7
BRANCH   1  14
ATOM     13  N   UNL     1       2.114   7.857  17.521  0.00  0.00    +0.000 N 
ATOM     14  C   UNL     1       2.812   7.025  18.406  0.00  0.00    +0.000 C 
ATOM     15  O   UNL     1       2.799   7.170  19.627  0.00  0.00    +0.000 OA
ATOM     16  H   UNL     1       2.105   7.604  16.543  0.00  0.00    +0.000 HD
BRANCH  13  21
ATOM     17  C   UNL     1       0.121  12.808  19.568  0.00  0.00    +0.000 C 
ATOM     18  C   UNL     1       0.584  11.578  18.842  0.00  0.00    +0.000 A 
ATOM     19  C   UNL     1      -0.291  10.514  18.618  0.00  0.00    +0.000 A 
ATOM     20  C   UNL     1       0.181   9.299  18.106  0.00  0.00    +0.000 A 
ATOM     21  C   UNL     1       1.535   9.119  17.821  0.00  0.00    +0.000 A 
ATOM     22  C   UNL     1       2.386  10.227  17.929  0.00  0.00    +0.000 A 
ATOM     23  C   UNL     1       1.913  11.449  18.431  0.00  0.00    +0.000 A 
ENDBRANCH  13  21
ENDBRANCH   1  14
BRANCH   3  24
ATOM     24  N   UNL     1       5.917   5.457  14.858  0.00  0.00    +0.000 N 
ATOM     25  C   UNL     1       7.243   5.107  14.690  0.00  0.00    +0.000 C 
ATOM     26  O   UNL     1       7.921   4.445  15.473  0.00  0.00    +0.000 OA
ATOM     27  H   UNL     1       5.434   5.849  14.054  0.00  0.00    +0.000 HD
BRANCH  25  28
ATOM     28  C   UNL     1       7.834   5.558  13.370  0.00  0.00    +0.000 C 
BRANCH  28  29
ATOM     29  C   UNL     1       7.028   4.998  12.195  0.00  0.00    +0.000 C 
BRANCH  29  30
ATOM     30  C   UNL     1       7.153   3.487  12.020  0.00  0.00    +0.000 C 
BRANCH  30  31
ATOM     31  C   UNL     1       5.797   2.841  11.905  0.00  0.00    +0.000 C 
ATOM     32  O   UNL     1       4.749   3.467  11.980  0.00  0.00    +0.000 OA
BRANCH  31  33
ATOM     33  O   UNL     1       5.847   1.523  11.627  0.00  0.00    +0.000 OA
ATOM     34  H   UNL     1       6.744   1.182  11.440  0.00  0.00    +0.000 HD
ENDBRANCH  31  33
ENDBRANCH  30  31
ENDBRANCH  29  30
ENDBRANCH  28  29
ENDBRANCH  25  28
ENDBRANCH   3  24
TORSDOF 9
ENDMDL
MODEL 8
REMARK VINA RESULT:      -7.1      3.942      7.929
REMARK  Name = 
REMARK  10 active torsions:
REMARK  status: ('A' for Active; 'I' for Inactive)
REMARK    1  A    between atoms: C_1  and  C_2
REMARK    2  A    between atoms: C_5  and  N_6
REMARK    3  A    between atoms: C_7  and  C_9
REMARK    4  A    between atoms: C_11  and  N_12
REMARK    5  A    between atoms: C_13  and  C_15
REMARK    6  A    between atoms: C_15  and  C_16
REMARK    7  A    between atoms: C_16  and  C_17
REMARK    8  A    between atoms: C_17  and  C_18
REMARK    9  A    between atoms: C_18  and  O_20
REMARK   10  A    between atoms: C_23  and  N_24
REMARK                            x       y       z     vdW  Elec       q    Type
REMARK                         _______ _______ _______ _____ _____    ______ ____
ROOT
ATOM      1  C   UNL     1       3.781   5.135  17.970  0.00  0.00    +0.000 A 
ATOM      2  C   UNL     1       4.499   5.445  16.792  0.00  0.00    +0.000 A 
ATOM      3  C   UNL     1       5.022   4.452  15.957  0.00  0.00    +0.000 A 
ATOM      4  C   UNL     1       4.818   3.119  16.296  0.00  0.00    +0.000 A 
ATOM      5  C   UNL     1       4.089   2.794  17.442  0.00  0.00    +0.000 A 
ATOM      6  C   UNL     1       3.532   3.770  18.297  0.00  0.00    +0.000 A 
ENDROOT
BRANCH   6   7
ATOM      7  N   UNL     1       2.727   3.354  19.350  0.00  0.00    +0.000 N 
ATOM      8  C   UNL     1       1.316   2.996  19.136  0.00  0.00    +0.000 C 
ATOM      9  C   UNL     1       0.514   3.326  20.405  0.00  0.00    +0.000 C 
ATOM     10  O   UNL     1       1.050   2.645  21.553  0.00  0.00    +0.000 OA
ATOM     11  C   UNL     1       2.416   3.057  21.769  0.00  0.00    +0.000 C 
ATOM     12  C   UNL     1       3.305   2.729  20.553  0.00  0.00    +0.000 C 
ENDBRANCH   6   7
BRANCH   1  14
ATOM     13  N   UNL     1       2.268   7.091  18.102  0.00  0.00    +0.000 N 
ATOM     14  C   UNL     1       3.206   6.281  18.754  0.00  0.00    +0.000 C 
ATOM     15  O   UNL     1       3.565   6.460  19.916  0.00  0.00    +0.000 OA
ATOM     16  H   UNL     1       1.962   6.812  17.180  0.00  0.00    +0.000 HD
BRANCH  13  21
ATOM     17  C   UNL     1       1.260  12.363  20.067  0.00  0.00    +0.000 C 
ATOM     18  C   UNL     1       1.329  10.985  19.478  0.00  0.00    +0.000 A 
ATOM     19  C   UNL     1       0.915   9.875  20.215  0.00  0.00    +0.000 A 
ATOM     20  C   UNL     1       1.145   8.577  19.741  0.00  0.00    +0.000 A 
ATOM     21  C   UNL     1       1.802   8.363  18.529  0.00  0.00    +0.000 A 
ATOM     22  C   UNL     1       2.103   9.477  17.735  0.00  0.00    +0.000 A 
ATOM     23  C   UNL     1       1.864  10.778  18.203  0.00  0.00    +0.000 A 
ENDBRANCH  13  21
ENDBRANCH   1  14
BRANCH   3  24
ATOM     24  N   UNL     1       5.724   4.724  14.763  0.00  0.00    +0.000 N 
ATOM     25  C   UNL     1       7.089   4.894  14.643  0.00  0.00    +0.000 C 
ATOM     26  O   UNL     1       7.919   4.750  15.539  0.00  0.00    +0.000 OA
ATOM     27  H   UNL     1       5.180   4.699  13.905  0.00  0.00    +0.000 HD
BRANCH  25  28
ATOM     28  C   UNL     1       7.544   5.223  13.236  0.00  0.00    +0.000 C 
BRANCH  28  29
ATOM     29  C   UNL     1       6.624   4.572  12.200  0.00  0.00    +0.000 C 
BRANCH  29  30
ATOM     30  C   UNL     1       6.969   3.117  11.892  0.00  0.00    +0.000 C 
BRANCH  30  31
ATOM     31  C   UNL     1       5.732   2.326  11.556  0.00  0.00    +0.000 C 
ATOM     32  O   UNL     1       5.749   1.128  11.313  0.00  0.00    +0.000 OA
BRANCH  31  33
ATOM     33  O   UNL     1       4.593   3.044  11.631  0.00  0.00    +0.000 OA
ATOM     34  H   UNL     1       4.029   2.830  12.399  0.00  0.00    +0.000 HD
ENDBRANCH  31  33
ENDBRANCH  30  31
ENDBRANCH  29  30
ENDBRANCH  28  29
ENDBRANCH  25  28
ENDBRANCH   3  24
TORSDOF 9
ENDMDL
MODEL 9
REMARK VINA RESULT:      -7.1      1.377      1.738
REMARK  Name = 
REMARK  10 active torsions:
REMARK  status: ('A' for Active; 'I' for Inactive)
REMARK    1  A    between atoms: C_1  and  C_2
REMARK    2  A    between atoms: C_5  and  N_6
REMARK    3  A    between atoms: C_7  and  C_9
REMARK    4  A    between atoms: C_11  and  N_12
REMARK    5  A    between atoms: C_13  and  C_15
REMARK    6  A    between atoms: C_15  and  C_16
REMARK    7  A    between atoms: C_16  and  C_17
REMARK    8  A    between atoms: C_17  and  C_18
REMARK    9  A    between atoms: C_18  and  O_20
REMARK   10  A    between atoms: C_23  and  N_24
REMARK                            x       y       z     vdW  Elec       q    Type
REMARK                         _______ _______ _______ _____ _____    ______ ____
ROOT
ATOM      1  C   UNL     1       1.064   9.419  20.339  0.00  0.00    +0.000 A 
ATOM      2  C   UNL     1       1.714   8.176  20.510  0.00  0.00    +0.000 A 
ATOM      3  C   UNL     1       2.295   7.487  19.440  0.00  0.00    +0.000 A 
ATOM      4  C   UNL     1       2.234   8.052  18.171  0.00  0.00    +0.000 A 
ATOM      5  C   UNL     1       1.619   9.293  17.987  0.00  0.00    +0.000 A 
ATOM      6  C   UNL     1       1.039  10.023  19.048  0.00  0.00    +0.000 A 
ENDROOT
BRANCH   6   7
ATOM      7  N   UNL     1       0.550  11.298  18.791  0.00  0.00    +0.000 N 
ATOM      8  C   UNL     1       1.457  12.448  18.652  0.00  0.00    +0.000 C 
ATOM      9  C   UNL     1       0.738  13.717  19.138  0.00  0.00    +0.000 C 
ATOM     10  O   UNL     1      -0.485  13.935  18.412  0.00  0.00    +0.000 OA
ATOM     11  C   UNL     1      -1.374  12.815  18.611  0.00  0.00    +0.000 C 
ATOM     12  C   UNL     1      -0.744  11.498  18.115  0.00  0.00    +0.000 C 
ENDBRANCH   6   7
BRANCH   1  14
ATOM     13  N   UNL     1      -0.621  10.876  21.422  0.00  0.00    +0.000 N 
ATOM     14  C   UNL     1       0.537  10.102  21.570  0.00  0.00    +0.000 C 
ATOM     15  O   UNL     1       1.123   9.956  22.641  0.00  0.00    +0.000 OA
ATOM     16  H   UNL     1      -1.088  10.861  20.526  0.00  0.00    +0.000 HD
BRANCH  13  21
ATOM     17  C   UNL     1      -3.364  14.795  24.551  0.00  0.00    +0.000 C 
ATOM     18  C   UNL     1      -2.527  13.733  23.900  0.00  0.00    +0.000 A 
ATOM     19  C   UNL     1      -1.328  14.061  23.267  0.00  0.00    +0.000 A 
ATOM     20  C   UNL     1      -0.638  13.108  22.507  0.00  0.00    +0.000 A 
ATOM     21  C   UNL     1      -1.139  11.815  22.354  0.00  0.00    +0.000 A 
ATOM     22  C   UNL     1      -2.275  11.454  23.091  0.00  0.00    +0.000 A 
ATOM     23  C   UNL     1      -2.961  12.404  23.862  0.00  0.00    +0.000 A 
ENDBRANCH  13  21
ENDBRANCH   1  14
BRANCH   3  24
ATOM     24  N   UNL     1       2.970   6.255  19.577  0.00  0.00    +0.000 N 
ATOM     25  C   UNL     1       2.712   5.102  18.863  0.00  0.00    +0.000 C 
ATOM     26  O   UNL     1       1.913   4.987  17.936  0.00  0.00    +0.000 OA
ATOM     27  H   UNL     1       3.780   6.252  20.191  0.00  0.00    +0.000 HD
BRANCH  25  28
ATOM     28  C   UNL     1       3.574   3.924  19.268  0.00  0.00    +0.000 C 
BRANCH  28  29
ATOM     29  C   UNL     1       5.060   4.259  19.113  0.00  0.00    +0.000 C 
BRANCH  29  30
ATOM     30  C   UNL     1       5.386   5.064  17.858  0.00  0.00    +0.000 C 
BRANCH  30  31
ATOM     31  C   UNL     1       6.422   4.362  17.018  0.00  0.00    +0.000 C 
ATOM     32  O   UNL     1       7.608   4.661  17.030  0.00  0.00    +0.000 OA
BRANCH  31  33
ATOM     33  O   UNL     1       5.934   3.319  16.316  0.00  0.00    +0.000 OA
ATOM     34  H   UNL     1       6.499   3.034  15.572  0.00  0.00    +0.000 HD
ENDBRANCH  31  33
ENDBRANCH  30  31
ENDBRANCH  29  30
ENDBRANCH  28  29
ENDBRANCH  25  28
ENDBRANCH   3  24
TORSDOF 9
ENDMDL
