MODEL 1
REMARK VINA RESULT:      -6.5      0.000      0.000
REMARK  Name = 
REMARK  11 active torsions:
REMARK  status: ('A' for Active; 'I' for Inactive)
REMARK    1  A    between atoms: C_1  and  C_2
REMARK    2  A    between atoms: N_4  and  C_5
REMARK    3  A    between atoms: C_6  and  S_7
REMARK    4  A    between atoms: S_7  and  C_8
REMARK    5  A    between atoms: C_8  and  N_10
REMARK    6  A    between atoms: N_10  and  C_11
REMARK    7  A    between atoms: N_10  and  C_12
REMARK    8  A    between atoms: C_14  and  C_15
REMARK    9  A    between atoms: C_15  and  O_16
REMARK   10  A    between atoms: C_17  and  O_18
REMARK   11  A    between atoms: C_19  and  O_20
REMARK                            x       y       z     vdW  Elec       q    Type
REMARK                         _______ _______ _______ _____ _____    ______ ____
ROOT
ATOM      1  C   UNL     1       4.203   5.027  17.791  0.00  0.00    +0.000 C 
ATOM      2  C   UNL     1       4.527   4.734  19.283  0.00  0.00    +0.000 C 
ATOM      3  O   UNL     1       5.778   5.355  19.633  0.00  0.00    +0.000 OA
ATOM      4  C   UNL     1       6.918   4.951  18.856  0.00  0.00    +0.000 C 
ATOM      5  C   UNL     1       6.707   5.091  17.343  0.00  0.00    +0.000 C 
ATOM      6  C   UNL     1       5.351   4.524  16.899  0.00  0.00    +0.000 C 
ENDROOT
BRANCH   1  10
ATOM      7  C   UNL     1       2.740   8.553  17.736  0.00  0.00    +0.000 C 
ATOM      8  C   UNL     1       2.851   7.092  18.093  0.00  0.00    +0.000 C 
ATOM      9  O   UNL     1       2.014   6.511  18.769  0.00  0.00    +0.000 OA
ATOM     10  N   UNL     1       3.948   6.466  17.536  0.00  0.00    +0.000 N 
ATOM     11  H   UNL     1       4.725   7.061  17.273  0.00  0.00    +0.000 HD
ENDBRANCH   1  10
BRANCH   5  12
ATOM     12  O   UNL     1       7.784   4.446  16.651  0.00  0.00    +0.000 OA
ATOM     13  H   UNL     1       7.569   3.501  16.548  0.00  0.00    +0.000 HD
ENDBRANCH   5  12
BRANCH   6  14
ATOM     14  O   UNL     1       5.115   4.848  15.521  0.00  0.00    +0.000 OA
ATOM     15  H   UNL     1       4.158   4.767  15.359  0.00  0.00    +0.000 HD
ENDBRANCH   6  14
BRANCH   2  16
ATOM     16  S   UNL     1       4.471   2.935  19.623  0.00  0.00    +0.000 S 
BRANCH  16  17
ATOM     17  C   UNL     1       2.764   2.640  19.970  0.00  0.00    +0.000 C 
ATOM     18  S   UNL     1       2.188   2.893  21.533  0.00  0.00    +0.000 S 
BRANCH  17  19
ATOM     19  N   UNL     1       1.961   2.308  18.858  0.00  0.00    +0.000 N 
ATOM     20  C   UNL     1       2.466   2.031  17.510  0.00  0.00    +0.000 C 
ATOM     21  C   UNL     1       0.497   2.393  18.899  0.00  0.00    +0.000 C 
ENDBRANCH  17  19
ENDBRANCH  16  17
ENDBRANCH   2  16
BRANCH   4  22
ATOM     22  C   UNL     1       8.092   5.835  19.309  0.00  0.00    +0.000 C 
BRANCH  22  23
ATOM     23  O   UNL     1       8.766   5.219  20.406  0.00  0.00    +0.000 OA
ATOM     24  H   UNL     1       9.630   5.667  20.476  0.00  0.00    +0.000 HD
ENDBRANCH  22  23
ENDBRANCH   4  22
TORSDOF 8
ENDMDL
MODEL 2
REMARK VINA RESULT:      -6.2      1.308      1.555
REMARK  Name = 
REMARK  11 active torsions:
REMARK  status: ('A' for Active; 'I' for Inactive)
REMARK    1  A    between atoms: C_1  and  C_2
REMARK    2  A    between atoms: N_4  and  C_5
REMARK    3  A    between atoms: C_6  and  S_7
REMARK    4  A    between atoms: S_7  and  C_8
REMARK    5  A    between atoms: C_8  and  N_10
REMARK    6  A    between atoms: N_10  and  C_11
REMARK    7  A    between atoms: N_10  and  C_12
REMARK    8  A    between atoms: C_14  and  C_15
REMARK    9  A    between atoms: C_15  and  O_16
REMARK   10  A    between atoms: C_17  and  O_18
REMARK   11  A    between atoms: C_19  and  O_20
REMARK                            x       y       z     vdW  Elec       q    Type
REMARK                         _______ _______ _______ _____ _____    ______ ____
ROOT
ATOM      1  C   UNL     1       3.989   6.104  17.250  0.00  0.00    +0.000 C 
ATOM      2  C   UNL     1       4.229   5.187  18.482  0.00  0.00    +0.000 C 
ATOM      3  O   UNL     1       5.466   5.554  19.119  0.00  0.00    +0.000 OA
ATOM      4  C   UNL     1       6.642   5.485  18.294  0.00  0.00    +0.000 C 
ATOM      5  C   UNL     1       6.515   6.269  16.983  0.00  0.00    +0.000 C 
ATOM      6  C   UNL     1       5.177   5.996  16.279  0.00  0.00    +0.000 C 
ENDROOT
BRANCH   1  10
ATOM      7  C   UNL     1       2.436   9.457  18.213  0.00  0.00    +0.000 C 
ATOM      8  C   UNL     1       2.486   7.999  17.830  0.00  0.00    +0.000 C 
ATOM      9  O   UNL     1       1.481   7.325  17.662  0.00  0.00    +0.000 OA
ATOM     10  N   UNL     1       3.766   7.521  17.631  0.00  0.00    +0.000 N 
ATOM     11  H   UNL     1       4.516   8.029  18.084  0.00  0.00    +0.000 HD
ENDBRANCH   1  10
BRANCH   5  12
ATOM     12  O   UNL     1       7.619   5.949  16.127  0.00  0.00    +0.000 OA
ATOM     13  H   UNL     1       7.434   5.103  15.680  0.00  0.00    +0.000 HD
ENDBRANCH   5  12
BRANCH   6  14
ATOM     14  O   UNL     1       5.020   6.889  15.167  0.00  0.00    +0.000 OA
ATOM     15  H   UNL     1       5.416   6.461  14.387  0.00  0.00    +0.000 HD
ENDBRANCH   6  14
BRANCH   2  16
ATOM     16  S   UNL     1       4.133   3.420  18.009  0.00  0.00    +0.000 S 
BRANCH  16  17
ATOM     17  C   UNL     1       3.512   2.641  19.468  0.00  0.00    +0.000 C 
ATOM     18  S   UNL     1       4.592   1.888  20.520  0.00  0.00    +0.000 S 
BRANCH  17  19
ATOM     19  N   UNL     1       2.132   2.805  19.710  0.00  0.00    +0.000 N 
ATOM     20  C   UNL     1       1.544   3.176  21.001  0.00  0.00    +0.000 C 
ATOM     21  C   UNL     1       1.116   2.429  18.720  0.00  0.00    +0.000 C 
ENDBRANCH  17  19
ENDBRANCH  16  17
ENDBRANCH   2  16
BRANCH   4  22
ATOM     22  C   UNL     1       7.800   6.047  19.135  0.00  0.00    +0.000 C 
BRANCH  22  23
ATOM     23  O   UNL     1       7.839   5.392  20.403  0.00  0.00    +0.000 OA
ATOM     24  H   UNL     1       8.777   5.176  20.565  0.00  0.00    +0.000 HD
ENDBRANCH  22  23
ENDBRANCH   4  22
TORSDOF 8
ENDMDL
MODEL 3
REMARK VINA RESULT:      -6.2      1.520      1.963
REMARK  Name = 
REMARK  11 active torsions:
REMARK  status: ('A' for Active; 'I' for Inactive)
REMARK    1  A    between atoms: C_1  and  C_2
REMARK    2  A    between atoms: N_4  and  C_5
REMARK    3  A    between atoms: C_6  and  S_7
REMARK    4  A    between atoms: S_7  and  C_8
REMARK    5  A    between atoms: C_8  and  N_10
REMARK    6  A    between atoms: N_10  and  C_11
REMARK    7  A    between atoms: N_10  and  C_12
REMARK    8  A    between atoms: C_14  and  C_15
REMARK    9  A    between atoms: C_15  and  O_16
REMARK   10  A    between atoms: C_17  and  O_18
REMARK   11  A    between atoms: C_19  and  O_20
REMARK                            x       y       z     vdW  Elec       q    Type
REMARK                         _______ _______ _______ _____ _____    ______ ____
ROOT
ATOM      1  C   UNL     1       3.999   6.155  17.233  0.00  0.00    +0.000 C 
ATOM      2  C   UNL     1       4.229   5.259  18.483  0.00  0.00    +0.000 C 
ATOM      3  O   UNL     1       5.472   5.622  19.112  0.00  0.00    +0.000 OA
ATOM      4  C   UNL     1       6.646   5.522  18.287  0.00  0.00    +0.000 C 
ATOM      5  C   UNL     1       6.526   6.282  16.960  0.00  0.00    +0.000 C 
ATOM      6  C   UNL     1       5.184   6.012  16.263  0.00  0.00    +0.000 C 
ENDROOT
BRANCH   1  10
ATOM      7  C   UNL     1       2.494   9.536  18.172  0.00  0.00    +0.000 C 
ATOM      8  C   UNL     1       2.526   8.069  17.825  0.00  0.00    +0.000 C 
ATOM      9  O   UNL     1       1.512   7.394  17.714  0.00  0.00    +0.000 OA
ATOM     10  N   UNL     1       3.795   7.581  17.587  0.00  0.00    +0.000 N 
ATOM     11  H   UNL     1       4.564   8.098  17.997  0.00  0.00    +0.000 HD
ENDBRANCH   1  10
BRANCH   5  12
ATOM     12  O   UNL     1       7.625   5.930  16.109  0.00  0.00    +0.000 OA
ATOM     13  H   UNL     1       8.235   5.356  16.607  0.00  0.00    +0.000 HD
ENDBRANCH   5  12
BRANCH   6  14
ATOM     14  O   UNL     1       5.037   6.885  15.135  0.00  0.00    +0.000 OA
ATOM     15  H   UNL     1       5.925   7.050  14.772  0.00  0.00    +0.000 HD
ENDBRANCH   6  14
BRANCH   2  16
ATOM     16  S   UNL     1       4.110   3.484  18.045  0.00  0.00    +0.000 S 
BRANCH  16  17
ATOM     17  C   UNL     1       2.828   2.889  19.106  0.00  0.00    +0.000 C 
ATOM     18  S   UNL     1       1.272   2.700  18.489  0.00  0.00    +0.000 S 
BRANCH  17  19
ATOM     19  N   UNL     1       3.235   2.501  20.400  0.00  0.00    +0.000 N 
ATOM     20  C   UNL     1       2.467   2.733  21.627  0.00  0.00    +0.000 C 
ATOM     21  C   UNL     1       4.581   1.983  20.673  0.00  0.00    +0.000 C 
ENDBRANCH  17  19
ENDBRANCH  16  17
ENDBRANCH   2  16
BRANCH   4  22
ATOM     22  C   UNL     1       7.812   6.085  19.115  0.00  0.00    +0.000 C 
BRANCH  22  23
ATOM     23  O   UNL     1       7.849   5.451  20.392  0.00  0.00    +0.000 OA
ATOM     24  H   UNL     1       6.931   5.463  20.724  0.00  0.00    +0.000 HD
ENDBRANCH  22  23
ENDBRANCH   4  22
TORSDOF 8
ENDMDL
MODEL 4
REMARK VINA RESULT:      -6.2      1.098      1.457
REMARK  Name = 
REMARK  11 active torsions:
REMARK  status: ('A' for Active; 'I' for Inactive)
REMARK    1  A    between atoms: C_1  and  C_2
REMARK    2  A    between atoms: N_4  and  C_5
REMARK    3  A    between atoms: C_6  and  S_7
REMARK    4  A    between atoms: S_7  and  C_8
REMARK    5  A    between atoms: C_8  and  N_10
REMARK    6  A    between atoms: N_10  and  C_11
REMARK    7  A    between atoms: N_10  and  C_12
REMARK    8  A    between atoms: C_14  and  C_15
REMARK    9  A    between atoms: C_15  and  O_16
REMARK   10  A    between atoms: C_17  and  O_18
REMARK   11  A    between atoms: C_19  and  O_20
REMARK                            x       y       z     vdW  Elec       q    Type
REMARK                         _______ _______ _______ _____ _____    ______ ____
ROOT
ATOM      1  C   UNL     1       4.242   5.242  17.756  0.00  0.00    +0.000 C 
ATOM      2  C   UNL     1       4.515   4.839  19.233  0.00  0.00    +0.000 C 
ATOM      3  O   UNL     1       5.783   5.377  19.651  0.00  0.00    +0.000 OA
ATOM      4  C   UNL     1       6.923   4.969  18.875  0.00  0.00    +0.000 C 
ATOM      5  C   UNL     1       6.758   5.216  17.371  0.00  0.00    +0.000 C 
ATOM      6  C   UNL     1       5.389   4.744  16.859  0.00  0.00    +0.000 C 
ENDROOT
BRANCH   1  10
ATOM      7  C   UNL     1       2.842   8.794  17.688  0.00  0.00    +0.000 C 
ATOM      8  C   UNL     1       2.859   7.303  17.914  0.00  0.00    +0.000 C 
ATOM      9  O   UNL     1       1.879   6.682  18.298  0.00  0.00    +0.000 OA
ATOM     10  N   UNL     1       4.061   6.705  17.590  0.00  0.00    +0.000 N 
ATOM     11  H   UNL     1       4.880   7.302  17.590  0.00  0.00    +0.000 HD
ENDBRANCH   1  10
BRANCH   5  12
ATOM     12  O   UNL     1       7.821   4.566  16.663  0.00  0.00    +0.000 OA
ATOM     13  H   UNL     1       7.550   3.652  16.460  0.00  0.00    +0.000 HD
ENDBRANCH   5  12
BRANCH   6  14
ATOM     14  O   UNL     1       5.204   5.166  15.501  0.00  0.00    +0.000 OA
ATOM     15  H   UNL     1       5.430   6.112  15.453  0.00  0.00    +0.000 HD
ENDBRANCH   6  14
BRANCH   2  16
ATOM     16  S   UNL     1       4.367   3.027  19.453  0.00  0.00    +0.000 S 
BRANCH  16  17
ATOM     17  C   UNL     1       2.625   2.746  19.355  0.00  0.00    +0.000 C 
ATOM     18  S   UNL     1       2.001   1.909  18.032  0.00  0.00    +0.000 S 
BRANCH  17  19
ATOM     19  N   UNL     1       1.874   3.158  20.476  0.00  0.00    +0.000 N 
ATOM     20  C   UNL     1       1.887   2.498  21.784  0.00  0.00    +0.000 C 
ATOM     21  C   UNL     1       0.843   4.198  20.385  0.00  0.00    +0.000 C 
ENDBRANCH  17  19
ENDBRANCH  16  17
ENDBRANCH   2  16
BRANCH   4  22
ATOM     22  C   UNL     1       8.124   5.765  19.412  0.00  0.00    +0.000 C 
BRANCH  22  23
ATOM     23  O   UNL     1       8.450   5.321  20.728  0.00  0.00    +0.000 OA
ATOM     24  H   UNL     1       7.882   4.546  20.898  0.00  0.00    +0.000 HD
ENDBRANCH  22  23
ENDBRANCH   4  22
TORSDOF 8
ENDMDL
MODEL 5
REMARK VINA RESULT:      -6.1      1.256      1.638
REMARK  Name = 
REMARK  11 active torsions:
REMARK  status: ('A' for Active; 'I' for Inactive)
REMARK    1  A    between atoms: C_1  and  C_2
REMARK    2  A    between atoms: N_4  and  C_5
REMARK    3  A    between atoms: C_6  and  S_7
REMARK    4  A    between atoms: S_7  and  C_8
REMARK    5  A    between atoms: C_8  and  N_10
REMARK    6  A    between atoms: N_10  and  C_11
REMARK    7  A    between atoms: N_10  and  C_12
REMARK    8  A    between atoms: C_14  and  C_15
REMARK    9  A    between atoms: C_15  and  O_16
REMARK   10  A    between atoms: C_17  and  O_18
REMARK   11  A    between atoms: C_19  and  O_20
REMARK                            x       y       z     vdW  Elec       q    Type
REMARK                         _______ _______ _______ _____ _____    ______ ____
ROOT
ATOM      1  C   UNL     1       4.204   5.368  17.780  0.00  0.00    +0.000 C 
ATOM      2  C   UNL     1       4.594   5.015  19.243  0.00  0.00    +0.000 C 
ATOM      3  O   UNL     1       5.854   5.632  19.566  0.00  0.00    +0.000 OA
ATOM      4  C   UNL     1       6.963   5.272  18.724  0.00  0.00    +0.000 C 
ATOM      5  C   UNL     1       6.686   5.473  17.229  0.00  0.00    +0.000 C 
ATOM      6  C   UNL     1       5.315   4.914  16.819  0.00  0.00    +0.000 C 
ENDROOT
BRANCH   1  10
ATOM      7  C   UNL     1       2.631   8.848  17.803  0.00  0.00    +0.000 C 
ATOM      8  C   UNL     1       2.754   7.368  18.068  0.00  0.00    +0.000 C 
ATOM      9  O   UNL     1       1.867   6.717  18.602  0.00  0.00    +0.000 OA
ATOM     10  N   UNL     1       3.928   6.815  17.599  0.00  0.00    +0.000 N 
ATOM     11  H   UNL     1       4.708   7.448  17.468  0.00  0.00    +0.000 HD
ENDBRANCH   1  10
BRANCH   5  12
ATOM     12  O   UNL     1       7.736   4.868  16.465  0.00  0.00    +0.000 OA
ATOM     13  H   UNL     1       7.812   3.931  16.723  0.00  0.00    +0.000 HD
ENDBRANCH   5  12
BRANCH   6  14
ATOM     14  O   UNL     1       5.018   5.294  15.468  0.00  0.00    +0.000 OA
ATOM     15  H   UNL     1       5.090   4.496  14.916  0.00  0.00    +0.000 HD
ENDBRANCH   6  14
BRANCH   2  16
ATOM     16  S   UNL     1       4.565   3.203  19.508  0.00  0.00    +0.000 S 
BRANCH  16  17
ATOM     17  C   UNL     1       2.869   2.781  19.249  0.00  0.00    +0.000 C 
ATOM     18  S   UNL     1       2.425   2.002  17.822  0.00  0.00    +0.000 S 
BRANCH  17  19
ATOM     19  N   UNL     1       2.002   3.036  20.332  0.00  0.00    +0.000 N 
ATOM     20  C   UNL     1       0.779   3.840  20.257  0.00  0.00    +0.000 C 
ATOM     21  C   UNL     1       2.345   2.668  21.711  0.00  0.00    +0.000 C 
ENDBRANCH  17  19
ENDBRANCH  16  17
ENDBRANCH   2  16
BRANCH   4  22
ATOM     22  C   UNL     1       8.149   6.145  19.164  0.00  0.00    +0.000 C 
BRANCH  22  23
ATOM     23  O   UNL     1       8.169   7.352  18.402  0.00  0.00    +0.000 OA
ATOM     24  H   UNL     1       8.013   7.088  17.476  0.00  0.00    +0.000 HD
ENDBRANCH  22  23
ENDBRANCH   4  22
TORSDOF 8
ENDMDL
MODEL 6
REMARK VINA RESULT:      -5.8      2.414      4.734
REMARK  Name = 
REMARK  11 active torsions:
REMARK  status: ('A' for Active; 'I' for Inactive)
REMARK    1  A    between atoms: C_1  and  C_2
REMARK    2  A    between atoms: N_4  and  C_5
REMARK    3  A    between atoms: C_6  and  S_7
REMARK    4  A    between atoms: S_7  and  C_8
REMARK    5  A    between atoms: C_8  and  N_10
REMARK    6  A    between atoms: N_10  and  C_11
REMARK    7  A    between atoms: N_10  and  C_12
REMARK    8  A    between atoms: C_14  and  C_15
REMARK    9  A    between atoms: C_15  and  O_16
REMARK   10  A    between atoms: C_17  and  O_18
REMARK   11  A    between atoms: C_19  and  O_20
REMARK                            x       y       z     vdW  Elec       q    Type
REMARK                         _______ _______ _______ _____ _____    ______ ____
ROOT
ATOM      1  C   UNL     1       5.232   4.838  18.632  0.00  0.00    +0.000 C 
ATOM      2  C   UNL     1       3.994   5.254  17.789  0.00  0.00    +0.000 C 
ATOM      3  O   UNL     1       4.126   4.735  16.453  0.00  0.00    +0.000 OA
ATOM      4  C   UNL     1       5.298   5.151  15.731  0.00  0.00    +0.000 C 
ATOM      5  C   UNL     1       6.606   4.894  16.490  0.00  0.00    +0.000 C 
ATOM      6  C   UNL     1       6.518   5.345  17.955  0.00  0.00    +0.000 C 
ENDROOT
BRANCH   1  10
ATOM      7  C   UNL     1       4.653   1.255  19.816  0.00  0.00    +0.000 C 
ATOM      8  C   UNL     1       4.442   2.744  19.716  0.00  0.00    +0.000 C 
ATOM      9  O   UNL     1       3.613   3.340  20.389  0.00  0.00    +0.000 OA
ATOM     10  N   UNL     1       5.309   3.372  18.845  0.00  0.00    +0.000 N 
ATOM     11  H   UNL     1       5.724   2.794  18.123  0.00  0.00    +0.000 HD
ENDBRANCH   1  10
BRANCH   5  12
ATOM     12  O   UNL     1       7.685   5.552  15.815  0.00  0.00    +0.000 OA
ATOM     13  H   UNL     1       7.340   5.971  15.005  0.00  0.00    +0.000 HD
ENDBRANCH   5  12
BRANCH   6  14
ATOM     14  O   UNL     1       7.684   4.912  18.670  0.00  0.00    +0.000 OA
ATOM     15  H   UNL     1       8.157   4.277  18.103  0.00  0.00    +0.000 HD
ENDBRANCH   6  14
BRANCH   2  16
ATOM     16  S   UNL     1       3.733   7.065  17.860  0.00  0.00    +0.000 S 
BRANCH  16  17
ATOM     17  C   UNL     1       2.405   7.241  19.012  0.00  0.00    +0.000 C 
ATOM     18  S   UNL     1       2.041   5.962  20.047  0.00  0.00    +0.000 S 
BRANCH  17  19
ATOM     19  N   UNL     1       1.799   8.514  19.058  0.00  0.00    +0.000 N 
ATOM     20  C   UNL     1       1.069   9.055  20.209  0.00  0.00    +0.000 C 
ATOM     21  C   UNL     1       1.675   9.364  17.868  0.00  0.00    +0.000 C 
ENDBRANCH  17  19
ENDBRANCH  16  17
ENDBRANCH   2  16
BRANCH   4  22
ATOM     22  C   UNL     1       5.295   4.374  14.405  0.00  0.00    +0.000 C 
BRANCH  22  23
ATOM     23  O   UNL     1       6.349   3.412  14.406  0.00  0.00    +0.000 OA
ATOM     24  H   UNL     1       5.918   2.542  14.508  0.00  0.00    +0.000 HD
ENDBRANCH  22  23
ENDBRANCH   4  22
TORSDOF 8
ENDMDL
MODEL 7
REMARK VINA RESULT:      -5.6      2.945      4.850
REMARK  Name = 
REMARK  11 active torsions:
REMARK  status: ('A' for Active; 'I' for Inactive)
REMARK    1  A    between atoms: C_1  and  C_2
REMARK    2  A    between atoms: N_4  and  C_5
REMARK    3  A    between atoms: C_6  and  S_7
REMARK    4  A    between atoms: S_7  and  C_8
REMARK    5  A    between atoms: C_8  and  N_10
REMARK    6  A    between atoms: N_10  and  C_11
REMARK    7  A    between atoms: N_10  and  C_12
REMARK    8  A    between atoms: C_14  and  C_15
REMARK    9  A    between atoms: C_15  and  O_16
REMARK   10  A    between atoms: C_17  and  O_18
REMARK   11  A    between atoms: C_19  and  O_20
REMARK                            x       y       z     vdW  Elec       q    Type
REMARK                         _______ _______ _______ _____ _____    ______ ____
ROOT
ATOM      1  C   UNL     1       3.454   4.874  17.618  0.00  0.00    +0.000 C 
ATOM      2  C   UNL     1       3.653   5.400  19.067  0.00  0.00    +0.000 C 
ATOM      3  O   UNL     1       4.251   4.369  19.874  0.00  0.00    +0.000 OA
ATOM      4  C   UNL     1       3.518   3.134  19.960  0.00  0.00    +0.000 C 
ATOM      5  C   UNL     1       3.159   2.541  18.592  0.00  0.00    +0.000 C 
ATOM      6  C   UNL     1       2.590   3.602  17.638  0.00  0.00    +0.000 C 
ENDROOT
BRANCH   1  10
ATOM      7  C   UNL     1       6.637   5.156  15.528  0.00  0.00    +0.000 C 
ATOM      8  C   UNL     1       5.337   5.587  16.157  0.00  0.00    +0.000 C 
ATOM      9  O   UNL     1       4.837   6.684  15.956  0.00  0.00    +0.000 OA
ATOM     10  N   UNL     1       4.740   4.609  16.928  0.00  0.00    +0.000 N 
ATOM     11  H   UNL     1       5.348   3.882  17.289  0.00  0.00    +0.000 HD
ENDBRANCH   1  10
BRANCH   5  12
ATOM     12  O   UNL     1       2.234   1.462  18.769  0.00  0.00    +0.000 OA
ATOM     13  H   UNL     1       1.560   1.730  19.420  0.00  0.00    +0.000 HD
ENDBRANCH   5  12
BRANCH   6  14
ATOM     14  O   UNL     1       2.451   3.050  16.321  0.00  0.00    +0.000 OA
ATOM     15  H   UNL     1       2.874   2.172  16.324  0.00  0.00    +0.000 HD
ENDBRANCH   6  14
BRANCH   2  16
ATOM     16  S   UNL     1       2.083   6.056  19.745  0.00  0.00    +0.000 S 
BRANCH  16  17
ATOM     17  C   UNL     1       2.122   7.761  19.285  0.00  0.00    +0.000 C 
ATOM     18  S   UNL     1       2.767   8.194  17.789  0.00  0.00    +0.000 S 
BRANCH  17  19
ATOM     19  N   UNL     1       1.494   8.653  20.180  0.00  0.00    +0.000 N 
ATOM     20  C   UNL     1       1.321   8.417  21.617  0.00  0.00    +0.000 C 
ATOM     21  C   UNL     1       0.771   9.843  19.719  0.00  0.00    +0.000 C 
ENDBRANCH  17  19
ENDBRANCH  16  17
ENDBRANCH   2  16
BRANCH   4  22
ATOM     22  C   UNL     1       4.404   2.153  20.745  0.00  0.00    +0.000 C 
BRANCH  22  23
ATOM     23  O   UNL     1       5.146   1.339  19.838  0.00  0.00    +0.000 OA
ATOM     24  H   UNL     1       5.314   1.895  19.054  0.00  0.00    +0.000 HD
ENDBRANCH  22  23
ENDBRANCH   4  22
TORSDOF 8
ENDMDL
MODEL 8
REMARK VINA RESULT:      -5.6      2.322      4.532
REMARK  Name = 
REMARK  11 active torsions:
REMARK  status: ('A' for Active; 'I' for Inactive)
REMARK    1  A    between atoms: C_1  and  C_2
REMARK    2  A    between atoms: N_4  and  C_5
REMARK    3  A    between atoms: C_6  and  S_7
REMARK    4  A    between atoms: S_7  and  C_8
REMARK    5  A    between atoms: C_8  and  N_10
REMARK    6  A    between atoms: N_10  and  C_11
REMARK    7  A    between atoms: N_10  and  C_12
REMARK    8  A    between atoms: C_14  and  C_15
REMARK    9  A    between atoms: C_15  and  O_16
REMARK   10  A    between atoms: C_17  and  O_18
REMARK   11  A    between atoms: C_19  and  O_20
REMARK                            x       y       z     vdW  Elec       q    Type
REMARK                         _______ _______ _______ _____ _____    ______ ____
ROOT
ATOM      1  C   UNL     1       4.918   4.553  19.086  0.00  0.00    +0.000 C 
ATOM      2  C   UNL     1       3.984   4.696  17.851  0.00  0.00    +0.000 C 
ATOM      3  O   UNL     1       4.699   4.316  16.662  0.00  0.00    +0.000 OA
ATOM      4  C   UNL     1       5.898   5.061  16.385  0.00  0.00    +0.000 C 
ATOM      5  C   UNL     1       6.882   5.094  17.561  0.00  0.00    +0.000 C 
ATOM      6  C   UNL     1       6.179   5.411  18.889  0.00  0.00    +0.000 C 
ENDROOT
BRANCH   1  10
ATOM      7  C   UNL     1       5.029   0.945  20.331  0.00  0.00    +0.000 C 
ATOM      8  C   UNL     1       4.506   2.349  20.163  0.00  0.00    +0.000 C 
ATOM      9  O   UNL     1       3.505   2.755  20.736  0.00  0.00    +0.000 OA
ATOM     10  N   UNL     1       5.294   3.143  19.354  0.00  0.00    +0.000 N 
ATOM     11  H   UNL     1       5.894   2.663  18.693  0.00  0.00    +0.000 HD
ENDBRANCH   1  10
BRANCH   5  12
ATOM     12  O   UNL     1       7.917   6.046  17.288  0.00  0.00    +0.000 OA
ATOM     13  H   UNL     1       7.739   6.465  16.427  0.00  0.00    +0.000 HD
ENDBRANCH   5  12
BRANCH   6  14
ATOM     14  O   UNL     1       7.096   5.241  19.979  0.00  0.00    +0.000 OA
ATOM     15  H   UNL     1       7.978   5.510  19.666  0.00  0.00    +0.000 HD
ENDBRANCH   6  14
BRANCH   2  16
ATOM     16  S   UNL     1       3.254   6.374  17.775  0.00  0.00    +0.000 S 
BRANCH  16  17
ATOM     17  C   UNL     1       2.213   6.431  19.201  0.00  0.00    +0.000 C 
ATOM     18  S   UNL     1       1.756   4.988  19.943  0.00  0.00    +0.000 S 
BRANCH  17  19
ATOM     19  N   UNL     1       1.920   7.720  19.695  0.00  0.00    +0.000 N 
ATOM     20  C   UNL     1       1.493   8.017  21.065  0.00  0.00    +0.000 C 
ATOM     21  C   UNL     1       1.832   8.892  18.816  0.00  0.00    +0.000 C 
ENDBRANCH  17  19
ENDBRANCH  16  17
ENDBRANCH   2  16
BRANCH   4  22
ATOM     22  C   UNL     1       6.555   4.396  15.164  0.00  0.00    +0.000 C 
BRANCH  22  23
ATOM     23  O   UNL     1       7.513   5.283  14.588  0.00  0.00    +0.000 OA
ATOM     24  H   UNL     1       7.253   5.387  13.653  0.00  0.00    +0.000 HD
ENDBRANCH  22  23
ENDBRANCH   4  22
TORSDOF 8
ENDMDL
MODEL 9
REMARK VINA RESULT:      -5.6      2.890      5.530
REMARK  Name = 
REMARK  11 active torsions:
REMARK  status: ('A' for Active; 'I' for Inactive)
REMARK    1  A    between atoms: C_1  and  C_2
REMARK    2  A    between atoms: N_4  and  C_5
REMARK    3  A    between atoms: C_6  and  S_7
REMARK    4  A    between atoms: S_7  and  C_8
REMARK    5  A    between atoms: C_8  and  N_10
REMARK    6  A    between atoms: N_10  and  C_11
REMARK    7  A    between atoms: N_10  and  C_12
REMARK    8  A    between atoms: C_14  and  C_15
REMARK    9  A    between atoms: C_15  and  O_16
REMARK   10  A    between atoms: C_17  and  O_18
REMARK   11  A    between atoms: C_19  and  O_20
REMARK                            x       y       z     vdW  Elec       q    Type
REMARK                         _______ _______ _______ _____ _____    ______ ____
ROOT
ATOM      1  C   UNL     1       3.210   5.909  19.046  0.00  0.00    +0.000 C 
ATOM      2  C   UNL     1       3.680   4.846  18.013  0.00  0.00    +0.000 C 
ATOM      3  O   UNL     1       2.629   3.886  17.800  0.00  0.00    +0.000 OA
ATOM      4  C   UNL     1       2.177   3.181  18.969  0.00  0.00    +0.000 C 
ATOM      5  C   UNL     1       1.770   4.107  20.121  0.00  0.00    +0.000 C 
ATOM      6  C   UNL     1       2.804   5.217  20.358  0.00  0.00    +0.000 C 
ENDROOT
BRANCH   1  10
ATOM      7  C   UNL     1       1.091   8.690  17.512  0.00  0.00    +0.000 C 
ATOM      8  C   UNL     1       2.336   7.978  17.978  0.00  0.00    +0.000 C 
ATOM      9  O   UNL     1       3.448   8.481  17.914  0.00  0.00    +0.000 OA
ATOM     10  N   UNL     1       2.091   6.740  18.537  0.00  0.00    +0.000 N 
ATOM     11  H   UNL     1       1.227   6.284  18.269  0.00  0.00    +0.000 HD
ENDBRANCH   1  10
BRANCH   5  12
ATOM     12  O   UNL     1       1.570   3.330  21.309  0.00  0.00    +0.000 OA
ATOM     13  H   UNL     1       2.406   3.302  21.809  0.00  0.00    +0.000 HD
ENDBRANCH   5  12
BRANCH   6  14
ATOM     14  O   UNL     1       2.294   6.165  21.306  0.00  0.00    +0.000 OA
ATOM     15  H   UNL     1       3.020   6.395  21.913  0.00  0.00    +0.000 HD
ENDBRANCH   6  14
BRANCH   2  16
ATOM     16  S   UNL     1       5.275   4.101  18.521  0.00  0.00    +0.000 S 
BRANCH  16  17
ATOM     17  C   UNL     1       6.445   4.873  17.446  0.00  0.00    +0.000 C 
ATOM     18  S   UNL     1       6.448   4.472  15.810  0.00  0.00    +0.000 S 
BRANCH  17  19
ATOM     19  N   UNL     1       7.245   5.878  18.032  0.00  0.00    +0.000 N 
ATOM     20  C   UNL     1       7.877   5.786  19.351  0.00  0.00    +0.000 C 
ATOM     21  C   UNL     1       7.370   7.217  17.444  0.00  0.00    +0.000 C 
ENDBRANCH  17  19
ENDBRANCH  16  17
ENDBRANCH   2  16
BRANCH   4  22
ATOM     22  C   UNL     1       0.977   2.327  18.528  0.00  0.00    +0.000 C 
BRANCH  22  23
ATOM     23  O   UNL     1      -0.150   2.613  19.356  0.00  0.00    +0.000 OA
ATOM     24  H   UNL     1       0.103   3.385  19.897  0.00  0.00    +0.000 HD
ENDBRANCH  22  23
ENDBRANCH   4  22
TORSDOF 8
ENDMDL
