MODEL 1
REMARK VINA RESULT:      -8.0      0.000      0.000
REMARK  Name = 
REMARK  8 active torsions:
REMARK  status: ('A' for Active; 'I' for Inactive)
REMARK    1  A    between atoms: C_1  and  C_2
REMARK    2  A    between atoms: C_2  and  C_3
REMARK    3  A    between atoms: C_3  and  C_4
REMARK    4  A    between atoms: C_3  and  N_7
REMARK    5  A    between atoms: C_10  and  C_11
REMARK    6  A    between atoms: C_14  and  C_15
REMARK    7  A    between atoms: C_18  and  O_19
REMARK    8  A    between atoms: O_19  and  C_20
REMARK                            x       y       z     vdW  Elec       q    Type
REMARK                         _______ _______ _______ _____ _____    ______ ____
ROOT
ATOM      1  N   UNL     1       4.053   4.931  18.463  0.00  0.00    +0.000 N 
ATOM      2  C   UNL     1       3.732   4.175  19.588  0.00  0.00    +0.000 A 
ATOM      3  O   UNL     1       4.249   3.117  19.918  0.00  0.00    +0.000 OA
ATOM      4  C   UNL     1       2.605   4.722  20.451  0.00  0.00    +0.000 A 
ATOM      5  C   UNL     1       2.136   3.892  21.612  0.00  0.00    +0.000 C 
ATOM      6  N   UNL     1       2.062   5.880  20.250  0.00  0.00    +0.000 NA
ATOM      7  C   UNL     1       2.573   6.711  19.231  0.00  0.00    +0.000 A 
ATOM      8  C   UNL     1       2.138   8.065  19.148  0.00  0.00    +0.000 A 
ATOM      9  C   UNL     1       2.694   8.836  18.112  0.00  0.00    +0.000 A 
ATOM     10  C   UNL     1       3.572   8.263  17.211  0.00  0.00    +0.000 A 
ATOM     11  N   UNL     1       4.008   6.998  17.300  0.00  0.00    +0.000 NA
ATOM     12  C   UNL     1       3.535   6.238  18.309  0.00  0.00    +0.000 A 
ENDROOT
BRANCH   8  13
ATOM     13  C   UNL     1       1.197   8.690  20.140  0.00  0.00    +0.000 A 
ATOM     14  C   UNL     1       1.373   8.434  21.519  0.00  0.00    +0.000 A 
ATOM     15  C   UNL     1       0.547   8.974  22.506  0.00  0.00    +0.000 A 
ATOM     16  C   UNL     1      -0.450   9.875  22.171  0.00  0.00    +0.000 A 
ATOM     17  C   UNL     1      -0.665  10.165  20.823  0.00  0.00    +0.000 A 
ATOM     18  C   UNL     1       0.124   9.563  19.824  0.00  0.00    +0.000 A 
ATOM     19 CL   UNL     1      -0.359   9.932  18.197  0.00  0.00    +0.000 Cl
BRANCH  16  20
ATOM     20  O   UNL     1      -1.168  10.373  23.212  0.00  0.00    +0.000 OA
BRANCH  20  21
ATOM     21  C   UNL     1      -1.818  11.610  22.955  0.00  0.00    +0.000 C 
ATOM     22  F   UNL     1      -2.889  11.717  23.778  0.00  0.00    +0.000 F 
ATOM     23  F   UNL     1      -0.955  12.599  23.301  0.00  0.00    +0.000 F 
ENDBRANCH  20  21
ENDBRANCH  16  20
ENDBRANCH   8  13
BRANCH   1  24
ATOM     24  C   UNL     1       5.052   4.381  17.529  0.00  0.00    +0.000 C 
BRANCH  24  25
ATOM     25  C   UNL     1       6.310   5.233  17.484  0.00  0.00    +0.000 C 
ATOM     26  C   UNL     1       7.091   5.672  18.700  0.00  0.00    +0.000 C 
ATOM     27  C   UNL     1       7.633   4.580  17.827  0.00  0.00    +0.000 C 
ENDBRANCH  24  25
BRANCH  24  29
ATOM     28  C   UNL     1       5.466   4.630  14.992  0.00  0.00    +0.000 C 
ATOM     29  C   UNL     1       4.558   4.098  16.088  0.00  0.00    +0.000 C 
ENDBRANCH  24  29
ENDBRANCH   1  24
TORSDOF 6
ENDMDL
MODEL 2
REMARK VINA RESULT:      -6.8      4.169      8.974
REMARK  Name = 
REMARK  8 active torsions:
REMARK  status: ('A' for Active; 'I' for Inactive)
REMARK    1  A    between atoms: C_1  and  C_2
REMARK    2  A    between atoms: C_2  and  C_3
REMARK    3  A    between atoms: C_3  and  C_4
REMARK    4  A    between atoms: C_3  and  N_7
REMARK    5  A    between atoms: C_10  and  C_11
REMARK    6  A    between atoms: C_14  and  C_15
REMARK    7  A    between atoms: C_18  and  O_19
REMARK    8  A    between atoms: O_19  and  C_20
REMARK                            x       y       z     vdW  Elec       q    Type
REMARK                         _______ _______ _______ _____ _____    ______ ____
ROOT
ATOM      1  N   UNL     1      -1.541  11.685  21.388  0.00  0.00    +0.000 N 
ATOM      2  C   UNL     1      -1.852  11.928  20.053  0.00  0.00    +0.000 A 
ATOM      3  O   UNL     1      -2.507  12.868  19.624  0.00  0.00    +0.000 OA
ATOM      4  C   UNL     1      -1.349  10.893  19.059  0.00  0.00    +0.000 A 
ATOM      5  C   UNL     1      -1.753  11.039  17.619  0.00  0.00    +0.000 C 
ATOM      6  N   UNL     1      -0.562   9.920  19.392  0.00  0.00    +0.000 NA
ATOM      7  C   UNL     1      -0.091   9.842  20.720  0.00  0.00    +0.000 A 
ATOM      8  C   UNL     1       0.943   8.916  21.042  0.00  0.00    +0.000 A 
ATOM      9  C   UNL     1       1.369   8.898  22.381  0.00  0.00    +0.000 A 
ATOM     10  C   UNL     1       0.758   9.711  23.318  0.00  0.00    +0.000 A 
ATOM     11  N   UNL     1      -0.195  10.606  23.016  0.00  0.00    +0.000 NA
ATOM     12  C   UNL     1      -0.598  10.688  21.732  0.00  0.00    +0.000 A 
ENDROOT
BRANCH   8  13
ATOM     13  C   UNL     1       1.618   8.045  20.018  0.00  0.00    +0.000 A 
ATOM     14  C   UNL     1       1.772   6.664  20.276  0.00  0.00    +0.000 A 
ATOM     15  C   UNL     1       2.384   5.786  19.381  0.00  0.00    +0.000 A 
ATOM     16  C   UNL     1       2.798   6.228  18.136  0.00  0.00    +0.000 A 
ATOM     17  C   UNL     1       2.667   7.583  17.828  0.00  0.00    +0.000 A 
ATOM     18  C   UNL     1       2.113   8.480  18.762  0.00  0.00    +0.000 A 
ATOM     19 CL   UNL     1       2.143  10.146  18.271  0.00  0.00    +0.000 Cl
BRANCH  16  20
ATOM     20  O   UNL     1       3.342   5.281  17.326  0.00  0.00    +0.000 OA
BRANCH  20  21
ATOM     21  C   UNL     1       3.817   4.120  17.994  0.00  0.00    +0.000 C 
ATOM     22  F   UNL     1       3.699   3.060  17.159  0.00  0.00    +0.000 F 
ATOM     23  F   UNL     1       5.143   4.300  18.220  0.00  0.00    +0.000 F 
ENDBRANCH  20  21
ENDBRANCH  16  20
ENDBRANCH   8  13
BRANCH   1  24
ATOM     24  C   UNL     1      -2.110  12.592  22.401  0.00  0.00    +0.000 C 
BRANCH  24  25
ATOM     25  C   UNL     1      -1.045  13.476  23.029  0.00  0.00    +0.000 C 
ATOM     26  C   UNL     1      -0.041  14.293  22.250  0.00  0.00    +0.000 C 
ATOM     27  C   UNL     1      -1.198  14.979  22.915  0.00  0.00    +0.000 C 
ENDBRANCH  24  25
BRANCH  24  29
ATOM     28  C   UNL     1      -4.193  12.718  23.924  0.00  0.00    +0.000 C 
ATOM     29  C   UNL     1      -2.962  11.927  23.512  0.00  0.00    +0.000 C 
ENDBRANCH  24  29
ENDBRANCH   1  24
TORSDOF 6
ENDMDL
MODEL 3
REMARK VINA RESULT:      -6.7      5.276      9.537
REMARK  Name = 
REMARK  8 active torsions:
REMARK  status: ('A' for Active; 'I' for Inactive)
REMARK    1  A    between atoms: C_1  and  C_2
REMARK    2  A    between atoms: C_2  and  C_3
REMARK    3  A    between atoms: C_3  and  C_4
REMARK    4  A    between atoms: C_3  and  N_7
REMARK    5  A    between atoms: C_10  and  C_11
REMARK    6  A    between atoms: C_14  and  C_15
REMARK    7  A    between atoms: C_18  and  O_19
REMARK    8  A    between atoms: O_19  and  C_20
REMARK                            x       y       z     vdW  Elec       q    Type
REMARK                         _______ _______ _______ _____ _____    ______ ____
ROOT
ATOM      1  N   UNL     1      -0.342  14.579  20.263  0.00  0.00    +0.000 N 
ATOM      2  C   UNL     1       0.950  14.736  20.762  0.00  0.00    +0.000 A 
ATOM      3  O   UNL     1       1.375  15.708  21.371  0.00  0.00    +0.000 OA
ATOM      4  C   UNL     1       1.910  13.593  20.475  0.00  0.00    +0.000 A 
ATOM      5  C   UNL     1       3.347  13.756  20.885  0.00  0.00    +0.000 C 
ATOM      6  N   UNL     1       1.538  12.478  19.932  0.00  0.00    +0.000 NA
ATOM      7  C   UNL     1       0.171  12.277  19.646  0.00  0.00    +0.000 A 
ATOM      8  C   UNL     1      -0.279  10.981  19.260  0.00  0.00    +0.000 A 
ATOM      9  C   UNL     1      -1.654  10.852  19.000  0.00  0.00    +0.000 A 
ATOM     10  C   UNL     1      -2.485  11.954  19.072  0.00  0.00    +0.000 A 
ATOM     11  N   UNL     1      -2.074  13.170  19.463  0.00  0.00    +0.000 NA
ATOM     12  C   UNL     1      -0.769  13.325  19.769  0.00  0.00    +0.000 A 
ENDROOT
BRANCH   8  13
ATOM     13  C   UNL     1       0.623   9.779  19.200  0.00  0.00    +0.000 A 
ATOM     14  C   UNL     1       1.242   9.439  17.975  0.00  0.00    +0.000 A 
ATOM     15  C   UNL     1       2.093   8.342  17.831  0.00  0.00    +0.000 A 
ATOM     16  C   UNL     1       2.442   7.575  18.930  0.00  0.00    +0.000 A 
ATOM     17  C   UNL     1       1.861   7.870  20.165  0.00  0.00    +0.000 A 
ATOM     18  C   UNL     1       0.947   8.935  20.291  0.00  0.00    +0.000 A 
ATOM     19 CL   UNL     1       0.221   9.083  21.863  0.00  0.00    +0.000 Cl
BRANCH  16  20
ATOM     20  O   UNL     1       3.310   6.558  18.687  0.00  0.00    +0.000 OA
BRANCH  20  21
ATOM     21  C   UNL     1       2.803   5.258  18.957  0.00  0.00    +0.000 C 
ATOM     22  F   UNL     1       1.859   4.960  18.034  0.00  0.00    +0.000 F 
ATOM     23  F   UNL     1       3.824   4.383  18.776  0.00  0.00    +0.000 F 
ENDBRANCH  20  21
ENDBRANCH  16  20
ENDBRANCH   8  13
BRANCH   1  24
ATOM     24  C   UNL     1      -1.274  15.712  20.407  0.00  0.00    +0.000 C 
BRANCH  24  25
ATOM     25  C   UNL     1      -0.761  16.957  19.703  0.00  0.00    +0.000 C 
ATOM     26  C   UNL     1      -0.373  17.018  18.244  0.00  0.00    +0.000 C 
ATOM     27  C   UNL     1      -1.663  17.636  18.694  0.00  0.00    +0.000 C 
ENDBRANCH  24  25
BRANCH  24  29
ATOM     28  C   UNL     1      -1.445  17.509  22.254  0.00  0.00    +0.000 C 
ATOM     29  C   UNL     1      -1.702  16.065  21.854  0.00  0.00    +0.000 C 
ENDBRANCH  24  29
ENDBRANCH   1  24
TORSDOF 6
ENDMDL
MODEL 4
REMARK VINA RESULT:      -6.7      4.255      8.924
REMARK  Name = 
REMARK  8 active torsions:
REMARK  status: ('A' for Active; 'I' for Inactive)
REMARK    1  A    between atoms: C_1  and  C_2
REMARK    2  A    between atoms: C_2  and  C_3
REMARK    3  A    between atoms: C_3  and  C_4
REMARK    4  A    between atoms: C_3  and  N_7
REMARK    5  A    between atoms: C_10  and  C_11
REMARK    6  A    between atoms: C_14  and  C_15
REMARK    7  A    between atoms: C_18  and  O_19
REMARK    8  A    between atoms: O_19  and  C_20
REMARK                            x       y       z     vdW  Elec       q    Type
REMARK                         _______ _______ _______ _____ _____    ______ ____
ROOT
ATOM      1  N   UNL     1      -1.301  11.461  21.117  0.00  0.00    +0.000 N 
ATOM      2  C   UNL     1      -1.614  11.693  19.779  0.00  0.00    +0.000 A 
ATOM      3  O   UNL     1      -2.286  12.619  19.346  0.00  0.00    +0.000 OA
ATOM      4  C   UNL     1      -1.090  10.664  18.790  0.00  0.00    +0.000 A 
ATOM      5  C   UNL     1      -1.494  10.797  17.349  0.00  0.00    +0.000 C 
ATOM      6  N   UNL     1      -0.286   9.707  19.129  0.00  0.00    +0.000 NA
ATOM      7  C   UNL     1       0.184   9.643  20.457  0.00  0.00    +0.000 A 
ATOM      8  C   UNL     1       1.234   8.738  20.785  0.00  0.00    +0.000 A 
ATOM      9  C   UNL     1       1.658   8.733  22.125  0.00  0.00    +0.000 A 
ATOM     10  C   UNL     1       1.031   9.538  23.057  0.00  0.00    +0.000 A 
ATOM     11  N   UNL     1       0.062  10.413  22.751  0.00  0.00    +0.000 NA
ATOM     12  C   UNL     1      -0.341  10.483  21.465  0.00  0.00    +0.000 A 
ENDROOT
BRANCH   8  13
ATOM     13  C   UNL     1       1.927   7.876  19.765  0.00  0.00    +0.000 A 
ATOM     14  C   UNL     1       2.514   8.481  18.630  0.00  0.00    +0.000 A 
ATOM     15  C   UNL     1       3.177   7.757  17.638  0.00  0.00    +0.000 A 
ATOM     16  C   UNL     1       3.365   6.392  17.773  0.00  0.00    +0.000 A 
ATOM     17  C   UNL     1       2.809   5.744  18.877  0.00  0.00    +0.000 A 
ATOM     18  C   UNL     1       2.079   6.468  19.841  0.00  0.00    +0.000 A 
ATOM     19 CL   UNL     1       1.346   5.493  21.077  0.00  0.00    +0.000 Cl
BRANCH  16  20
ATOM     20  O   UNL     1       4.061   5.792  16.771  0.00  0.00    +0.000 OA
BRANCH  20  21
ATOM     21  C   UNL     1       5.003   6.626  16.111  0.00  0.00    +0.000 C 
ATOM     22  F   UNL     1       6.185   6.550  16.767  0.00  0.00    +0.000 F 
ATOM     23  F   UNL     1       5.203   6.106  14.874  0.00  0.00    +0.000 F 
ENDBRANCH  20  21
ENDBRANCH  16  20
ENDBRANCH   8  13
BRANCH   1  24
ATOM     24  C   UNL     1      -1.890  12.361  22.125  0.00  0.00    +0.000 C 
BRANCH  24  25
ATOM     25  C   UNL     1      -0.879  13.377  22.631  0.00  0.00    +0.000 C 
ATOM     26  C   UNL     1       0.114  14.106  21.758  0.00  0.00    +0.000 C 
ATOM     27  C   UNL     1      -1.088  14.835  22.280  0.00  0.00    +0.000 C 
ENDBRANCH  24  25
BRANCH  24  29
ATOM     28  C   UNL     1      -3.696  12.501  23.966  0.00  0.00    +0.000 C 
ATOM     29  C   UNL     1      -2.592  11.676  23.325  0.00  0.00    +0.000 C 
ENDBRANCH  24  29
ENDBRANCH   1  24
TORSDOF 6
ENDMDL
MODEL 5
REMARK VINA RESULT:      -6.7      4.300      7.983
REMARK  Name = 
REMARK  8 active torsions:
REMARK  status: ('A' for Active; 'I' for Inactive)
REMARK    1  A    between atoms: C_1  and  C_2
REMARK    2  A    between atoms: C_2  and  C_3
REMARK    3  A    between atoms: C_3  and  C_4
REMARK    4  A    between atoms: C_3  and  N_7
REMARK    5  A    between atoms: C_10  and  C_11
REMARK    6  A    between atoms: C_14  and  C_15
REMARK    7  A    between atoms: C_18  and  O_19
REMARK    8  A    between atoms: O_19  and  C_20
REMARK                            x       y       z     vdW  Elec       q    Type
REMARK                         _______ _______ _______ _____ _____    ______ ____
ROOT
ATOM      1  N   UNL     1       0.248  11.266  20.567  0.00  0.00    +0.000 N 
ATOM      2  C   UNL     1      -0.047  10.833  21.858  0.00  0.00    +0.000 A 
ATOM      3  O   UNL     1      -0.750  11.416  22.671  0.00  0.00    +0.000 OA
ATOM      4  C   UNL     1       0.611   9.529  22.282  0.00  0.00    +0.000 A 
ATOM      5  C   UNL     1       0.425   9.073  23.702  0.00  0.00    +0.000 C 
ATOM      6  N   UNL     1       1.287   8.783  21.468  0.00  0.00    +0.000 NA
ATOM      7  C   UNL     1       1.371   9.151  20.109  0.00  0.00    +0.000 A 
ATOM      8  C   UNL     1       1.917   8.230  19.168  0.00  0.00    +0.000 A 
ATOM      9  C   UNL     1       1.963   8.660  17.831  0.00  0.00    +0.000 A 
ATOM     10  C   UNL     1       1.542   9.932  17.492  0.00  0.00    +0.000 A 
ATOM     11  N   UNL     1       1.000  10.793  18.367  0.00  0.00    +0.000 NA
ATOM     12  C   UNL     1       0.894  10.400  19.654  0.00  0.00    +0.000 A 
ENDROOT
BRANCH   8  13
ATOM     13  C   UNL     1       2.357   6.840  19.536  0.00  0.00    +0.000 A 
ATOM     14  C   UNL     1       1.649   6.129  20.531  0.00  0.00    +0.000 A 
ATOM     15  C   UNL     1       1.989   4.836  20.931  0.00  0.00    +0.000 A 
ATOM     16  C   UNL     1       3.006   4.148  20.291  0.00  0.00    +0.000 A 
ATOM     17  C   UNL     1       3.737   4.803  19.298  0.00  0.00    +0.000 A 
ATOM     18  C   UNL     1       3.436   6.133  18.947  0.00  0.00    +0.000 A 
ATOM     19 CL   UNL     1       4.522   6.839  17.788  0.00  0.00    +0.000 Cl
BRANCH  16  20
ATOM     20  O   UNL     1       3.227   2.880  20.730  0.00  0.00    +0.000 OA
BRANCH  20  21
ATOM     21  C   UNL     1       4.371   2.244  20.177  0.00  0.00    +0.000 C 
ATOM     22  F   UNL     1       4.964   1.502  21.142  0.00  0.00    +0.000 F 
ATOM     23  F   UNL     1       3.932   1.379  19.228  0.00  0.00    +0.000 F 
ENDBRANCH  20  21
ENDBRANCH  16  20
ENDBRANCH   8  13
BRANCH   1  24
ATOM     24  C   UNL     1      -0.264  12.584  20.152  0.00  0.00    +0.000 C 
BRANCH  24  25
ATOM     25  C   UNL     1       0.455  13.718  20.864  0.00  0.00    +0.000 C 
ATOM     26  C   UNL     1       1.956  13.837  20.987  0.00  0.00    +0.000 C 
ATOM     27  C   UNL     1       1.219  14.723  20.027  0.00  0.00    +0.000 C 
ENDBRANCH  24  25
BRANCH  24  29
ATOM     28  C   UNL     1      -2.606  12.052  19.202  0.00  0.00    +0.000 C 
ATOM     29  C   UNL     1      -1.797  12.786  20.258  0.00  0.00    +0.000 C 
ENDBRANCH  24  29
ENDBRANCH   1  24
TORSDOF 6
ENDMDL
MODEL 6
REMARK VINA RESULT:      -6.5      4.343      9.268
REMARK  Name = 
REMARK  8 active torsions:
REMARK  status: ('A' for Active; 'I' for Inactive)
REMARK    1  A    between atoms: C_1  and  C_2
REMARK    2  A    between atoms: C_2  and  C_3
REMARK    3  A    between atoms: C_3  and  C_4
REMARK    4  A    between atoms: C_3  and  N_7
REMARK    5  A    between atoms: C_10  and  C_11
REMARK    6  A    between atoms: C_14  and  C_15
REMARK    7  A    between atoms: C_18  and  O_19
REMARK    8  A    between atoms: O_19  and  C_20
REMARK                            x       y       z     vdW  Elec       q    Type
REMARK                         _______ _______ _______ _____ _____    ______ ____
ROOT
ATOM      1  N   UNL     1      -1.727  11.977  21.605  0.00  0.00    +0.000 N 
ATOM      2  C   UNL     1      -1.926  12.453  20.311  0.00  0.00    +0.000 A 
ATOM      3  O   UNL     1      -2.544  13.461  19.999  0.00  0.00    +0.000 OA
ATOM      4  C   UNL     1      -1.340  11.599  19.197  0.00  0.00    +0.000 A 
ATOM      5  C   UNL     1      -1.623  11.998  17.776  0.00  0.00    +0.000 C 
ATOM      6  N   UNL     1      -0.583  10.572  19.419  0.00  0.00    +0.000 NA
ATOM      7  C   UNL     1      -0.224  10.259  20.747  0.00  0.00    +0.000 A 
ATOM      8  C   UNL     1       0.781   9.278  20.987  0.00  0.00    +0.000 A 
ATOM      9  C   UNL     1       1.094   9.023  22.333  0.00  0.00    +0.000 A 
ATOM     10  C   UNL     1       0.406   9.668  23.343  0.00  0.00    +0.000 A 
ATOM     11  N   UNL     1      -0.520  10.614  23.125  0.00  0.00    +0.000 NA
ATOM     12  C   UNL     1      -0.815  10.923  21.845  0.00  0.00    +0.000 A 
ENDROOT
BRANCH   8  13
ATOM     13  C   UNL     1       1.540   8.590  19.886  0.00  0.00    +0.000 A 
ATOM     14  C   UNL     1       1.940   9.332  18.751  0.00  0.00    +0.000 A 
ATOM     15  C   UNL     1       2.648   8.773  17.686  0.00  0.00    +0.000 A 
ATOM     16  C   UNL     1       3.072   7.455  17.740  0.00  0.00    +0.000 A 
ATOM     17  C   UNL     1       2.707   6.678  18.840  0.00  0.00    +0.000 A 
ATOM     18  C   UNL     1       1.931   7.227  19.880  0.00  0.00    +0.000 A 
ATOM     19 CL   UNL     1       1.456   6.091  21.106  0.00  0.00    +0.000 Cl
BRANCH  16  20
ATOM     20  O   UNL     1       3.791   7.024  16.670  0.00  0.00    +0.000 OA
BRANCH  20  21
ATOM     21  C   UNL     1       4.935   6.244  16.990  0.00  0.00    +0.000 C 
ATOM     22  F   UNL     1       4.998   5.195  16.136  0.00  0.00    +0.000 F 
ATOM     23  F   UNL     1       6.027   7.014  16.753  0.00  0.00    +0.000 F 
ENDBRANCH  20  21
ENDBRANCH  16  20
ENDBRANCH   8  13
BRANCH   1  24
ATOM     24  C   UNL     1      -2.380  12.702  22.710  0.00  0.00    +0.000 C 
BRANCH  24  25
ATOM     25  C   UNL     1      -1.403  13.601  23.449  0.00  0.00    +0.000 C 
ATOM     26  C   UNL     1      -0.440  14.553  22.779  0.00  0.00    +0.000 C 
ATOM     27  C   UNL     1      -1.664  15.093  23.457  0.00  0.00    +0.000 C 
ENDBRANCH  24  25
BRANCH  24  29
ATOM     28  C   UNL     1      -4.238  12.584  24.500  0.00  0.00    +0.000 C 
ATOM     29  C   UNL     1      -3.166  11.834  23.725  0.00  0.00    +0.000 C 
ENDBRANCH  24  29
ENDBRANCH   1  24
TORSDOF 6
ENDMDL
MODEL 7
REMARK VINA RESULT:      -6.5      4.053      8.676
REMARK  Name = 
REMARK  8 active torsions:
REMARK  status: ('A' for Active; 'I' for Inactive)
REMARK    1  A    between atoms: C_1  and  C_2
REMARK    2  A    between atoms: C_2  and  C_3
REMARK    3  A    between atoms: C_3  and  C_4
REMARK    4  A    between atoms: C_3  and  N_7
REMARK    5  A    between atoms: C_10  and  C_11
REMARK    6  A    between atoms: C_14  and  C_15
REMARK    7  A    between atoms: C_18  and  O_19
REMARK    8  A    between atoms: O_19  and  C_20
REMARK                            x       y       z     vdW  Elec       q    Type
REMARK                         _______ _______ _______ _____ _____    ______ ____
ROOT
ATOM      1  N   UNL     1      -1.426  11.608  20.659  0.00  0.00    +0.000 N 
ATOM      2  C   UNL     1      -1.721  11.579  19.298  0.00  0.00    +0.000 A 
ATOM      3  O   UNL     1      -2.338  12.433  18.675  0.00  0.00    +0.000 OA
ATOM      4  C   UNL     1      -1.254  10.343  18.547  0.00  0.00    +0.000 A 
ATOM      5  C   UNL     1      -1.645  10.201  17.103  0.00  0.00    +0.000 C 
ATOM      6  N   UNL     1      -0.507   9.432  19.085  0.00  0.00    +0.000 NA
ATOM      7  C   UNL     1      -0.045   9.614  20.405  0.00  0.00    +0.000 A 
ATOM      8  C   UNL     1       0.951   8.738  20.925  0.00  0.00    +0.000 A 
ATOM      9  C   UNL     1       1.369   8.984  22.245  0.00  0.00    +0.000 A 
ATOM     10  C   UNL     1       0.786   9.995  22.984  0.00  0.00    +0.000 A 
ATOM     11  N   UNL     1      -0.131  10.842  22.492  0.00  0.00    +0.000 NA
ATOM     12  C   UNL     1      -0.525  10.670  21.214  0.00  0.00    +0.000 A 
ENDROOT
BRANCH   8  13
ATOM     13  C   UNL     1       1.597   7.650  20.113  0.00  0.00    +0.000 A 
ATOM     14  C   UNL     1       1.581   6.321  20.597  0.00  0.00    +0.000 A 
ATOM     15  C   UNL     1       2.155   5.253  19.907  0.00  0.00    +0.000 A 
ATOM     16  C   UNL     1       2.701   5.442  18.648  0.00  0.00    +0.000 A 
ATOM     17  C   UNL     1       2.740   6.734  18.122  0.00  0.00    +0.000 A 
ATOM     18  C   UNL     1       2.224   7.822  18.853  0.00  0.00    +0.000 A 
ATOM     19 CL   UNL     1       2.468   9.374  18.111  0.00  0.00    +0.000 Cl
BRANCH  16  20
ATOM     20  O   UNL     1       3.195   4.327  18.047  0.00  0.00    +0.000 OA
BRANCH  20  21
ATOM     21  C   UNL     1       2.226   3.523  17.387  0.00  0.00    +0.000 C 
ATOM     22  F   UNL     1       1.901   2.485  18.193  0.00  0.00    +0.000 F 
ATOM     23  F   UNL     1       1.107   4.278  17.243  0.00  0.00    +0.000 F 
ENDBRANCH  20  21
ENDBRANCH  16  20
ENDBRANCH   8  13
BRANCH   1  24
ATOM     24  C   UNL     1      -1.965  12.725  21.454  0.00  0.00    +0.000 C 
BRANCH  24  25
ATOM     25  C   UNL     1      -0.876  13.704  21.862  0.00  0.00    +0.000 C 
ATOM     26  C   UNL     1       0.119  14.324  20.909  0.00  0.00    +0.000 C 
ATOM     27  C   UNL     1      -1.015  15.151  21.438  0.00  0.00    +0.000 C 
ENDBRANCH  24  25
BRANCH  24  29
ATOM     28  C   UNL     1      -4.260  12.796  22.638  0.00  0.00    +0.000 C 
ATOM     29  C   UNL     1      -2.812  12.336  22.693  0.00  0.00    +0.000 C 
ENDBRANCH  24  29
ENDBRANCH   1  24
TORSDOF 6
ENDMDL
MODEL 8
REMARK VINA RESULT:      -6.5      4.107      7.937
REMARK  Name = 
REMARK  8 active torsions:
REMARK  status: ('A' for Active; 'I' for Inactive)
REMARK    1  A    between atoms: C_1  and  C_2
REMARK    2  A    between atoms: C_2  and  C_3
REMARK    3  A    between atoms: C_3  and  C_4
REMARK    4  A    between atoms: C_3  and  N_7
REMARK    5  A    between atoms: C_10  and  C_11
REMARK    6  A    between atoms: C_14  and  C_15
REMARK    7  A    between atoms: C_18  and  O_19
REMARK    8  A    between atoms: O_19  and  C_20
REMARK                            x       y       z     vdW  Elec       q    Type
REMARK                         _______ _______ _______ _____ _____    ______ ____
ROOT
ATOM      1  N   UNL     1       0.471  11.544  20.808  0.00  0.00    +0.000 N 
ATOM      2  C   UNL     1       0.082  11.043  22.048  0.00  0.00    +0.000 A 
ATOM      3  O   UNL     1      -0.590  11.629  22.885  0.00  0.00    +0.000 OA
ATOM      4  C   UNL     1       0.584   9.647  22.383  0.00  0.00    +0.000 A 
ATOM      5  C   UNL     1       0.295   9.100  23.753  0.00  0.00    +0.000 C 
ATOM      6  N   UNL     1       1.213   8.901  21.532  0.00  0.00    +0.000 NA
ATOM      7  C   UNL     1       1.389   9.365  20.211  0.00  0.00    +0.000 A 
ATOM      8  C   UNL     1       1.875   8.470  19.215  0.00  0.00    +0.000 A 
ATOM      9  C   UNL     1       2.019   8.998  17.920  0.00  0.00    +0.000 A 
ATOM     10  C   UNL     1       1.745  10.330  17.676  0.00  0.00    +0.000 A 
ATOM     11  N   UNL     1       1.259  11.171  18.602  0.00  0.00    +0.000 NA
ATOM     12  C   UNL     1       1.062  10.690  19.847  0.00  0.00    +0.000 A 
ENDROOT
BRANCH   8  13
ATOM     13  C   UNL     1       2.156   7.016  19.478  0.00  0.00    +0.000 A 
ATOM     14  C   UNL     1       1.418   6.338  20.476  0.00  0.00    +0.000 A 
ATOM     15  C   UNL     1       1.613   4.991  20.783  0.00  0.00    +0.000 A 
ATOM     16  C   UNL     1       2.499   4.223  20.046  0.00  0.00    +0.000 A 
ATOM     17  C   UNL     1       3.251   4.843  19.046  0.00  0.00    +0.000 A 
ATOM     18  C   UNL     1       3.103   6.220  18.786  0.00  0.00    +0.000 A 
ATOM     19 CL   UNL     1       4.204   6.856  17.603  0.00  0.00    +0.000 Cl
BRANCH  16  20
ATOM     20  O   UNL     1       2.581   2.914  20.400  0.00  0.00    +0.000 OA
BRANCH  20  21
ATOM     21  C   UNL     1       1.930   2.011  19.517  0.00  0.00    +0.000 C 
ATOM     22  F   UNL     1       0.835   2.620  19.003  0.00  0.00    +0.000 F 
ATOM     23  F   UNL     1       2.776   1.779  18.482  0.00  0.00    +0.000 F 
ENDBRANCH  20  21
ENDBRANCH  16  20
ENDBRANCH   8  13
BRANCH   1  24
ATOM     24  C   UNL     1       0.114  12.937  20.489  0.00  0.00    +0.000 C 
BRANCH  24  25
ATOM     25  C   UNL     1      -1.113  13.014  19.595  0.00  0.00    +0.000 C 
ATOM     26  C   UNL     1      -2.209  11.976  19.554  0.00  0.00    +0.000 C 
ATOM     27  C   UNL     1      -2.456  13.286  20.240  0.00  0.00    +0.000 C 
ENDBRANCH  24  25
BRANCH  24  29
ATOM     28  C   UNL     1       0.779  14.885  18.927  0.00  0.00    +0.000 C 
ATOM     29  C   UNL     1       1.248  13.815  19.901  0.00  0.00    +0.000 C 
ENDBRANCH  24  29
ENDBRANCH   1  24
TORSDOF 6
ENDMDL
MODEL 9
REMARK VINA RESULT:      -6.4      4.131      7.845
REMARK  Name = 
REMARK  8 active torsions:
REMARK  status: ('A' for Active; 'I' for Inactive)
REMARK    1  A    between atoms: C_1  and  C_2
REMARK    2  A    between atoms: C_2  and  C_3
REMARK    3  A    between atoms: C_3  and  C_4
REMARK    4  A    between atoms: C_3  and  N_7
REMARK    5  A    between atoms: C_10  and  C_11
REMARK    6  A    between atoms: C_14  and  C_15
REMARK    7  A    between atoms: C_18  and  O_19
REMARK    8  A    between atoms: O_19  and  C_20
REMARK                            x       y       z     vdW  Elec       q    Type
REMARK                         _______ _______ _______ _____ _____    ______ ____
ROOT
ATOM      1  N   UNL     1       0.320  11.538  20.634  0.00  0.00    +0.000 N 
ATOM      2  C   UNL     1      -0.115  11.056  21.867  0.00  0.00    +0.000 A 
ATOM      3  O   UNL     1      -0.848  11.641  22.653  0.00  0.00    +0.000 OA
ATOM      4  C   UNL     1       0.418   9.689  22.265  0.00  0.00    +0.000 A 
ATOM      5  C   UNL     1       0.079   9.168  23.634  0.00  0.00    +0.000 C 
ATOM      6  N   UNL     1       1.113   8.943  21.467  0.00  0.00    +0.000 NA
ATOM      7  C   UNL     1       1.341   9.378  20.145  0.00  0.00    +0.000 A 
ATOM      8  C   UNL     1       1.906   8.476  19.199  0.00  0.00    +0.000 A 
ATOM      9  C   UNL     1       2.097   8.974  17.899  0.00  0.00    +0.000 A 
ATOM     10  C   UNL     1       1.790  10.289  17.604  0.00  0.00    +0.000 A 
ATOM     11  N   UNL     1       1.230  11.136  18.481  0.00  0.00    +0.000 NA
ATOM     12  C   UNL     1       0.987  10.681  19.728  0.00  0.00    +0.000 A 
ENDROOT
BRANCH   8  13
ATOM     13  C   UNL     1       2.222   7.040  19.517  0.00  0.00    +0.000 A 
ATOM     14  C   UNL     1       1.515   6.388  20.553  0.00  0.00    +0.000 A 
ATOM     15  C   UNL     1       1.745   5.059  20.911  0.00  0.00    +0.000 A 
ATOM     16  C   UNL     1       2.636   4.281  20.191  0.00  0.00    +0.000 A 
ATOM     17  C   UNL     1       3.359   4.875  19.155  0.00  0.00    +0.000 A 
ATOM     18  C   UNL     1       3.176   6.236  18.842  0.00  0.00    +0.000 A 
ATOM     19 CL   UNL     1       4.245   6.847  17.616  0.00  0.00    +0.000 Cl
BRANCH  16  20
ATOM     20  O   UNL     1       2.752   2.989  20.597  0.00  0.00    +0.000 OA
BRANCH  20  21
ATOM     21  C   UNL     1       1.961   2.058  19.871  0.00  0.00    +0.000 C 
ATOM     22  F   UNL     1       0.908   2.713  19.328  0.00  0.00    +0.000 F 
ATOM     23  F   UNL     1       2.718   1.605  18.840  0.00  0.00    +0.000 F 
ENDBRANCH  20  21
ENDBRANCH  16  20
ENDBRANCH   8  13
BRANCH   1  24
ATOM     24  C   UNL     1      -0.068  12.910  20.259  0.00  0.00    +0.000 C 
BRANCH  24  25
ATOM     25  C   UNL     1       0.627  13.948  21.123  0.00  0.00    +0.000 C 
ATOM     26  C   UNL     1       2.124  14.077  21.271  0.00  0.00    +0.000 C 
ATOM     27  C   UNL     1       1.374  15.072  20.436  0.00  0.00    +0.000 C 
ENDBRANCH  24  25
BRANCH  24  29
ATOM     28  C   UNL     1      -2.398  12.201  19.398  0.00  0.00    +0.000 C 
ATOM     29  C   UNL     1      -1.590  13.200  20.210  0.00  0.00    +0.000 C 
ENDBRANCH  24  29
ENDBRANCH   1  24
TORSDOF 6
ENDMDL
