MODEL 1
REMARK VINA RESULT:      -7.5      0.000      0.000
REMARK  Name = 
REMARK  6 active torsions:
REMARK  status: ('A' for Active; 'I' for Inactive)
REMARK    1  A    between atoms: C_1  and  C_2
REMARK    2  A    between atoms: C_5  and  C_6
REMARK    3  A    between atoms: C_6  and  O_7
REMARK    4  A    between atoms: O_7  and  C_8
REMARK    5  A    between atoms: N_24  and  C_25
REMARK    6  A    between atoms: C_29  and  C_30
REMARK                            x       y       z     vdW  Elec       q    Type
REMARK                         _______ _______ _______ _____ _____    ______ ____
ROOT
ATOM      1  C   UNL     1      -3.570  12.763  24.542  0.00  0.00    +0.000 C 
ATOM      2  C   UNL     1      -2.891  12.013  23.406  0.00  0.00    +0.000 C 
ATOM      3  C   UNL     1      -3.269  12.604  22.042  0.00  0.00    +0.000 C 
ATOM      4  C   UNL     1      -2.409  12.056  20.927  0.00  0.00    +0.000 A 
ATOM      5  C   UNL     1      -2.747  12.203  19.574  0.00  0.00    +0.000 A 
ATOM      6  N   UNL     1      -1.951  11.719  18.579  0.00  0.00    +0.000 NA
ATOM      7  C   UNL     1      -0.798  11.082  18.906  0.00  0.00    +0.000 A 
ATOM      8  C   UNL     1      -0.386  10.891  20.223  0.00  0.00    +0.000 A 
ATOM      9  C   UNL     1      -1.189  11.423  21.252  0.00  0.00    +0.000 A 
ATOM     10  C   UNL     1      -0.778  11.263  22.702  0.00  0.00    +0.000 C 
ATOM     11  O   UNL     1      -1.480  12.132  23.589  0.00  0.00    +0.000 OA
ATOM     12  C   UNL     1       0.905  10.173  20.533  0.00  0.00    +0.000 C 
ATOM     13  N   UNL     1       1.411   9.388  19.416  0.00  0.00    +0.000 N 
ATOM     14  C   UNL     1       1.800   8.082  19.672  0.00  0.00    +0.000 C 
ATOM     15  O   UNL     1       1.630   7.562  20.774  0.00  0.00    +0.000 OA
ATOM     16  N   UNL     1       2.441   7.434  18.635  0.00  0.00    +0.000 N 
ATOM     17  C   UNL     1       1.412  10.100  18.140  0.00  0.00    +0.000 C 
ATOM     18  C   UNL     1      -0.008  10.513  17.753  0.00  0.00    +0.000 C 
ATOM     19  H   UNL     1       3.022   8.045  18.083  0.00  0.00    +0.000 HD
ENDROOT
BRANCH  16  20
ATOM     20  C   UNL     1       2.932   6.114  18.795  0.00  0.00    +0.000 A 
ATOM     21  C   UNL     1       4.298   5.942  19.030  0.00  0.00    +0.000 A 
ATOM     22  C   UNL     1       4.812   4.668  19.279  0.00  0.00    +0.000 A 
ATOM     23  C   UNL     1       3.975   3.551  19.237  0.00  0.00    +0.000 A 
ATOM     24  C   UNL     1       2.608   3.710  18.949  0.00  0.00    +0.000 A 
ATOM     25  C   UNL     1       2.089   4.996  18.743  0.00  0.00    +0.000 A 
BRANCH  24  26
ATOM     26  C   UNL     1       1.758   2.557  18.871  0.00  0.00    +0.000 C 
ATOM     27  N   UNL     1       1.087   1.612  18.823  0.00  0.00    +0.000 NA
ENDBRANCH  24  26
ENDBRANCH  16  20
BRANCH   5  28
ATOM     28  C   UNL     1      -3.998  12.938  19.113  0.00  0.00    +0.000 C 
BRANCH  28  29
ATOM     29  O   UNL     1      -4.899  11.991  18.537  0.00  0.00    +0.000 OA
BRANCH  29  30
ATOM     30  C   UNL     1      -5.869  11.452  19.336  0.00  0.00    +0.000 A 
ATOM     31  C   UNL     1      -6.231  12.263  20.417  0.00  0.00    +0.000 A 
ATOM     32  C   UNL     1      -7.226  11.866  21.312  0.00  0.00    +0.000 A 
ATOM     33  C   UNL     1      -7.881  10.653  21.124  0.00  0.00    +0.000 A 
ATOM     34  C   UNL     1      -7.534   9.841  20.045  0.00  0.00    +0.000 A 
ATOM     35  C   UNL     1      -6.528  10.236  19.152  0.00  0.00    +0.000 A 
ENDBRANCH  29  30
ENDBRANCH  28  29
ENDBRANCH   5  28
TORSDOF 5
ENDMDL
MODEL 2
REMARK VINA RESULT:      -7.2      3.445     10.776
REMARK  Name = 
REMARK  6 active torsions:
REMARK  status: ('A' for Active; 'I' for Inactive)
REMARK    1  A    between atoms: C_1  and  C_2
REMARK    2  A    between atoms: C_5  and  C_6
REMARK    3  A    between atoms: C_6  and  O_7
REMARK    4  A    between atoms: O_7  and  C_8
REMARK    5  A    between atoms: N_24  and  C_25
REMARK    6  A    between atoms: C_29  and  C_30
REMARK                            x       y       z     vdW  Elec       q    Type
REMARK                         _______ _______ _______ _____ _____    ______ ____
ROOT
ATOM      1  C   UNL     1       4.366   1.811  20.632  0.00  0.00    +0.000 C 
ATOM      2  C   UNL     1       4.066   3.276  20.351  0.00  0.00    +0.000 C 
ATOM      3  C   UNL     1       4.784   3.759  19.084  0.00  0.00    +0.000 C 
ATOM      4  C   UNL     1       4.295   5.118  18.639  0.00  0.00    +0.000 A 
ATOM      5  C   UNL     1       4.991   5.898  17.704  0.00  0.00    +0.000 A 
ATOM      6  N   UNL     1       4.528   7.115  17.299  0.00  0.00    +0.000 NA
ATOM      7  C   UNL     1       3.360   7.581  17.809  0.00  0.00    +0.000 A 
ATOM      8  C   UNL     1       2.605   6.872  18.742  0.00  0.00    +0.000 A 
ATOM      9  C   UNL     1       3.063   5.599  19.134  0.00  0.00    +0.000 A 
ATOM     10  C   UNL     1       2.271   4.775  20.130  0.00  0.00    +0.000 C 
ATOM     11  O   UNL     1       2.656   3.402  20.164  0.00  0.00    +0.000 OA
ATOM     12  C   UNL     1       1.313   7.437  19.280  0.00  0.00    +0.000 C 
ATOM     13  N   UNL     1       1.175   8.870  19.065  0.00  0.00    +0.000 N 
ATOM     14  C   UNL     1       0.790   9.649  20.145  0.00  0.00    +0.000 C 
ATOM     15  O   UNL     1       0.669   9.173  21.273  0.00  0.00    +0.000 OA
ATOM     16  N   UNL     1       0.495  10.966  19.858  0.00  0.00    +0.000 N 
ATOM     17  C   UNL     1       1.499   9.302  17.707  0.00  0.00    +0.000 C 
ATOM     18  C   UNL     1       2.951   8.964  17.366  0.00  0.00    +0.000 C 
ATOM     19  H   UNL     1       0.064  11.090  18.956  0.00  0.00    +0.000 HD
ENDROOT
BRANCH  16  20
ATOM     20  C   UNL     1       0.039  11.847  20.871  0.00  0.00    +0.000 A 
ATOM     21  C   UNL     1       0.800  12.985  21.147  0.00  0.00    +0.000 A 
ATOM     22  C   UNL     1       0.346  13.924  22.075  0.00  0.00    +0.000 A 
ATOM     23  C   UNL     1      -0.842  13.704  22.775  0.00  0.00    +0.000 A 
ATOM     24  C   UNL     1      -1.587  12.536  22.541  0.00  0.00    +0.000 A 
ATOM     25  C   UNL     1      -1.150  11.617  21.577  0.00  0.00    +0.000 A 
BRANCH  24  26
ATOM     26  C   UNL     1      -2.788  12.296  23.289  0.00  0.00    +0.000 C 
ATOM     27  N   UNL     1      -3.745  12.090  23.911  0.00  0.00    +0.000 NA
ENDBRANCH  24  26
ENDBRANCH  16  20
BRANCH   5  28
ATOM     28  C   UNL     1       6.287   5.439  17.050  0.00  0.00    +0.000 C 
BRANCH  28  29
ATOM     29  O   UNL     1       6.001   4.325  16.203  0.00  0.00    +0.000 OA
BRANCH  29  30
ATOM     30  C   UNL     1       6.442   4.366  14.909  0.00  0.00    +0.000 A 
ATOM     31  C   UNL     1       5.690   3.582  14.027  0.00  0.00    +0.000 A 
ATOM     32  C   UNL     1       5.995   3.536  12.666  0.00  0.00    +0.000 A 
ATOM     33  C   UNL     1       7.055   4.290  12.170  0.00  0.00    +0.000 A 
ATOM     34  C   UNL     1       7.805   5.081  13.038  0.00  0.00    +0.000 A 
ATOM     35  C   UNL     1       7.503   5.120  14.408  0.00  0.00    +0.000 A 
ENDBRANCH  29  30
ENDBRANCH  28  29
ENDBRANCH   5  28
TORSDOF 5
ENDMDL
MODEL 3
REMARK VINA RESULT:      -7.0      3.240      9.904
REMARK  Name = 
REMARK  6 active torsions:
REMARK  status: ('A' for Active; 'I' for Inactive)
REMARK    1  A    between atoms: C_1  and  C_2
REMARK    2  A    between atoms: C_5  and  C_6
REMARK    3  A    between atoms: C_6  and  O_7
REMARK    4  A    between atoms: O_7  and  C_8
REMARK    5  A    between atoms: N_24  and  C_25
REMARK    6  A    between atoms: C_29  and  C_30
REMARK                            x       y       z     vdW  Elec       q    Type
REMARK                         _______ _______ _______ _____ _____    ______ ____
ROOT
ATOM      1  C   UNL     1       6.783   4.668  14.350  0.00  0.00    +0.000 C 
ATOM      2  C   UNL     1       5.662   5.175  15.244  0.00  0.00    +0.000 C 
ATOM      3  C   UNL     1       5.765   4.587  16.657  0.00  0.00    +0.000 C 
ATOM      4  C   UNL     1       4.833   5.274  17.628  0.00  0.00    +0.000 A 
ATOM      5  C   UNL     1       4.522   4.732  18.883  0.00  0.00    +0.000 A 
ATOM      6  N   UNL     1       3.693   5.373  19.756  0.00  0.00    +0.000 NA
ATOM      7  C   UNL     1       3.159   6.569  19.403  0.00  0.00    +0.000 A 
ATOM      8  C   UNL     1       3.414   7.179  18.176  0.00  0.00    +0.000 A 
ATOM      9  C   UNL     1       4.299   6.536  17.288  0.00  0.00    +0.000 A 
ATOM     10  C   UNL     1       4.629   7.165  15.948  0.00  0.00    +0.000 C 
ATOM     11  O   UNL     1       5.778   6.596  15.323  0.00  0.00    +0.000 OA
ATOM     12  C   UNL     1       2.793   8.510  17.831  0.00  0.00    +0.000 C 
ATOM     13  N   UNL     1       1.652   8.850  18.669  0.00  0.00    +0.000 N 
ATOM     14  C   UNL     1       0.498   9.289  18.039  0.00  0.00    +0.000 C 
ATOM     15  O   UNL     1       0.395   9.295  16.813  0.00  0.00    +0.000 OA
ATOM     16  N   UNL     1      -0.492   9.772  18.871  0.00  0.00    +0.000 N 
ATOM     17  C   UNL     1       1.883   8.648  20.098  0.00  0.00    +0.000 C 
ATOM     18  C   UNL     1       2.196   7.181  20.391  0.00  0.00    +0.000 C 
ATOM     19  H   UNL     1      -0.132  10.255  19.679  0.00  0.00    +0.000 HD
ENDROOT
BRANCH  16  20
ATOM     20  C   UNL     1      -1.697  10.297  18.340  0.00  0.00    +0.000 A 
ATOM     21  C   UNL     1      -2.470  11.127  19.154  0.00  0.00    +0.000 A 
ATOM     22  C   UNL     1      -3.619  11.736  18.645  0.00  0.00    +0.000 A 
ATOM     23  C   UNL     1      -4.034  11.474  17.338  0.00  0.00    +0.000 A 
ATOM     24  C   UNL     1      -3.290  10.599  16.529  0.00  0.00    +0.000 A 
ATOM     25  C   UNL     1      -2.113  10.025  17.029  0.00  0.00    +0.000 A 
BRANCH  24  26
ATOM     26  C   UNL     1      -3.739  10.303  15.199  0.00  0.00    +0.000 C 
ATOM     27  N   UNL     1      -4.088  10.044  14.124  0.00  0.00    +0.000 NA
ENDBRANCH  24  26
ENDBRANCH  16  20
BRANCH   5  28
ATOM     28  C   UNL     1       5.105   3.416  19.380  0.00  0.00    +0.000 C 
BRANCH  28  29
ATOM     29  O   UNL     1       4.174   2.369  19.103  0.00  0.00    +0.000 OA
BRANCH  29  30
ATOM     30  C   UNL     1       2.884   2.522  19.528  0.00  0.00    +0.000 A 
ATOM     31  C   UNL     1       1.937   2.477  18.499  0.00  0.00    +0.000 A 
ATOM     32  C   UNL     1       0.573   2.592  18.770  0.00  0.00    +0.000 A 
ATOM     33  C   UNL     1       0.140   2.740  20.085  0.00  0.00    +0.000 A 
ATOM     34  C   UNL     1       1.074   2.777  21.119  0.00  0.00    +0.000 A 
ATOM     35  C   UNL     1       2.446   2.671  20.844  0.00  0.00    +0.000 A 
ENDBRANCH  29  30
ENDBRANCH  28  29
ENDBRANCH   5  28
TORSDOF 5
ENDMDL
MODEL 4
REMARK VINA RESULT:      -6.9      4.350     10.242
REMARK  Name = 
REMARK  6 active torsions:
REMARK  status: ('A' for Active; 'I' for Inactive)
REMARK    1  A    between atoms: C_1  and  C_2
REMARK    2  A    between atoms: C_5  and  C_6
REMARK    3  A    between atoms: C_6  and  O_7
REMARK    4  A    between atoms: O_7  and  C_8
REMARK    5  A    between atoms: N_24  and  C_25
REMARK    6  A    between atoms: C_29  and  C_30
REMARK                            x       y       z     vdW  Elec       q    Type
REMARK                         _______ _______ _______ _____ _____    ______ ____
ROOT
ATOM      1  C   UNL     1       2.431   2.574  21.563  0.00  0.00    +0.000 C 
ATOM      2  C   UNL     1       2.524   4.016  21.087  0.00  0.00    +0.000 C 
ATOM      3  C   UNL     1       3.028   4.094  19.640  0.00  0.00    +0.000 C 
ATOM      4  C   UNL     1       2.876   5.480  19.060  0.00  0.00    +0.000 A 
ATOM      5  C   UNL     1       3.528   5.880  17.885  0.00  0.00    +0.000 A 
ATOM      6  N   UNL     1       3.366   7.129  17.364  0.00  0.00    +0.000 NA
ATOM      7  C   UNL     1       2.548   8.009  17.996  0.00  0.00    +0.000 A 
ATOM      8  C   UNL     1       1.863   7.695  19.169  0.00  0.00    +0.000 A 
ATOM      9  C   UNL     1       2.000   6.393  19.688  0.00  0.00    +0.000 A 
ATOM     10  C   UNL     1       1.261   5.991  20.949  0.00  0.00    +0.000 C 
ATOM     11  O   UNL     1       1.215   4.581  21.155  0.00  0.00    +0.000 OA
ATOM     12  C   UNL     1       0.967   8.711  19.834  0.00  0.00    +0.000 C 
ATOM     13  N   UNL     1       1.217  10.077  19.396  0.00  0.00    +0.000 N 
ATOM     14  C   UNL     1       1.352  11.052  20.372  0.00  0.00    +0.000 C 
ATOM     15  O   UNL     1       1.368  10.769  21.569  0.00  0.00    +0.000 OA
ATOM     16  N   UNL     1       1.404  12.354  19.915  0.00  0.00    +0.000 N 
ATOM     17  C   UNL     1       1.319  10.227  17.946  0.00  0.00    +0.000 C 
ATOM     18  C   UNL     1       2.478   9.393  17.399  0.00  0.00    +0.000 C 
ATOM     19  H   UNL     1       0.827  12.514  19.105  0.00  0.00    +0.000 HD
ENDROOT
BRANCH  16  20
ATOM     20  C   UNL     1       1.489  13.440  20.822  0.00  0.00    +0.000 A 
ATOM     21  C   UNL     1       2.721  14.081  20.969  0.00  0.00    +0.000 A 
ATOM     22  C   UNL     1       2.831  15.209  21.785  0.00  0.00    +0.000 A 
ATOM     23  C   UNL     1       1.725  15.669  22.503  0.00  0.00    +0.000 A 
ATOM     24  C   UNL     1       0.495  14.998  22.400  0.00  0.00    +0.000 A 
ATOM     25  C   UNL     1       0.378  13.893  21.546  0.00  0.00    +0.000 A 
BRANCH  24  26
ATOM     26  C   UNL     1      -0.630  15.451  23.167  0.00  0.00    +0.000 C 
ATOM     27  N   UNL     1      -1.551  15.823  23.766  0.00  0.00    +0.000 NA
ENDBRANCH  24  26
ENDBRANCH  16  20
BRANCH   5  28
ATOM     28  C   UNL     1       4.431   4.949  17.086  0.00  0.00    +0.000 C 
BRANCH  28  29
ATOM     29  O   UNL     1       5.476   5.722  16.495  0.00  0.00    +0.000 OA
BRANCH  29  30
ATOM     30  C   UNL     1       6.470   6.194  17.306  0.00  0.00    +0.000 A 
ATOM     31  C   UNL     1       6.882   7.496  17.002  0.00  0.00    +0.000 A 
ATOM     32  C   UNL     1       7.871   8.132  17.753  0.00  0.00    +0.000 A 
ATOM     33  C   UNL     1       8.451   7.472  18.832  0.00  0.00    +0.000 A 
ATOM     34  C   UNL     1       8.042   6.177  19.150  0.00  0.00    +0.000 A 
ATOM     35  C   UNL     1       7.054   5.536  18.388  0.00  0.00    +0.000 A 
ENDBRANCH  29  30
ENDBRANCH  28  29
ENDBRANCH   5  28
TORSDOF 5
ENDMDL
MODEL 5
REMARK VINA RESULT:      -6.9      3.639     10.886
REMARK  Name = 
REMARK  6 active torsions:
REMARK  status: ('A' for Active; 'I' for Inactive)
REMARK    1  A    between atoms: C_1  and  C_2
REMARK    2  A    between atoms: C_5  and  C_6
REMARK    3  A    between atoms: C_6  and  O_7
REMARK    4  A    between atoms: O_7  and  C_8
REMARK    5  A    between atoms: N_24  and  C_25
REMARK    6  A    between atoms: C_29  and  C_30
REMARK                            x       y       z     vdW  Elec       q    Type
REMARK                         _______ _______ _______ _____ _____    ______ ____
ROOT
ATOM      1  C   UNL     1       4.736   1.709  20.770  0.00  0.00    +0.000 C 
ATOM      2  C   UNL     1       4.387   3.157  20.460  0.00  0.00    +0.000 C 
ATOM      3  C   UNL     1       5.047   3.623  19.155  0.00  0.00    +0.000 C 
ATOM      4  C   UNL     1       4.506   4.955  18.690  0.00  0.00    +0.000 A 
ATOM      5  C   UNL     1       5.148   5.726  17.711  0.00  0.00    +0.000 A 
ATOM      6  N   UNL     1       4.638   6.918  17.289  0.00  0.00    +0.000 NA
ATOM      7  C   UNL     1       3.476   7.368  17.827  0.00  0.00    +0.000 A 
ATOM      8  C   UNL     1       2.774   6.666  18.805  0.00  0.00    +0.000 A 
ATOM      9  C   UNL     1       3.280   5.418  19.216  0.00  0.00    +0.000 A 
ATOM     10  C   UNL     1       2.546   4.602  20.262  0.00  0.00    +0.000 C 
ATOM     11  O   UNL     1       2.969   3.241  20.320  0.00  0.00    +0.000 OA
ATOM     12  C   UNL     1       1.487   7.213  19.373  0.00  0.00    +0.000 C 
ATOM     13  N   UNL     1       1.303   8.635  19.124  0.00  0.00    +0.000 N 
ATOM     14  C   UNL     1       0.934   9.434  20.196  0.00  0.00    +0.000 C 
ATOM     15  O   UNL     1       0.865   8.987  21.340  0.00  0.00    +0.000 OA
ATOM     16  N   UNL     1       0.594  10.735  19.883  0.00  0.00    +0.000 N 
ATOM     17  C   UNL     1       1.567   9.036  17.744  0.00  0.00    +0.000 C 
ATOM     18  C   UNL     1       3.014   8.727  17.361  0.00  0.00    +0.000 C 
ATOM     19  H   UNL     1       0.128  10.821  18.994  0.00  0.00    +0.000 HD
ENDROOT
BRANCH  16  20
ATOM     20  C   UNL     1       0.150  11.632  20.887  0.00  0.00    +0.000 A 
ATOM     21  C   UNL     1      -0.822  11.188  21.786  0.00  0.00    +0.000 A 
ATOM     22  C   UNL     1      -1.226  12.006  22.843  0.00  0.00    +0.000 A 
ATOM     23  C   UNL     1      -0.704  13.294  22.975  0.00  0.00    +0.000 A 
ATOM     24  C   UNL     1       0.236  13.768  22.043  0.00  0.00    +0.000 A 
ATOM     25  C   UNL     1       0.671  12.928  21.010  0.00  0.00    +0.000 A 
BRANCH  24  26
ATOM     26  C   UNL     1       0.743  15.105  22.160  0.00  0.00    +0.000 C 
ATOM     27  N   UNL     1       1.164  16.183  22.233  0.00  0.00    +0.000 NA
ENDBRANCH  24  26
ENDBRANCH  16  20
BRANCH   5  28
ATOM     28  C   UNL     1       6.432   5.283  17.023  0.00  0.00    +0.000 C 
BRANCH  28  29
ATOM     29  O   UNL     1       6.540   5.964  15.773  0.00  0.00    +0.000 OA
BRANCH  29  30
ATOM     30  C   UNL     1       6.599   5.215  14.630  0.00  0.00    +0.000 A 
ATOM     31  C   UNL     1       5.534   4.320  14.481  0.00  0.00    +0.000 A 
ATOM     32  C   UNL     1       5.434   3.501  13.356  0.00  0.00    +0.000 A 
ATOM     33  C   UNL     1       6.399   3.580  12.356  0.00  0.00    +0.000 A 
ATOM     34  C   UNL     1       7.460   4.475  12.490  0.00  0.00    +0.000 A 
ATOM     35  C   UNL     1       7.563   5.291  13.626  0.00  0.00    +0.000 A 
ENDBRANCH  29  30
ENDBRANCH  28  29
ENDBRANCH   5  28
TORSDOF 5
ENDMDL
MODEL 6
REMARK VINA RESULT:      -6.9      2.747      4.326
REMARK  Name = 
REMARK  6 active torsions:
REMARK  status: ('A' for Active; 'I' for Inactive)
REMARK    1  A    between atoms: C_1  and  C_2
REMARK    2  A    between atoms: C_5  and  C_6
REMARK    3  A    between atoms: C_6  and  O_7
REMARK    4  A    between atoms: O_7  and  C_8
REMARK    5  A    between atoms: N_24  and  C_25
REMARK    6  A    between atoms: C_29  and  C_30
REMARK                            x       y       z     vdW  Elec       q    Type
REMARK                         _______ _______ _______ _____ _____    ______ ____
ROOT
ATOM      1  C   UNL     1      -0.379  16.492  18.416  0.00  0.00    +0.000 C 
ATOM      2  C   UNL     1      -0.003  15.119  18.953  0.00  0.00    +0.000 C 
ATOM      3  C   UNL     1      -0.444  14.952  20.413  0.00  0.00    +0.000 C 
ATOM      4  C   UNL     1      -0.325  13.521  20.882  0.00  0.00    +0.000 A 
ATOM      5  C   UNL     1      -0.374  13.167  22.238  0.00  0.00    +0.000 A 
ATOM      6  N   UNL     1      -0.283  11.869  22.644  0.00  0.00    +0.000 NA
ATOM      7  C   UNL     1      -0.146  10.892  21.712  0.00  0.00    +0.000 A 
ATOM      8  C   UNL     1      -0.086  11.155  20.344  0.00  0.00    +0.000 A 
ATOM      9  C   UNL     1      -0.217  12.492  19.921  0.00  0.00    +0.000 A 
ATOM     10  C   UNL     1      -0.181  12.833  18.444  0.00  0.00    +0.000 C 
ATOM     11  O   UNL     1      -0.667  14.142  18.152  0.00  0.00    +0.000 OA
ATOM     12  C   UNL     1       0.070  10.032  19.349  0.00  0.00    +0.000 C 
ATOM     13  N   UNL     1       0.548   8.793  19.945  0.00  0.00    +0.000 N 
ATOM     14  C   UNL     1       1.600   8.141  19.320  0.00  0.00    +0.000 C 
ATOM     15  O   UNL     1       2.184   8.636  18.357  0.00  0.00    +0.000 OA
ATOM     16  N   UNL     1       1.901   6.886  19.807  0.00  0.00    +0.000 N 
ATOM     17  C   UNL     1      -0.152   8.414  21.171  0.00  0.00    +0.000 C 
ATOM     18  C   UNL     1       0.020   9.490  22.244  0.00  0.00    +0.000 C 
ATOM     19  H   UNL     1       1.089   6.373  20.116  0.00  0.00    +0.000 HD
ENDROOT
BRANCH  16  20
ATOM     20  C   UNL     1       2.921   6.100  19.215  0.00  0.00    +0.000 A 
ATOM     21  C   UNL     1       2.580   5.274  18.142  0.00  0.00    +0.000 A 
ATOM     22  C   UNL     1       3.567   4.549  17.473  0.00  0.00    +0.000 A 
ATOM     23  C   UNL     1       4.894   4.600  17.907  0.00  0.00    +0.000 A 
ATOM     24  C   UNL     1       5.237   5.388  19.019  0.00  0.00    +0.000 A 
ATOM     25  C   UNL     1       4.250   6.149  19.660  0.00  0.00    +0.000 A 
BRANCH  24  26
ATOM     26  C   UNL     1       6.594   5.409  19.485  0.00  0.00    +0.000 C 
ATOM     27  N   UNL     1       7.692   5.402  19.857  0.00  0.00    +0.000 NA
ENDBRANCH  24  26
ENDBRANCH  16  20
BRANCH   5  28
ATOM     28  C   UNL     1      -0.567  14.190  23.350  0.00  0.00    +0.000 C 
BRANCH  28  29
ATOM     29  O   UNL     1      -1.622  13.744  24.203  0.00  0.00    +0.000 OA
BRANCH  29  30
ATOM     30  C   UNL     1      -2.910  13.883  23.767  0.00  0.00    +0.000 A 
ATOM     31  C   UNL     1      -3.216  15.164  23.296  0.00  0.00    +0.000 A 
ATOM     32  C   UNL     1      -4.483  15.462  22.791  0.00  0.00    +0.000 A 
ATOM     33  C   UNL     1      -5.457  14.469  22.741  0.00  0.00    +0.000 A 
ATOM     34  C   UNL     1      -5.161  13.187  23.200  0.00  0.00    +0.000 A 
ATOM     35  C   UNL     1      -3.890  12.891  23.715  0.00  0.00    +0.000 A 
ENDBRANCH  29  30
ENDBRANCH  28  29
ENDBRANCH   5  28
TORSDOF 5
ENDMDL
MODEL 7
REMARK VINA RESULT:      -6.9      2.763      4.213
REMARK  Name = 
REMARK  6 active torsions:
REMARK  status: ('A' for Active; 'I' for Inactive)
REMARK    1  A    between atoms: C_1  and  C_2
REMARK    2  A    between atoms: C_5  and  C_6
REMARK    3  A    between atoms: C_6  and  O_7
REMARK    4  A    between atoms: O_7  and  C_8
REMARK    5  A    between atoms: N_24  and  C_25
REMARK    6  A    between atoms: C_29  and  C_30
REMARK                            x       y       z     vdW  Elec       q    Type
REMARK                         _______ _______ _______ _____ _____    ______ ____
ROOT
ATOM      1  C   UNL     1      -2.899  12.408  23.857  0.00  0.00    +0.000 C 
ATOM      2  C   UNL     1      -2.159  11.575  22.821  0.00  0.00    +0.000 C 
ATOM      3  C   UNL     1      -1.936  12.367  21.526  0.00  0.00    +0.000 C 
ATOM      4  C   UNL     1      -0.979  11.666  20.590  0.00  0.00    +0.000 A 
ATOM      5  C   UNL     1      -0.849  12.024  19.240  0.00  0.00    +0.000 A 
ATOM      6  N   UNL     1       0.032  11.393  18.413  0.00  0.00    +0.000 NA
ATOM      7  C   UNL     1       0.807  10.396  18.908  0.00  0.00    +0.000 A 
ATOM      8  C   UNL     1       0.742   9.976  20.236  0.00  0.00    +0.000 A 
ATOM      9  C   UNL     1      -0.141  10.650  21.101  0.00  0.00    +0.000 A 
ATOM     10  C   UNL     1      -0.237  10.249  22.560  0.00  0.00    +0.000 C 
ATOM     11  O   UNL     1      -0.891  11.222  23.374  0.00  0.00    +0.000 OA
ATOM     12  C   UNL     1       1.625   8.859  20.736  0.00  0.00    +0.000 C 
ATOM     13  N   UNL     1       2.192   8.048  19.669  0.00  0.00    +0.000 N 
ATOM     14  C   UNL     1       2.101   6.669  19.790  0.00  0.00    +0.000 C 
ATOM     15  O   UNL     1       1.474   6.143  20.709  0.00  0.00    +0.000 OA
ATOM     16  N   UNL     1       2.806   5.938  18.856  0.00  0.00    +0.000 N 
ATOM     17  C   UNL     1       2.769   8.824  18.574  0.00  0.00    +0.000 C 
ATOM     18  C   UNL     1       1.704   9.700  17.914  0.00  0.00    +0.000 C 
ATOM     19  H   UNL     1       3.672   6.373  18.581  0.00  0.00    +0.000 HD
ENDROOT
BRANCH  16  20
ATOM     20  C   UNL     1       2.832   4.522  18.910  0.00  0.00    +0.000 A 
ATOM     21  C   UNL     1       1.926   3.815  18.116  0.00  0.00    +0.000 A 
ATOM     22  C   UNL     1       1.974   2.420  18.070  0.00  0.00    +0.000 A 
ATOM     23  C   UNL     1       2.887   1.721  18.862  0.00  0.00    +0.000 A 
ATOM     24  C   UNL     1       3.766   2.423  19.704  0.00  0.00    +0.000 A 
ATOM     25  C   UNL     1       3.745   3.824  19.713  0.00  0.00    +0.000 A 
BRANCH  24  26
ATOM     26  C   UNL     1       4.679   1.700  20.543  0.00  0.00    +0.000 C 
ATOM     27  N   UNL     1       5.433   1.135  21.218  0.00  0.00    +0.000 NA
ENDBRANCH  24  26
ENDBRANCH  16  20
BRANCH   5  28
ATOM     28  C   UNL     1      -1.647  13.156  18.608  0.00  0.00    +0.000 C 
BRANCH  28  29
ATOM     29  O   UNL     1      -0.745  14.197  18.232  0.00  0.00    +0.000 OA
BRANCH  29  30
ATOM     30  C   UNL     1      -0.273  15.028  19.209  0.00  0.00    +0.000 A 
ATOM     31  C   UNL     1      -0.978  16.231  19.322  0.00  0.00    +0.000 A 
ATOM     32  C   UNL     1      -0.637  17.178  20.290  0.00  0.00    +0.000 A 
ATOM     33  C   UNL     1       0.412  16.921  21.168  0.00  0.00    +0.000 A 
ATOM     34  C   UNL     1       1.116  15.721  21.070  0.00  0.00    +0.000 A 
ATOM     35  C   UNL     1       0.778  14.775  20.092  0.00  0.00    +0.000 A 
ENDBRANCH  29  30
ENDBRANCH  28  29
ENDBRANCH   5  28
TORSDOF 5
ENDMDL
MODEL 8
REMARK VINA RESULT:      -6.9      1.480      1.833
REMARK  Name = 
REMARK  6 active torsions:
REMARK  status: ('A' for Active; 'I' for Inactive)
REMARK    1  A    between atoms: C_1  and  C_2
REMARK    2  A    between atoms: C_5  and  C_6
REMARK    3  A    between atoms: C_6  and  O_7
REMARK    4  A    between atoms: O_7  and  C_8
REMARK    5  A    between atoms: N_24  and  C_25
REMARK    6  A    between atoms: C_29  and  C_30
REMARK                            x       y       z     vdW  Elec       q    Type
REMARK                         _______ _______ _______ _____ _____    ______ ____
ROOT
ATOM      1  C   UNL     1      -3.119  14.534  25.122  0.00  0.00    +0.000 C 
ATOM      2  C   UNL     1      -2.702  13.591  24.004  0.00  0.00    +0.000 C 
ATOM      3  C   UNL     1      -3.536  13.823  22.737  0.00  0.00    +0.000 C 
ATOM      4  C   UNL     1      -2.968  13.093  21.542  0.00  0.00    +0.000 A 
ATOM      5  C   UNL     1      -3.700  12.899  20.362  0.00  0.00    +0.000 A 
ATOM      6  N   UNL     1      -3.168  12.254  19.286  0.00  0.00    +0.000 NA
ATOM      7  C   UNL     1      -1.894  11.791  19.355  0.00  0.00    +0.000 A 
ATOM      8  C   UNL     1      -1.097  11.939  20.489  0.00  0.00    +0.000 A 
ATOM      9  C   UNL     1      -1.632  12.637  21.589  0.00  0.00    +0.000 A 
ATOM     10  C   UNL     1      -0.802  12.846  22.840  0.00  0.00    +0.000 C 
ATOM     11  O   UNL     1      -1.328  13.847  23.710  0.00  0.00    +0.000 OA
ATOM     12  C   UNL     1       0.314  11.403  20.516  0.00  0.00    +0.000 C 
ATOM     13  N   UNL     1       0.577  10.417  19.477  0.00  0.00    +0.000 N 
ATOM     14  C   UNL     1       1.198   9.236  19.853  0.00  0.00    +0.000 C 
ATOM     15  O   UNL     1       1.427   8.975  21.034  0.00  0.00    +0.000 OA
ATOM     16  N   UNL     1       1.593   8.412  18.819  0.00  0.00    +0.000 N 
ATOM     17  C   UNL     1       0.112  10.813  18.150  0.00  0.00    +0.000 C 
ATOM     18  C   UNL     1      -1.402  11.026  18.152  0.00  0.00    +0.000 C 
ATOM     19  H   UNL     1       1.901   8.917  18.003  0.00  0.00    +0.000 HD
ENDROOT
BRANCH  16  20
ATOM     20  C   UNL     1       2.285   7.201  19.077  0.00  0.00    +0.000 A 
ATOM     21  C   UNL     1       3.441   6.933  18.342  0.00  0.00    +0.000 A 
ATOM     22  C   UNL     1       4.202   5.796  18.621  0.00  0.00    +0.000 A 
ATOM     23  C   UNL     1       3.781   4.890  19.597  0.00  0.00    +0.000 A 
ATOM     24  C   UNL     1       2.590   5.127  20.305  0.00  0.00    +0.000 A 
ATOM     25  C   UNL     1       1.854   6.292  20.053  0.00  0.00    +0.000 A 
BRANCH  24  26
ATOM     26  C   UNL     1       2.142   4.176  21.282  0.00  0.00    +0.000 C 
ATOM     27  N   UNL     1       1.800   3.393  22.067  0.00  0.00    +0.000 NA
ENDBRANCH  24  26
ENDBRANCH  16  20
BRANCH   5  28
ATOM     28  C   UNL     1      -5.120  13.419  20.179  0.00  0.00    +0.000 C 
BRANCH  28  29
ATOM     29  O   UNL     1      -5.982  12.722  21.079  0.00  0.00    +0.000 OA
BRANCH  29  30
ATOM     30  C   UNL     1      -6.558  11.558  20.653  0.00  0.00    +0.000 A 
ATOM     31  C   UNL     1      -6.252  11.223  19.329  0.00  0.00    +0.000 A 
ATOM     32  C   UNL     1      -6.741  10.051  18.752  0.00  0.00    +0.000 A 
ATOM     33  C   UNL     1      -7.536   9.190  19.503  0.00  0.00    +0.000 A 
ATOM     34  C   UNL     1      -7.839   9.509  20.826  0.00  0.00    +0.000 A 
ATOM     35  C   UNL     1      -7.354  10.692  21.402  0.00  0.00    +0.000 A 
ENDBRANCH  29  30
ENDBRANCH  28  29
ENDBRANCH   5  28
TORSDOF 5
ENDMDL
MODEL 9
REMARK VINA RESULT:      -6.8      2.794      4.347
REMARK  Name = 
REMARK  6 active torsions:
REMARK  status: ('A' for Active; 'I' for Inactive)
REMARK    1  A    between atoms: C_1  and  C_2
REMARK    2  A    between atoms: C_5  and  C_6
REMARK    3  A    between atoms: C_6  and  O_7
REMARK    4  A    between atoms: O_7  and  C_8
REMARK    5  A    between atoms: N_24  and  C_25
REMARK    6  A    between atoms: C_29  and  C_30
REMARK                            x       y       z     vdW  Elec       q    Type
REMARK                         _______ _______ _______ _____ _____    ______ ____
ROOT
ATOM      1  C   UNL     1      -0.117  16.400  18.302  0.00  0.00    +0.000 C 
ATOM      2  C   UNL     1       0.143  15.068  18.989  0.00  0.00    +0.000 C 
ATOM      3  C   UNL     1      -0.377  15.073  20.433  0.00  0.00    +0.000 C 
ATOM      4  C   UNL     1      -0.374  13.691  21.043  0.00  0.00    +0.000 A 
ATOM      5  C   UNL     1      -0.510  13.477  22.422  0.00  0.00    +0.000 A 
ATOM      6  N   UNL     1      -0.523  12.223  22.955  0.00  0.00    +0.000 NA
ATOM      7  C   UNL     1      -0.406  11.152  22.130  0.00  0.00    +0.000 A 
ATOM      8  C   UNL     1      -0.265  11.274  20.748  0.00  0.00    +0.000 A 
ATOM      9  C   UNL     1      -0.288  12.567  20.192  0.00  0.00    +0.000 A 
ATOM     10  C   UNL     1      -0.161  12.757  18.693  0.00  0.00    +0.000 C 
ATOM     11  O   UNL     1      -0.545  14.058  18.251  0.00  0.00    +0.000 OA
ATOM     12  C   UNL     1      -0.136  10.050  19.875  0.00  0.00    +0.000 C 
ATOM     13  N   UNL     1       0.232   8.850  20.612  0.00  0.00    +0.000 N 
ATOM     14  C   UNL     1       1.267   8.076  20.110  0.00  0.00    +0.000 C 
ATOM     15  O   UNL     1       1.927   8.437  19.136  0.00  0.00    +0.000 OA
ATOM     16  N   UNL     1       1.462   6.860  20.731  0.00  0.00    +0.000 N 
ATOM     17  C   UNL     1      -0.548   8.637  21.830  0.00  0.00    +0.000 C 
ATOM     18  C   UNL     1      -0.357   9.802  22.802  0.00  0.00    +0.000 C 
ATOM     19  H   UNL     1       0.606   6.431  21.044  0.00  0.00    +0.000 HD
ENDROOT
BRANCH  16  20
ATOM     20  C   UNL     1       2.456   5.960  20.272  0.00  0.00    +0.000 A 
ATOM     21  C   UNL     1       2.391   4.631  20.699  0.00  0.00    +0.000 A 
ATOM     22  C   UNL     1       3.297   3.691  20.205  0.00  0.00    +0.000 A 
ATOM     23  C   UNL     1       4.310   4.083  19.327  0.00  0.00    +0.000 A 
ATOM     24  C   UNL     1       4.414   5.428  18.933  0.00  0.00    +0.000 A 
ATOM     25  C   UNL     1       3.476   6.360  19.397  0.00  0.00    +0.000 A 
BRANCH  24  26
ATOM     26  C   UNL     1       5.477   5.834  18.060  0.00  0.00    +0.000 C 
ATOM     27  N   UNL     1       6.327   6.185  17.353  0.00  0.00    +0.000 NA
ENDBRANCH  24  26
ENDBRANCH  16  20
BRANCH   5  28
ATOM     28  C   UNL     1      -0.688  14.615  23.418  0.00  0.00    +0.000 C 
BRANCH  28  29
ATOM     29  O   UNL     1      -1.814  14.325  24.247  0.00  0.00    +0.000 OA
BRANCH  29  30
ATOM     30  C   UNL     1      -3.056  14.325  23.676  0.00  0.00    +0.000 A 
ATOM     31  C   UNL     1      -3.840  13.218  24.018  0.00  0.00    +0.000 A 
ATOM     32  C   UNL     1      -5.143  13.083  23.537  0.00  0.00    +0.000 A 
ATOM     33  C   UNL     1      -5.682  14.068  22.714  0.00  0.00    +0.000 A 
ATOM     34  C   UNL     1      -4.912  15.180  22.374  0.00  0.00    +0.000 A 
ATOM     35  C   UNL     1      -3.599  15.310  22.851  0.00  0.00    +0.000 A 
ENDBRANCH  29  30
ENDBRANCH  28  29
ENDBRANCH   5  28
TORSDOF 5
ENDMDL
