MODEL 1
REMARK VINA RESULT:      -8.0      0.000      0.000
REMARK  Name = 
REMARK  8 active torsions:
REMARK  status: ('A' for Active; 'I' for Inactive)
REMARK    1  A    between atoms: C_1  and  O_2
REMARK    2  A    between atoms: O_2  and  C_3
REMARK    3  A    between atoms: C_8  and  N_9
REMARK    4  A    between atoms: C_10  and  C_12
REMARK    5  A    between atoms: C_12  and  S_13
REMARK    6  A    between atoms: S_13  and  C_14
REMARK    7  A    between atoms: N_24  and  C_25
REMARK    8  A    between atoms: C_25  and  C_26
REMARK                            x       y       z     vdW  Elec       q    Type
REMARK                         _______ _______ _______ _____ _____    ______ ____
ROOT
ATOM      1  C   UNL     1       3.210   6.400  18.084  0.00  0.00    +0.000 A 
ATOM      2  N   UNL     1       2.100   5.795  18.385  0.00  0.00    +0.000 NA
ATOM      3  C   UNL     1       2.178   4.410  18.637  0.00  0.00    +0.000 A 
ATOM      4  C   UNL     1       1.033   3.610  18.613  0.00  0.00    +0.000 A 
ATOM      5  C   UNL     1       1.120   2.229  18.848  0.00  0.00    +0.000 A 
ATOM      6  C   UNL     1       2.346   1.635  19.149  0.00  0.00    +0.000 A 
ATOM      7  C   UNL     1       3.493   2.422  19.191  0.00  0.00    +0.000 A 
ATOM      8  C   UNL     1       3.395   3.789  18.909  0.00  0.00    +0.000 A 
ATOM      9  C   UNL     1       4.603   4.604  18.766  0.00  0.00    +0.000 A 
ATOM     10  O   UNL     1       5.652   4.233  19.283  0.00  0.00    +0.000 OA
ATOM     11  N   UNL     1       4.441   5.778  18.048  0.00  0.00    +0.000 N 
ENDROOT
BRANCH   1  12
ATOM     12  S   UNL     1       3.222   8.126  17.755  0.00  0.00    +0.000 S 
BRANCH  12  13
ATOM     13  C   UNL     1       1.475   8.549  17.663  0.00  0.00    +0.000 C 
BRANCH  13  15
ATOM     14  N   UNL     1       0.132   9.842  19.271  0.00  0.00    +0.000 N 
ATOM     15  C   UNL     1       1.226   9.857  18.412  0.00  0.00    +0.000 C 
ATOM     16  O   UNL     1       1.966  10.820  18.211  0.00  0.00    +0.000 OA
ATOM     17  H   UNL     1      -0.280   8.944  19.503  0.00  0.00    +0.000 HD
BRANCH  14  23
ATOM     18  C   UNL     1      -0.245  10.949  21.421  0.00  0.00    +0.000 A 
ATOM     19  C   UNL     1      -0.793  12.005  22.167  0.00  0.00    +0.000 A 
ATOM     20  C   UNL     1      -1.427  13.071  21.532  0.00  0.00    +0.000 A 
ATOM     21  C   UNL     1      -1.538  13.079  20.148  0.00  0.00    +0.000 A 
ATOM     22  C   UNL     1      -1.030  12.017  19.402  0.00  0.00    +0.000 A 
ATOM     23  C   UNL     1      -0.380  10.942  20.014  0.00  0.00    +0.000 A 
BRANCH  18  25
ATOM     24  C   UNL     1      -0.039   9.507  23.290  0.00  0.00    +0.000 C 
ATOM     25  O   UNL     1       0.437   9.899  21.999  0.00  0.00    +0.000 OA
ENDBRANCH  18  25
ENDBRANCH  14  23
ENDBRANCH  13  15
ENDBRANCH  12  13
ENDBRANCH   1  12
BRANCH  11  26
ATOM     26  C   UNL     1       5.640   6.292  17.359  0.00  0.00    +0.000 C 
BRANCH  26  27
ATOM     27  C   UNL     1       5.744   5.855  15.877  0.00  0.00    +0.000 C 
ATOM     28  C   UNL     1       5.178   4.492  15.501  0.00  0.00    +0.000 C 
ATOM     29  C   UNL     1       5.942   4.164  14.242  0.00  0.00    +0.000 C 
ATOM     30  C   UNL     1       7.311   4.727  14.556  0.00  0.00    +0.000 C 
ATOM     31  O   UNL     1       7.111   5.859  15.418  0.00  0.00    +0.000 OA
ENDBRANCH  26  27
ENDBRANCH  11  26
TORSDOF 7
ENDMDL
MODEL 2
REMARK VINA RESULT:      -7.9      0.919      1.696
REMARK  Name = 
REMARK  8 active torsions:
REMARK  status: ('A' for Active; 'I' for Inactive)
REMARK    1  A    between atoms: C_1  and  O_2
REMARK    2  A    between atoms: O_2  and  C_3
REMARK    3  A    between atoms: C_8  and  N_9
REMARK    4  A    between atoms: C_10  and  C_12
REMARK    5  A    between atoms: C_12  and  S_13
REMARK    6  A    between atoms: S_13  and  C_14
REMARK    7  A    between atoms: N_24  and  C_25
REMARK    8  A    between atoms: C_25  and  C_26
REMARK                            x       y       z     vdW  Elec       q    Type
REMARK                         _______ _______ _______ _____ _____    ______ ____
ROOT
ATOM      1  C   UNL     1       3.237   6.481  18.078  0.00  0.00    +0.000 A 
ATOM      2  N   UNL     1       2.147   5.834  18.365  0.00  0.00    +0.000 NA
ATOM      3  C   UNL     1       2.273   4.451  18.610  0.00  0.00    +0.000 A 
ATOM      4  C   UNL     1       1.158   3.610  18.570  0.00  0.00    +0.000 A 
ATOM      5  C   UNL     1       1.293   2.232  18.797  0.00  0.00    +0.000 A 
ATOM      6  C   UNL     1       2.537   1.681  19.107  0.00  0.00    +0.000 A 
ATOM      7  C   UNL     1       3.654   2.508  19.165  0.00  0.00    +0.000 A 
ATOM      8  C   UNL     1       3.509   3.873  18.889  0.00  0.00    +0.000 A 
ATOM      9  C   UNL     1       4.688   4.732  18.764  0.00  0.00    +0.000 A 
ATOM     10  O   UNL     1       5.745   4.396  19.288  0.00  0.00    +0.000 OA
ATOM     11  N   UNL     1       4.490   5.904  18.050  0.00  0.00    +0.000 N 
ENDROOT
BRANCH   1  12
ATOM     12  S   UNL     1       3.189   8.208  17.760  0.00  0.00    +0.000 S 
BRANCH  12  13
ATOM     13  C   UNL     1       1.429   8.582  17.729  0.00  0.00    +0.000 C 
BRANCH  13  15
ATOM     14  N   UNL     1       0.052   9.852  19.325  0.00  0.00    +0.000 N 
ATOM     15  C   UNL     1       1.168   9.876  18.496  0.00  0.00    +0.000 C 
ATOM     16  O   UNL     1       1.919  10.838  18.334  0.00  0.00    +0.000 OA
ATOM     17  H   UNL     1      -0.371   8.952  19.529  0.00  0.00    +0.000 HD
BRANCH  14  23
ATOM     18  C   UNL     1      -1.518  11.720  19.526  0.00  0.00    +0.000 A 
ATOM     19  C   UNL     1      -2.007  12.828  20.238  0.00  0.00    +0.000 A 
ATOM     20  C   UNL     1      -1.509  13.138  21.501  0.00  0.00    +0.000 A 
ATOM     21  C   UNL     1      -0.502  12.358  22.054  0.00  0.00    +0.000 A 
ATOM     22  C   UNL     1       0.016  11.280  21.339  0.00  0.00    +0.000 A 
ATOM     23  C   UNL     1      -0.474  10.940  20.075  0.00  0.00    +0.000 A 
BRANCH  18  25
ATOM     24  C   UNL     1      -3.433  11.462  18.156  0.00  0.00    +0.000 C 
ATOM     25  O   UNL     1      -2.014  11.340  18.298  0.00  0.00    +0.000 OA
ENDBRANCH  18  25
ENDBRANCH  14  23
ENDBRANCH  13  15
ENDBRANCH  12  13
ENDBRANCH   1  12
BRANCH  11  26
ATOM     26  C   UNL     1       5.676   6.466  17.377  0.00  0.00    +0.000 C 
BRANCH  26  27
ATOM     27  C   UNL     1       5.822   6.025  15.899  0.00  0.00    +0.000 C 
ATOM     28  C   UNL     1       5.096   4.758  15.465  0.00  0.00    +0.000 C 
ATOM     29  C   UNL     1       5.894   4.330  14.257  0.00  0.00    +0.000 C 
ATOM     30  C   UNL     1       7.302   4.691  14.674  0.00  0.00    +0.000 C 
ATOM     31  O   UNL     1       7.205   5.836  15.536  0.00  0.00    +0.000 OA
ENDBRANCH  26  27
ENDBRANCH  11  26
TORSDOF 7
ENDMDL
MODEL 3
REMARK VINA RESULT:      -7.8      1.527      2.118
REMARK  Name = 
REMARK  8 active torsions:
REMARK  status: ('A' for Active; 'I' for Inactive)
REMARK    1  A    between atoms: C_1  and  O_2
REMARK    2  A    between atoms: O_2  and  C_3
REMARK    3  A    between atoms: C_8  and  N_9
REMARK    4  A    between atoms: C_10  and  C_12
REMARK    5  A    between atoms: C_12  and  S_13
REMARK    6  A    between atoms: S_13  and  C_14
REMARK    7  A    between atoms: N_24  and  C_25
REMARK    8  A    between atoms: C_25  and  C_26
REMARK                            x       y       z     vdW  Elec       q    Type
REMARK                         _______ _______ _______ _____ _____    ______ ____
ROOT
ATOM      1  C   UNL     1       3.113   6.480  18.095  0.00  0.00    +0.000 A 
ATOM      2  N   UNL     1       2.072   5.763  18.396  0.00  0.00    +0.000 NA
ATOM      3  C   UNL     1       2.295   4.395  18.652  0.00  0.00    +0.000 A 
ATOM      4  C   UNL     1       1.240   3.479  18.629  0.00  0.00    +0.000 A 
ATOM      5  C   UNL     1       1.471   2.115  18.868  0.00  0.00    +0.000 A 
ATOM      6  C   UNL     1       2.752   1.654  19.171  0.00  0.00    +0.000 A 
ATOM      7  C   UNL     1       3.810   2.557  19.213  0.00  0.00    +0.000 A 
ATOM      8  C   UNL     1       3.570   3.906  18.926  0.00  0.00    +0.000 A 
ATOM      9  C   UNL     1       4.686   4.842  18.783  0.00  0.00    +0.000 A 
ATOM     10  O   UNL     1       5.767   4.584  19.302  0.00  0.00    +0.000 OA
ATOM     11  N   UNL     1       4.402   5.991  18.061  0.00  0.00    +0.000 N 
ENDROOT
BRANCH   1  12
ATOM     12  S   UNL     1       2.944   8.197  17.761  0.00  0.00    +0.000 S 
BRANCH  12  13
ATOM     13  C   UNL     1       1.918   8.791  19.116  0.00  0.00    +0.000 C 
BRANCH  13  15
ATOM     14  N   UNL     1      -0.405   9.419  18.602  0.00  0.00    +0.000 N 
ATOM     15  C   UNL     1       0.925   9.824  18.590  0.00  0.00    +0.000 C 
ATOM     16  O   UNL     1       1.339  10.910  18.185  0.00  0.00    +0.000 OA
ATOM     17  H   UNL     1      -0.646   8.591  19.137  0.00  0.00    +0.000 HD
BRANCH  14  23
ATOM     18  C   UNL     1      -2.112  11.153  18.874  0.00  0.00    +0.000 A 
ATOM     19  C   UNL     1      -3.243  11.834  18.395  0.00  0.00    +0.000 A 
ATOM     20  C   UNL     1      -3.758  11.555  17.130  0.00  0.00    +0.000 A 
ATOM     21  C   UNL     1      -3.160  10.579  16.344  0.00  0.00    +0.000 A 
ATOM     22  C   UNL     1      -2.061   9.872  16.828  0.00  0.00    +0.000 A 
ATOM     23  C   UNL     1      -1.518  10.140  18.087  0.00  0.00    +0.000 A 
BRANCH  18  25
ATOM     24  C   UNL     1      -1.019  12.757  20.233  0.00  0.00    +0.000 C 
ATOM     25  O   UNL     1      -1.533  11.429  20.095  0.00  0.00    +0.000 OA
ENDBRANCH  18  25
ENDBRANCH  14  23
ENDBRANCH  13  15
ENDBRANCH  12  13
ENDBRANCH   1  12
BRANCH  11  26
ATOM     26  C   UNL     1       5.542   6.626  17.372  0.00  0.00    +0.000 C 
BRANCH  26  27
ATOM     27  C   UNL     1       5.761   6.115  15.927  0.00  0.00    +0.000 C 
ATOM     28  C   UNL     1       5.030   4.846  15.508  0.00  0.00    +0.000 C 
ATOM     29  C   UNL     1       5.885   4.345  14.369  0.00  0.00    +0.000 C 
ATOM     30  C   UNL     1       7.276   4.694  14.851  0.00  0.00    +0.000 C 
ATOM     31  O   UNL     1       7.158   5.879  15.654  0.00  0.00    +0.000 OA
ENDBRANCH  26  27
ENDBRANCH  11  26
TORSDOF 7
ENDMDL
MODEL 4
REMARK VINA RESULT:      -7.8      1.367      1.816
REMARK  Name = 
REMARK  8 active torsions:
REMARK  status: ('A' for Active; 'I' for Inactive)
REMARK    1  A    between atoms: C_1  and  O_2
REMARK    2  A    between atoms: O_2  and  C_3
REMARK    3  A    between atoms: C_8  and  N_9
REMARK    4  A    between atoms: C_10  and  C_12
REMARK    5  A    between atoms: C_12  and  S_13
REMARK    6  A    between atoms: S_13  and  C_14
REMARK    7  A    between atoms: N_24  and  C_25
REMARK    8  A    between atoms: C_25  and  C_26
REMARK                            x       y       z     vdW  Elec       q    Type
REMARK                         _______ _______ _______ _____ _____    ______ ____
ROOT
ATOM      1  C   UNL     1       3.344   6.354  18.105  0.00  0.00    +0.000 A 
ATOM      2  N   UNL     1       2.231   5.758  18.410  0.00  0.00    +0.000 NA
ATOM      3  C   UNL     1       2.300   4.374  18.668  0.00  0.00    +0.000 A 
ATOM      4  C   UNL     1       1.148   3.582  18.649  0.00  0.00    +0.000 A 
ATOM      5  C   UNL     1       1.226   2.201  18.889  0.00  0.00    +0.000 A 
ATOM      6  C   UNL     1       2.448   1.600  19.192  0.00  0.00    +0.000 A 
ATOM      7  C   UNL     1       3.601   2.379  19.229  0.00  0.00    +0.000 A 
ATOM      8  C   UNL     1       3.512   3.746  18.941  0.00  0.00    +0.000 A 
ATOM      9  C   UNL     1       4.726   4.551  18.794  0.00  0.00    +0.000 A 
ATOM     10  O   UNL     1       5.772   4.175  19.311  0.00  0.00    +0.000 OA
ATOM     11  N   UNL     1       4.571   5.723  18.071  0.00  0.00    +0.000 N 
ENDROOT
BRANCH   1  12
ATOM     12  S   UNL     1       3.368   8.079  17.769  0.00  0.00    +0.000 S 
BRANCH  12  13
ATOM     13  C   UNL     1       1.628   8.493  17.571  0.00  0.00    +0.000 C 
BRANCH  13  15
ATOM     14  N   UNL     1       0.776  10.737  18.116  0.00  0.00    +0.000 N 
ATOM     15  C   UNL     1       1.224   9.523  18.624  0.00  0.00    +0.000 C 
ATOM     16  O   UNL     1       1.328   9.240  19.817  0.00  0.00    +0.000 OA
ATOM     17  H   UNL     1       0.547  10.786  17.129  0.00  0.00    +0.000 HD
BRANCH  14  23
ATOM     18  C   UNL     1      -0.917  12.096  19.247  0.00  0.00    +0.000 A 
ATOM     19  C   UNL     1      -1.277  13.262  19.942  0.00  0.00    +0.000 A 
ATOM     20  C   UNL     1      -0.314  14.202  20.302  0.00  0.00    +0.000 A 
ATOM     21  C   UNL     1       1.013  13.995  19.952  0.00  0.00    +0.000 A 
ATOM     22  C   UNL     1       1.374  12.859  19.229  0.00  0.00    +0.000 A 
ATOM     23  C   UNL     1       0.430  11.896  18.865  0.00  0.00    +0.000 A 
BRANCH  18  25
ATOM     24  C   UNL     1      -2.791  11.490  17.931  0.00  0.00    +0.000 C 
ATOM     25  O   UNL     1      -1.823  11.112  18.915  0.00  0.00    +0.000 OA
ENDBRANCH  18  25
ENDBRANCH  14  23
ENDBRANCH  13  15
ENDBRANCH  12  13
ENDBRANCH   1  12
BRANCH  11  26
ATOM     26  C   UNL     1       5.773   6.226  17.379  0.00  0.00    +0.000 C 
BRANCH  26  27
ATOM     27  C   UNL     1       5.828   5.856  15.876  0.00  0.00    +0.000 C 
ATOM     28  C   UNL     1       5.191   4.541  15.448  0.00  0.00    +0.000 C 
ATOM     29  C   UNL     1       5.915   4.238  14.159  0.00  0.00    +0.000 C 
ATOM     30  C   UNL     1       7.315   4.721  14.471  0.00  0.00    +0.000 C 
ATOM     31  O   UNL     1       7.185   5.818  15.389  0.00  0.00    +0.000 OA
ENDBRANCH  26  27
ENDBRANCH  11  26
TORSDOF 7
ENDMDL
MODEL 5
REMARK VINA RESULT:      -7.8      1.126      1.752
REMARK  Name = 
REMARK  8 active torsions:
REMARK  status: ('A' for Active; 'I' for Inactive)
REMARK    1  A    between atoms: C_1  and  O_2
REMARK    2  A    between atoms: O_2  and  C_3
REMARK    3  A    between atoms: C_8  and  N_9
REMARK    4  A    between atoms: C_10  and  C_12
REMARK    5  A    between atoms: C_12  and  S_13
REMARK    6  A    between atoms: S_13  and  C_14
REMARK    7  A    between atoms: N_24  and  C_25
REMARK    8  A    between atoms: C_25  and  C_26
REMARK                            x       y       z     vdW  Elec       q    Type
REMARK                         _______ _______ _______ _____ _____    ______ ____
ROOT
ATOM      1  C   UNL     1       3.326   6.417  18.331  0.00  0.00    +0.000 A 
ATOM      2  N   UNL     1       2.210   5.810  18.604  0.00  0.00    +0.000 NA
ATOM      3  C   UNL     1       2.261   4.406  18.723  0.00  0.00    +0.000 A 
ATOM      4  C   UNL     1       1.097   3.637  18.655  0.00  0.00    +0.000 A 
ATOM      5  C   UNL     1       1.157   2.238  18.757  0.00  0.00    +0.000 A 
ATOM      6  C   UNL     1       2.375   1.593  18.968  0.00  0.00    +0.000 A 
ATOM      7  C   UNL     1       3.541   2.347  19.053  0.00  0.00    +0.000 A 
ATOM      8  C   UNL     1       3.469   3.736  18.902  0.00  0.00    +0.000 A 
ATOM      9  C   UNL     1       4.692   4.535  18.805  0.00  0.00    +0.000 A 
ATOM     10  O   UNL     1       5.744   4.095  19.256  0.00  0.00    +0.000 OA
ATOM     11  N   UNL     1       4.540   5.775  18.204  0.00  0.00    +0.000 N 
ENDROOT
BRANCH   1  12
ATOM     12  S   UNL     1       3.371   8.165  18.165  0.00  0.00    +0.000 S 
BRANCH  12  13
ATOM     13  C   UNL     1       1.817   8.551  17.342  0.00  0.00    +0.000 C 
BRANCH  13  15
ATOM     14  N   UNL     1       1.304   9.239  19.649  0.00  0.00    +0.000 N 
ATOM     15  C   UNL     1       0.873   9.237  18.326  0.00  0.00    +0.000 C 
ATOM     16  O   UNL     1      -0.183   9.717  17.917  0.00  0.00    +0.000 OA
ATOM     17  H   UNL     1       2.272   8.993  19.835  0.00  0.00    +0.000 HD
BRANCH  14  23
ATOM     18  C   UNL     1       0.455  11.115  20.971  0.00  0.00    +0.000 A 
ATOM     19  C   UNL     1      -0.209  11.600  22.110  0.00  0.00    +0.000 A 
ATOM     20  C   UNL     1      -0.785  10.722  23.025  0.00  0.00    +0.000 A 
ATOM     21  C   UNL     1      -0.683   9.353  22.822  0.00  0.00    +0.000 A 
ATOM     22  C   UNL     1       0.008   8.862  21.715  0.00  0.00    +0.000 A 
ATOM     23  C   UNL     1       0.584   9.721  20.777  0.00  0.00    +0.000 A 
BRANCH  18  25
ATOM     24  C   UNL     1       1.415  13.226  20.483  0.00  0.00    +0.000 C 
ATOM     25  O   UNL     1       0.995  11.943  20.009  0.00  0.00    +0.000 OA
ENDBRANCH  18  25
ENDBRANCH  14  23
ENDBRANCH  13  15
ENDBRANCH  12  13
ENDBRANCH   1  12
BRANCH  11  26
ATOM     26  C   UNL     1       5.734   6.326  17.535  0.00  0.00    +0.000 C 
BRANCH  26  27
ATOM     27  C   UNL     1       5.827   5.968  16.031  0.00  0.00    +0.000 C 
ATOM     28  C   UNL     1       5.104   4.714  15.556  0.00  0.00    +0.000 C 
ATOM     29  C   UNL     1       5.859   4.366  14.297  0.00  0.00    +0.000 C 
ATOM     30  C   UNL     1       7.278   4.728  14.677  0.00  0.00    +0.000 C 
ATOM     31  O   UNL     1       7.197   5.823  15.604  0.00  0.00    +0.000 OA
ENDBRANCH  26  27
ENDBRANCH  11  26
TORSDOF 7
ENDMDL
MODEL 6
REMARK VINA RESULT:      -7.8      1.322      1.996
REMARK  Name = 
REMARK  8 active torsions:
REMARK  status: ('A' for Active; 'I' for Inactive)
REMARK    1  A    between atoms: C_1  and  O_2
REMARK    2  A    between atoms: O_2  and  C_3
REMARK    3  A    between atoms: C_8  and  N_9
REMARK    4  A    between atoms: C_10  and  C_12
REMARK    5  A    between atoms: C_12  and  S_13
REMARK    6  A    between atoms: S_13  and  C_14
REMARK    7  A    between atoms: N_24  and  C_25
REMARK    8  A    between atoms: C_25  and  C_26
REMARK                            x       y       z     vdW  Elec       q    Type
REMARK                         _______ _______ _______ _____ _____    ______ ____
ROOT
ATOM      1  C   UNL     1       3.294   6.442  18.141  0.00  0.00    +0.000 A 
ATOM      2  N   UNL     1       2.204   5.806  18.451  0.00  0.00    +0.000 NA
ATOM      3  C   UNL     1       2.319   4.420  18.680  0.00  0.00    +0.000 A 
ATOM      4  C   UNL     1       1.192   3.594  18.662  0.00  0.00    +0.000 A 
ATOM      5  C   UNL     1       1.315   2.212  18.873  0.00  0.00    +0.000 A 
ATOM      6  C   UNL     1       2.559   1.642  19.145  0.00  0.00    +0.000 A 
ATOM      7  C   UNL     1       3.688   2.455  19.181  0.00  0.00    +0.000 A 
ATOM      8  C   UNL     1       3.554   3.824  18.922  0.00  0.00    +0.000 A 
ATOM      9  C   UNL     1       4.740   4.669  18.773  0.00  0.00    +0.000 A 
ATOM     10  O   UNL     1       5.806   4.315  19.266  0.00  0.00    +0.000 OA
ATOM     11  N   UNL     1       4.538   5.850  18.075  0.00  0.00    +0.000 N 
ENDROOT
BRANCH   1  12
ATOM     12  S   UNL     1       3.261   8.173  17.840  0.00  0.00    +0.000 S 
BRANCH  12  13
ATOM     13  C   UNL     1       1.509   8.530  17.628  0.00  0.00    +0.000 C 
BRANCH  13  15
ATOM     14  N   UNL     1       0.565  10.752  18.104  0.00  0.00    +0.000 N 
ATOM     15  C   UNL     1       1.074   9.578  18.649  0.00  0.00    +0.000 C 
ATOM     16  O   UNL     1       1.206   9.345  19.850  0.00  0.00    +0.000 OA
ATOM     17  H   UNL     1       0.320  10.754  17.119  0.00  0.00    +0.000 HD
BRANCH  14  23
ATOM     18  C   UNL     1       1.114  12.964  18.999  0.00  0.00    +0.000 A 
ATOM     19  C   UNL     1       0.755  14.099  19.744  0.00  0.00    +0.000 A 
ATOM     20  C   UNL     1      -0.531  14.231  20.264  0.00  0.00    +0.000 A 
ATOM     21  C   UNL     1      -1.461  13.220  20.064  0.00  0.00    +0.000 A 
ATOM     22  C   UNL     1      -1.102  12.073  19.357  0.00  0.00    +0.000 A 
ATOM     23  C   UNL     1       0.176  11.921  18.816  0.00  0.00    +0.000 A 
BRANCH  18  25
ATOM     24  C   UNL     1       3.116  14.015  18.293  0.00  0.00    +0.000 C 
ATOM     25  O   UNL     1       2.355  12.810  18.419  0.00  0.00    +0.000 OA
ENDBRANCH  18  25
ENDBRANCH  14  23
ENDBRANCH  13  15
ENDBRANCH  12  13
ENDBRANCH   1  12
BRANCH  11  26
ATOM     26  C   UNL     1       5.714   6.403  17.376  0.00  0.00    +0.000 C 
BRANCH  26  27
ATOM     27  C   UNL     1       5.817   5.970  15.892  0.00  0.00    +0.000 C 
ATOM     28  C   UNL     1       5.131   4.673  15.485  0.00  0.00    +0.000 C 
ATOM     29  C   UNL     1       5.895   4.281  14.244  0.00  0.00    +0.000 C 
ATOM     30  C   UNL     1       7.303   4.703  14.604  0.00  0.00    +0.000 C 
ATOM     31  O   UNL     1       7.191   5.842  15.472  0.00  0.00    +0.000 OA
ENDBRANCH  26  27
ENDBRANCH  11  26
TORSDOF 7
ENDMDL
MODEL 7
REMARK VINA RESULT:      -7.7      2.080      8.972
REMARK  Name = 
REMARK  8 active torsions:
REMARK  status: ('A' for Active; 'I' for Inactive)
REMARK    1  A    between atoms: C_1  and  O_2
REMARK    2  A    between atoms: O_2  and  C_3
REMARK    3  A    between atoms: C_8  and  N_9
REMARK    4  A    between atoms: C_10  and  C_12
REMARK    5  A    between atoms: C_12  and  S_13
REMARK    6  A    between atoms: S_13  and  C_14
REMARK    7  A    between atoms: N_24  and  C_25
REMARK    8  A    between atoms: C_25  and  C_26
REMARK                            x       y       z     vdW  Elec       q    Type
REMARK                         _______ _______ _______ _____ _____    ______ ____
ROOT
ATOM      1  C   UNL     1       0.307  10.109  18.238  0.00  0.00    +0.000 A 
ATOM      2  N   UNL     1      -0.708   9.687  17.545  0.00  0.00    +0.000 NA
ATOM      3  C   UNL     1      -1.961  10.262  17.837  0.00  0.00    +0.000 A 
ATOM      4  C   UNL     1      -3.147   9.648  17.426  0.00  0.00    +0.000 A 
ATOM      5  C   UNL     1      -4.392  10.218  17.735  0.00  0.00    +0.000 A 
ATOM      6  C   UNL     1      -4.469  11.428  18.424  0.00  0.00    +0.000 A 
ATOM      7  C   UNL     1      -3.296  12.058  18.828  0.00  0.00    +0.000 A 
ATOM      8  C   UNL     1      -2.065  11.454  18.552  0.00  0.00    +0.000 A 
ATOM      9  C   UNL     1      -0.830  11.997  19.119  0.00  0.00    +0.000 A 
ATOM     10  O   UNL     1      -0.787  13.170  19.474  0.00  0.00    +0.000 OA
ATOM     11  N   UNL     1       0.229  11.105  19.189  0.00  0.00    +0.000 N 
ENDROOT
BRANCH   1  12
ATOM     12  S   UNL     1       1.913   9.458  17.949  0.00  0.00    +0.000 S 
BRANCH  12  13
ATOM     13  C   UNL     1       1.983   8.016  19.024  0.00  0.00    +0.000 C 
BRANCH  13  15
ATOM     14  N   UNL     1       3.950   7.034  17.917  0.00  0.00    +0.000 N 
ATOM     15  C   UNL     1       2.618   6.849  18.273  0.00  0.00    +0.000 C 
ATOM     16  O   UNL     1       1.941   5.853  18.018  0.00  0.00    +0.000 OA
ATOM     17  H   UNL     1       4.456   7.800  18.349  0.00  0.00    +0.000 HD
BRANCH  14  23
ATOM     18  C   UNL     1       5.300   5.000  17.738  0.00  0.00    +0.000 A 
ATOM     19  C   UNL     1       6.135   4.155  16.989  0.00  0.00    +0.000 A 
ATOM     20  C   UNL     1       6.389   4.417  15.644  0.00  0.00    +0.000 A 
ATOM     21  C   UNL     1       5.830   5.536  15.044  0.00  0.00    +0.000 A 
ATOM     22  C   UNL     1       5.031   6.401  15.790  0.00  0.00    +0.000 A 
ATOM     23  C   UNL     1       4.751   6.156  17.136  0.00  0.00    +0.000 A 
BRANCH  18  25
ATOM     24  C   UNL     1       4.600   3.405  19.344  0.00  0.00    +0.000 C 
ATOM     25  O   UNL     1       4.975   4.756  19.056  0.00  0.00    +0.000 OA
ENDBRANCH  18  25
ENDBRANCH  14  23
ENDBRANCH  13  15
ENDBRANCH  12  13
ENDBRANCH   1  12
BRANCH  11  26
ATOM     26  C   UNL     1       1.223  11.354  20.250  0.00  0.00    +0.000 C 
BRANCH  26  27
ATOM     27  C   UNL     1       0.817  10.783  21.632  0.00  0.00    +0.000 C 
ATOM     28  C   UNL     1       0.129   9.425  21.661  0.00  0.00    +0.000 C 
ATOM     29  C   UNL     1      -0.614   9.470  22.974  0.00  0.00    +0.000 C 
ATOM     30  C   UNL     1      -1.054  10.916  23.029  0.00  0.00    +0.000 C 
ATOM     31  O   UNL     1      -0.054  11.687  22.343  0.00  0.00    +0.000 OA
ENDBRANCH  26  27
ENDBRANCH  11  26
TORSDOF 7
ENDMDL
MODEL 8
REMARK VINA RESULT:      -7.7      1.113      1.297
REMARK  Name = 
REMARK  8 active torsions:
REMARK  status: ('A' for Active; 'I' for Inactive)
REMARK    1  A    between atoms: C_1  and  O_2
REMARK    2  A    between atoms: O_2  and  C_3
REMARK    3  A    between atoms: C_8  and  N_9
REMARK    4  A    between atoms: C_10  and  C_12
REMARK    5  A    between atoms: C_12  and  S_13
REMARK    6  A    between atoms: S_13  and  C_14
REMARK    7  A    between atoms: N_24  and  C_25
REMARK    8  A    between atoms: C_25  and  C_26
REMARK                            x       y       z     vdW  Elec       q    Type
REMARK                         _______ _______ _______ _____ _____    ______ ____
ROOT
ATOM      1  C   UNL     1       3.077   6.448  18.107  0.00  0.00    +0.000 A 
ATOM      2  N   UNL     1       2.107   5.615  18.337  0.00  0.00    +0.000 NA
ATOM      3  C   UNL     1       2.458   4.261  18.509  0.00  0.00    +0.000 A 
ATOM      4  C   UNL     1       1.498   3.251  18.402  0.00  0.00    +0.000 A 
ATOM      5  C   UNL     1       1.858   1.903  18.558  0.00  0.00    +0.000 A 
ATOM      6  C   UNL     1       3.172   1.549  18.862  0.00  0.00    +0.000 A 
ATOM      7  C   UNL     1       4.136   2.545  18.987  0.00  0.00    +0.000 A 
ATOM      8  C   UNL     1       3.769   3.880  18.783  0.00  0.00    +0.000 A 
ATOM      9  C   UNL     1       4.791   4.927  18.727  0.00  0.00    +0.000 A 
ATOM     10  O   UNL     1       5.882   4.742  19.254  0.00  0.00    +0.000 OA
ATOM     11  N   UNL     1       4.408   6.089  18.074  0.00  0.00    +0.000 N 
ENDROOT
BRANCH   1  12
ATOM     12  S   UNL     1       2.747   8.159  17.881  0.00  0.00    +0.000 S 
BRANCH  12  13
ATOM     13  C   UNL     1       1.707   8.577  19.289  0.00  0.00    +0.000 C 
BRANCH  13  15
ATOM     14  N   UNL     1       1.060  10.880  19.871  0.00  0.00    +0.000 N 
ATOM     15  C   UNL     1       0.896   9.832  18.972  0.00  0.00    +0.000 C 
ATOM     16  O   UNL     1       0.159   9.843  17.987  0.00  0.00    +0.000 OA
ATOM     17  H   UNL     1       1.836  10.830  20.525  0.00  0.00    +0.000 HD
BRANCH  14  23
ATOM     18  C   UNL     1      -0.744  12.291  20.734  0.00  0.00    +0.000 A 
ATOM     19  C   UNL     1      -1.471  13.492  20.702  0.00  0.00    +0.000 A 
ATOM     20  C   UNL     1      -1.086  14.535  19.862  0.00  0.00    +0.000 A 
ATOM     21  C   UNL     1       0.015  14.378  19.032  0.00  0.00    +0.000 A 
ATOM     22  C   UNL     1       0.720  13.176  19.029  0.00  0.00    +0.000 A 
ATOM     23  C   UNL     1       0.361  12.119  19.870  0.00  0.00    +0.000 A 
BRANCH  18  25
ATOM     24  C   UNL     1      -1.304  11.634  22.940  0.00  0.00    +0.000 C 
ATOM     25  O   UNL     1      -1.052  11.251  21.585  0.00  0.00    +0.000 OA
ENDBRANCH  18  25
ENDBRANCH  14  23
ENDBRANCH  13  15
ENDBRANCH  12  13
ENDBRANCH   1  12
BRANCH  11  26
ATOM     26  C   UNL     1       5.492   6.876  17.456  0.00  0.00    +0.000 C 
BRANCH  26  27
ATOM     27  C   UNL     1       5.926   6.354  16.063  0.00  0.00    +0.000 C 
ATOM     28  C   UNL     1       5.066   5.279  15.412  0.00  0.00    +0.000 C 
ATOM     29  C   UNL     1       6.036   4.627  14.458  0.00  0.00    +0.000 C 
ATOM     30  C   UNL     1       7.322   4.661  15.255  0.00  0.00    +0.000 C 
ATOM     31  O   UNL     1       7.269   5.830  16.088  0.00  0.00    +0.000 OA
ENDBRANCH  26  27
ENDBRANCH  11  26
TORSDOF 7
ENDMDL
MODEL 9
REMARK VINA RESULT:      -7.7      2.334      8.949
REMARK  Name = 
REMARK  8 active torsions:
REMARK  status: ('A' for Active; 'I' for Inactive)
REMARK    1  A    between atoms: C_1  and  O_2
REMARK    2  A    between atoms: O_2  and  C_3
REMARK    3  A    between atoms: C_8  and  N_9
REMARK    4  A    between atoms: C_10  and  C_12
REMARK    5  A    between atoms: C_12  and  S_13
REMARK    6  A    between atoms: S_13  and  C_14
REMARK    7  A    between atoms: N_24  and  C_25
REMARK    8  A    between atoms: C_25  and  C_26
REMARK                            x       y       z     vdW  Elec       q    Type
REMARK                         _______ _______ _______ _____ _____    ______ ____
ROOT
ATOM      1  C   UNL     1       0.216  10.283  18.243  0.00  0.00    +0.000 A 
ATOM      2  N   UNL     1      -0.780   9.781  17.578  0.00  0.00    +0.000 NA
ATOM      3  C   UNL     1      -2.055  10.327  17.831  0.00  0.00    +0.000 A 
ATOM      4  C   UNL     1      -3.215   9.644  17.458  0.00  0.00    +0.000 A 
ATOM      5  C   UNL     1      -4.482  10.185  17.729  0.00  0.00    +0.000 A 
ATOM      6  C   UNL     1      -4.606  11.433  18.340  0.00  0.00    +0.000 A 
ATOM      7  C   UNL     1      -3.459  12.131  18.704  0.00  0.00    +0.000 A 
ATOM      8  C   UNL     1      -2.205  11.556  18.469  0.00  0.00    +0.000 A 
ATOM      9  C   UNL     1      -0.993  12.180  19.002  0.00  0.00    +0.000 A 
ATOM     10  O   UNL     1      -0.995  13.374  19.282  0.00  0.00    +0.000 OA
ATOM     11  N   UNL     1       0.098  11.334  19.130  0.00  0.00    +0.000 N 
ENDROOT
BRANCH   1  12
ATOM     12  S   UNL     1       1.847   9.676  17.999  0.00  0.00    +0.000 S 
BRANCH  12  13
ATOM     13  C   UNL     1       1.986   8.347  19.205  0.00  0.00    +0.000 C 
BRANCH  13  15
ATOM     14  N   UNL     1       2.186   5.894  19.165  0.00  0.00    +0.000 N 
ATOM     15  C   UNL     1       2.497   7.083  18.516  0.00  0.00    +0.000 C 
ATOM     16  O   UNL     1       3.145   7.182  17.474  0.00  0.00    +0.000 OA
ATOM     17  H   UNL     1       1.486   5.921  19.900  0.00  0.00    +0.000 HD
BRANCH  14  23
ATOM     18  C   UNL     1       3.918   4.163  19.144  0.00  0.00    +0.000 A 
ATOM     19  C   UNL     1       4.366   2.895  18.741  0.00  0.00    +0.000 A 
ATOM     20  C   UNL     1       3.523   2.030  18.046  0.00  0.00    +0.000 A 
ATOM     21  C   UNL     1       2.234   2.434  17.729  0.00  0.00    +0.000 A 
ATOM     22  C   UNL     1       1.793   3.705  18.092  0.00  0.00    +0.000 A 
ATOM     23  C   UNL     1       2.614   4.587  18.799  0.00  0.00    +0.000 A 
BRANCH  18  25
ATOM     24  C   UNL     1       5.927   5.414  19.258  0.00  0.00    +0.000 C 
ATOM     25  O   UNL     1       4.694   5.034  19.878  0.00  0.00    +0.000 OA
ENDBRANCH  18  25
ENDBRANCH  14  23
ENDBRANCH  13  15
ENDBRANCH  12  13
ENDBRANCH   1  12
BRANCH  11  26
ATOM     26  C   UNL     1       1.079  11.687  20.174  0.00  0.00    +0.000 C 
BRANCH  26  27
ATOM     27  C   UNL     1       0.682  11.202  21.591  0.00  0.00    +0.000 C 
ATOM     28  C   UNL     1      -0.045   9.869  21.704  0.00  0.00    +0.000 C 
ATOM     29  C   UNL     1      -0.762  10.006  23.026  0.00  0.00    +0.000 C 
ATOM     30  C   UNL     1      -1.158  11.466  23.011  0.00  0.00    +0.000 C 
ATOM     31  O   UNL     1      -0.149  12.168  22.268  0.00  0.00    +0.000 OA
ENDBRANCH  26  27
ENDBRANCH  11  26
TORSDOF 7
ENDMDL
