MODEL 1
REMARK VINA RESULT:      -8.7      0.000      0.000
REMARK  Name = 
REMARK  7 active torsions:
REMARK  status: ('A' for Active; 'I' for Inactive)
REMARK    1  A    between atoms: C_4  and  C_5
REMARK    2  A    between atoms: C_5  and  N_6
REMARK    3  A    between atoms: N_6  and  C_7
REMARK    4  A    between atoms: N_6  and  C_21
REMARK    5  A    between atoms: C_7  and  C_8
REMARK    6  A    between atoms: C_11  and  O_12
REMARK    7  A    between atoms: O_12  and  C_13
REMARK                            x       y       z     vdW  Elec       q    Type
REMARK                         _______ _______ _______ _____ _____    ______ ____
ROOT
ATOM      1  N   UNL     1       4.346   5.141  18.180  0.00  0.00    +0.000 N 
ENDROOT
BRANCH   1   2
ATOM      2  C   UNL     1       5.622   5.695  18.308  0.00  0.00    +0.000 A 
ATOM      3  C   UNL     1       6.535   5.308  19.302  0.00  0.00    +0.000 A 
ATOM      4  C   UNL     1       7.802   5.893  19.415  0.00  0.00    +0.000 A 
ATOM      5  C   UNL     1       8.194   6.880  18.514  0.00  0.00    +0.000 A 
ATOM      6  C   UNL     1       7.327   7.266  17.508  0.00  0.00    +0.000 A 
ATOM      7  C   UNL     1       6.056   6.684  17.405  0.00  0.00    +0.000 A 
ENDBRANCH   1   2
BRANCH   1   8
ATOM      8  C   UNL     1       4.175   3.678  18.185  0.00  0.00    +0.000 C 
BRANCH   8  12
ATOM      9  C   UNL     1       1.108   2.874  21.063  0.00  0.00    +0.000 A 
ATOM     10  C   UNL     1       0.805   2.922  19.705  0.00  0.00    +0.000 A 
ATOM     11  C   UNL     1       1.831   3.056  18.774  0.00  0.00    +0.000 A 
ATOM     12  C   UNL     1       3.165   3.182  19.199  0.00  0.00    +0.000 A 
ATOM     13  C   UNL     1       3.468   2.980  20.548  0.00  0.00    +0.000 A 
ATOM     14  C   UNL     1       2.439   2.852  21.480  0.00  0.00    +0.000 A 
ENDBRANCH   8  12
ENDBRANCH   1   8
BRANCH   1  15
ATOM     15  C   UNL     1       3.364   5.917  17.387  0.00  0.00    +0.000 C 
BRANCH  15  16
ATOM     16  C   UNL     1       2.622   6.928  18.242  0.00  0.00    +0.000 A 
ATOM     17  C   UNL     1       2.241   8.167  17.702  0.00  0.00    +0.000 A 
ATOM     18  C   UNL     1       1.690   9.158  18.505  0.00  0.00    +0.000 A 
ATOM     19  C   UNL     1       1.409   8.870  19.850  0.00  0.00    +0.000 A 
ATOM     20  C   UNL     1       1.769   7.648  20.407  0.00  0.00    +0.000 A 
ATOM     21  C   UNL     1       2.370   6.675  19.603  0.00  0.00    +0.000 A 
BRANCH  19  22
ATOM     22  O   UNL     1       0.666   9.750  20.603  0.00  0.00    +0.000 OA
BRANCH  22  23
ATOM     23  C   UNL     1       0.175  10.845  19.910  0.00  0.00    +0.000 A 
ATOM     24  C   UNL     1      -1.017  10.816  19.171  0.00  0.00    +0.000 A 
ATOM     25  C   UNL     1      -1.392  11.900  18.389  0.00  0.00    +0.000 A 
ATOM     26  C   UNL     1      -0.617  13.055  18.395  0.00  0.00    +0.000 A 
ATOM     27  C   UNL     1       0.530  13.120  19.191  0.00  0.00    +0.000 A 
ATOM     28  C   UNL     1       0.930  12.016  19.946  0.00  0.00    +0.000 A 
ENDBRANCH  22  23
ENDBRANCH  19  22
ENDBRANCH  15  16
ENDBRANCH   1  15
TORSDOF 7
ENDMDL
MODEL 2
REMARK VINA RESULT:      -8.6      1.441      4.640
REMARK  Name = 
REMARK  7 active torsions:
REMARK  status: ('A' for Active; 'I' for Inactive)
REMARK    1  A    between atoms: C_4  and  C_5
REMARK    2  A    between atoms: C_5  and  N_6
REMARK    3  A    between atoms: N_6  and  C_7
REMARK    4  A    between atoms: N_6  and  C_21
REMARK    5  A    between atoms: C_7  and  C_8
REMARK    6  A    between atoms: C_11  and  O_12
REMARK    7  A    between atoms: O_12  and  C_13
REMARK                            x       y       z     vdW  Elec       q    Type
REMARK                         _______ _______ _______ _____ _____    ______ ____
ROOT
ATOM      1  N   UNL     1       2.945   5.713  18.310  0.00  0.00    +0.000 N 
ENDROOT
BRANCH   1   2
ATOM      2  C   UNL     1       2.358   4.465  18.535  0.00  0.00    +0.000 A 
ATOM      3  C   UNL     1       2.625   3.334  17.745  0.00  0.00    +0.000 A 
ATOM      4  C   UNL     1       2.009   2.100  17.985  0.00  0.00    +0.000 A 
ATOM      5  C   UNL     1       1.114   1.964  19.043  0.00  0.00    +0.000 A 
ATOM      6  C   UNL     1       0.850   3.053  19.855  0.00  0.00    +0.000 A 
ATOM      7  C   UNL     1       1.461   4.289  19.604  0.00  0.00    +0.000 A 
ENDBRANCH   1   2
BRANCH   1   8
ATOM      8  C   UNL     1       4.026   5.851  17.319  0.00  0.00    +0.000 C 
BRANCH   8  12
ATOM      9  C   UNL     1       8.084   6.496  18.522  0.00  0.00    +0.000 A 
ATOM     10  C   UNL     1       7.482   7.341  17.594  0.00  0.00    +0.000 A 
ATOM     11  C   UNL     1       6.126   7.198  17.310  0.00  0.00    +0.000 A 
ATOM     12  C   UNL     1       5.374   6.181  17.924  0.00  0.00    +0.000 A 
ATOM     13  C   UNL     1       5.953   5.443  18.960  0.00  0.00    +0.000 A 
ATOM     14  C   UNL     1       7.312   5.583  19.239  0.00  0.00    +0.000 A 
ENDBRANCH   8  12
ENDBRANCH   1   8
BRANCH   1  15
ATOM     15  C   UNL     1       2.985   6.642  19.463  0.00  0.00    +0.000 C 
BRANCH  15  16
ATOM     16  C   UNL     1       2.153   7.887  19.213  0.00  0.00    +0.000 A 
ATOM     17  C   UNL     1       2.258   8.573  17.993  0.00  0.00    +0.000 A 
ATOM     18  C   UNL     1       1.615   9.790  17.799  0.00  0.00    +0.000 A 
ATOM     19  C   UNL     1       0.761  10.278  18.800  0.00  0.00    +0.000 A 
ATOM     20  C   UNL     1       0.633   9.613  20.015  0.00  0.00    +0.000 A 
ATOM     21  C   UNL     1       1.324   8.416  20.220  0.00  0.00    +0.000 A 
BRANCH  19  22
ATOM     22  O   UNL     1      -0.053  11.358  18.546  0.00  0.00    +0.000 OA
BRANCH  22  23
ATOM     23  C   UNL     1      -1.365  11.043  18.234  0.00  0.00    +0.000 A 
ATOM     24  C   UNL     1      -1.719  10.027  17.333  0.00  0.00    +0.000 A 
ATOM     25  C   UNL     1      -3.044   9.844  16.957  0.00  0.00    +0.000 A 
ATOM     26  C   UNL     1      -4.038  10.626  17.535  0.00  0.00    +0.000 A 
ATOM     27  C   UNL     1      -3.701  11.585  18.493  0.00  0.00    +0.000 A 
ATOM     28  C   UNL     1      -2.366  11.799  18.841  0.00  0.00    +0.000 A 
ENDBRANCH  22  23
ENDBRANCH  19  22
ENDBRANCH  15  16
ENDBRANCH   1  15
TORSDOF 7
ENDMDL
MODEL 3
REMARK VINA RESULT:      -8.6      0.269      1.590
REMARK  Name = 
REMARK  7 active torsions:
REMARK  status: ('A' for Active; 'I' for Inactive)
REMARK    1  A    between atoms: C_4  and  C_5
REMARK    2  A    between atoms: C_5  and  N_6
REMARK    3  A    between atoms: N_6  and  C_7
REMARK    4  A    between atoms: N_6  and  C_21
REMARK    5  A    between atoms: C_7  and  C_8
REMARK    6  A    between atoms: C_11  and  O_12
REMARK    7  A    between atoms: O_12  and  C_13
REMARK                            x       y       z     vdW  Elec       q    Type
REMARK                         _______ _______ _______ _____ _____    ______ ____
ROOT
ATOM      1  N   UNL     1       4.341   5.165  18.180  0.00  0.00    +0.000 N 
ENDROOT
BRANCH   1   2
ATOM      2  C   UNL     1       5.616   5.726  18.281  0.00  0.00    +0.000 A 
ATOM      3  C   UNL     1       6.091   6.726  17.417  0.00  0.00    +0.000 A 
ATOM      4  C   UNL     1       7.381   7.257  17.533  0.00  0.00    +0.000 A 
ATOM      5  C   UNL     1       8.230   6.805  18.540  0.00  0.00    +0.000 A 
ATOM      6  C   UNL     1       7.784   5.839  19.424  0.00  0.00    +0.000 A 
ATOM      7  C   UNL     1       6.495   5.303  19.296  0.00  0.00    +0.000 A 
ENDBRANCH   1   2
BRANCH   1   8
ATOM      8  C   UNL     1       4.176   3.702  18.197  0.00  0.00    +0.000 C 
BRANCH   8  12
ATOM      9  C   UNL     1       1.103   2.915  21.073  0.00  0.00    +0.000 A 
ATOM     10  C   UNL     1       0.796   2.995  19.718  0.00  0.00    +0.000 A 
ATOM     11  C   UNL     1       1.821   3.121  18.785  0.00  0.00    +0.000 A 
ATOM     12  C   UNL     1       3.160   3.211  19.206  0.00  0.00    +0.000 A 
ATOM     13  C   UNL     1       3.462   2.978  20.551  0.00  0.00    +0.000 A 
ATOM     14  C   UNL     1       2.434   2.857  21.485  0.00  0.00    +0.000 A 
ENDBRANCH   8  12
ENDBRANCH   1   8
BRANCH   1  15
ATOM     15  C   UNL     1       3.342   5.932  17.400  0.00  0.00    +0.000 C 
BRANCH  15  16
ATOM     16  C   UNL     1       2.713   7.041  18.226  0.00  0.00    +0.000 A 
ATOM     17  C   UNL     1       2.406   6.826  19.579  0.00  0.00    +0.000 A 
ATOM     18  C   UNL     1       1.703   7.774  20.312  0.00  0.00    +0.000 A 
ATOM     19  C   UNL     1       1.396   9.007  19.716  0.00  0.00    +0.000 A 
ATOM     20  C   UNL     1       1.696   9.248  18.380  0.00  0.00    +0.000 A 
ATOM     21  C   UNL     1       2.359   8.268  17.636  0.00  0.00    +0.000 A 
BRANCH  19  22
ATOM     22  O   UNL     1       0.901  10.039  20.482  0.00  0.00    +0.000 OA
BRANCH  22  23
ATOM     23  C   UNL     1       0.503  11.159  19.770  0.00  0.00    +0.000 A 
ATOM     24  C   UNL     1       1.359  12.233  19.485  0.00  0.00    +0.000 A 
ATOM     25  C   UNL     1       0.872  13.387  18.886  0.00  0.00    +0.000 A 
ATOM     26  C   UNL     1      -0.462  13.451  18.496  0.00  0.00    +0.000 A 
ATOM     27  C   UNL     1      -1.301  12.353  18.705  0.00  0.00    +0.000 A 
ATOM     28  C   UNL     1      -0.823  11.209  19.345  0.00  0.00    +0.000 A 
ENDBRANCH  22  23
ENDBRANCH  19  22
ENDBRANCH  15  16
ENDBRANCH   1  15
TORSDOF 7
ENDMDL
MODEL 4
REMARK VINA RESULT:      -8.4      0.714      1.113
REMARK  Name = 
REMARK  7 active torsions:
REMARK  status: ('A' for Active; 'I' for Inactive)
REMARK    1  A    between atoms: C_4  and  C_5
REMARK    2  A    between atoms: C_5  and  N_6
REMARK    3  A    between atoms: N_6  and  C_7
REMARK    4  A    between atoms: N_6  and  C_21
REMARK    5  A    between atoms: C_7  and  C_8
REMARK    6  A    between atoms: C_11  and  O_12
REMARK    7  A    between atoms: O_12  and  C_13
REMARK                            x       y       z     vdW  Elec       q    Type
REMARK                         _______ _______ _______ _____ _____    ______ ____
ROOT
ATOM      1  N   UNL     1       4.158   5.300  18.029  0.00  0.00    +0.000 N 
ENDROOT
BRANCH   1   2
ATOM      2  C   UNL     1       5.467   5.742  18.235  0.00  0.00    +0.000 A 
ATOM      3  C   UNL     1       6.280   5.285  19.286  0.00  0.00    +0.000 A 
ATOM      4  C   UNL     1       7.583   5.759  19.476  0.00  0.00    +0.000 A 
ATOM      5  C   UNL     1       8.115   6.700  18.599  0.00  0.00    +0.000 A 
ATOM      6  C   UNL     1       7.350   7.151  17.539  0.00  0.00    +0.000 A 
ATOM      7  C   UNL     1       6.042   6.681  17.358  0.00  0.00    +0.000 A 
ENDBRANCH   1   2
BRANCH   1   8
ATOM      8  C   UNL     1       3.877   3.858  17.917  0.00  0.00    +0.000 C 
BRANCH   8  12
ATOM      9  C   UNL     1       1.245   2.923  21.162  0.00  0.00    +0.000 A 
ATOM     10  C   UNL     1       0.743   3.096  19.876  0.00  0.00    +0.000 A 
ATOM     11  C   UNL     1       1.622   3.271  18.811  0.00  0.00    +0.000 A 
ATOM     12  C   UNL     1       3.009   3.315  19.033  0.00  0.00    +0.000 A 
ATOM     13  C   UNL     1       3.502   2.990  20.300  0.00  0.00    +0.000 A 
ATOM     14  C   UNL     1       2.621   2.820  21.367  0.00  0.00    +0.000 A 
ENDBRANCH   8  12
ENDBRANCH   1   8
BRANCH   1  15
ATOM     15  C   UNL     1       3.266   6.207  17.270  0.00  0.00    +0.000 C 
BRANCH  15  16
ATOM     16  C   UNL     1       2.542   7.180  18.183  0.00  0.00    +0.000 A 
ATOM     17  C   UNL     1       2.193   8.458  17.718  0.00  0.00    +0.000 A 
ATOM     18  C   UNL     1       1.660   9.410  18.579  0.00  0.00    +0.000 A 
ATOM     19  C   UNL     1       1.367   9.047  19.902  0.00  0.00    +0.000 A 
ATOM     20  C   UNL     1       1.695   7.785  20.385  0.00  0.00    +0.000 A 
ATOM     21  C   UNL     1       2.278   6.850  19.525  0.00  0.00    +0.000 A 
BRANCH  19  22
ATOM     22  O   UNL     1       0.640   9.896  20.706  0.00  0.00    +0.000 OA
BRANCH  22  23
ATOM     23  C   UNL     1      -0.344  10.622  20.053  0.00  0.00    +0.000 A 
ATOM     24  C   UNL     1      -0.672  11.944  20.387  0.00  0.00    +0.000 A 
ATOM     25  C   UNL     1      -1.756  12.577  19.791  0.00  0.00    +0.000 A 
ATOM     26  C   UNL     1      -2.477  11.919  18.801  0.00  0.00    +0.000 A 
ATOM     27  C   UNL     1      -2.106  10.631  18.407  0.00  0.00    +0.000 A 
ATOM     28  C   UNL     1      -1.043   9.979  19.034  0.00  0.00    +0.000 A 
ENDBRANCH  22  23
ENDBRANCH  19  22
ENDBRANCH  15  16
ENDBRANCH   1  15
TORSDOF 7
ENDMDL
MODEL 5
REMARK VINA RESULT:      -8.4      0.758      1.184
REMARK  Name = 
REMARK  7 active torsions:
REMARK  status: ('A' for Active; 'I' for Inactive)
REMARK    1  A    between atoms: C_4  and  C_5
REMARK    2  A    between atoms: C_5  and  N_6
REMARK    3  A    between atoms: N_6  and  C_7
REMARK    4  A    between atoms: N_6  and  C_21
REMARK    5  A    between atoms: C_7  and  C_8
REMARK    6  A    between atoms: C_11  and  O_12
REMARK    7  A    between atoms: O_12  and  C_13
REMARK                            x       y       z     vdW  Elec       q    Type
REMARK                         _______ _______ _______ _____ _____    ______ ____
ROOT
ATOM      1  N   UNL     1       4.090   5.619  17.943  0.00  0.00    +0.000 N 
ENDROOT
BRANCH   1   2
ATOM      2  C   UNL     1       5.429   5.931  18.190  0.00  0.00    +0.000 A 
ATOM      3  C   UNL     1       6.176   5.359  19.234  0.00  0.00    +0.000 A 
ATOM      4  C   UNL     1       7.512   5.704  19.466  0.00  0.00    +0.000 A 
ATOM      5  C   UNL     1       8.145   6.629  18.638  0.00  0.00    +0.000 A 
ATOM      6  C   UNL     1       7.445   7.191  17.586  0.00  0.00    +0.000 A 
ATOM      7  C   UNL     1       6.104   6.850  17.364  0.00  0.00    +0.000 A 
ENDBRANCH   1   2
BRANCH   1   8
ATOM      8  C   UNL     1       3.691   4.219  17.718  0.00  0.00    +0.000 C 
BRANCH   8  12
ATOM      9  C   UNL     1       1.331   3.123  21.119  0.00  0.00    +0.000 A 
ATOM     10  C   UNL     1       0.718   3.523  19.936  0.00  0.00    +0.000 A 
ATOM     11  C   UNL     1       1.491   3.752  18.801  0.00  0.00    +0.000 A 
ATOM     12  C   UNL     1       2.890   3.619  18.855  0.00  0.00    +0.000 A 
ATOM     13  C   UNL     1       3.474   3.073  20.001  0.00  0.00    +0.000 A 
ATOM     14  C   UNL     1       2.699   2.850  21.138  0.00  0.00    +0.000 A 
ENDBRANCH   8  12
ENDBRANCH   1   8
BRANCH   1  15
ATOM     15  C   UNL     1       3.286   6.654  17.253  0.00  0.00    +0.000 C 
BRANCH  15  16
ATOM     16  C   UNL     1       2.462   7.472  18.232  0.00  0.00    +0.000 A 
ATOM     17  C   UNL     1       1.834   8.654  17.809  0.00  0.00    +0.000 A 
ATOM     18  C   UNL     1       1.196   9.489  18.718  0.00  0.00    +0.000 A 
ATOM     19  C   UNL     1       1.086   9.083  20.058  0.00  0.00    +0.000 A 
ATOM     20  C   UNL     1       1.693   7.912  20.499  0.00  0.00    +0.000 A 
ATOM     21  C   UNL     1       2.376   7.104  19.587  0.00  0.00    +0.000 A 
BRANCH  19  22
ATOM     22  O   UNL     1       0.275   9.778  20.925  0.00  0.00    +0.000 OA
BRANCH  22  23
ATOM     23  C   UNL     1       0.065  11.107  20.594  0.00  0.00    +0.000 A 
ATOM     24  C   UNL     1       1.026  12.110  20.792  0.00  0.00    +0.000 A 
ATOM     25  C   UNL     1       0.714  13.445  20.567  0.00  0.00    +0.000 A 
ATOM     26  C   UNL     1      -0.539  13.784  20.070  0.00  0.00    +0.000 A 
ATOM     27  C   UNL     1      -1.474  12.783  19.794  0.00  0.00    +0.000 A 
ATOM     28  C   UNL     1      -1.177  11.445  20.059  0.00  0.00    +0.000 A 
ENDBRANCH  22  23
ENDBRANCH  19  22
ENDBRANCH  15  16
ENDBRANCH   1  15
TORSDOF 7
ENDMDL
MODEL 6
REMARK VINA RESULT:      -8.4      3.294      7.221
REMARK  Name = 
REMARK  7 active torsions:
REMARK  status: ('A' for Active; 'I' for Inactive)
REMARK    1  A    between atoms: C_4  and  C_5
REMARK    2  A    between atoms: C_5  and  N_6
REMARK    3  A    between atoms: N_6  and  C_7
REMARK    4  A    between atoms: N_6  and  C_21
REMARK    5  A    between atoms: C_7  and  C_8
REMARK    6  A    between atoms: C_11  and  O_12
REMARK    7  A    between atoms: O_12  and  C_13
REMARK                            x       y       z     vdW  Elec       q    Type
REMARK                         _______ _______ _______ _____ _____    ______ ____
ROOT
ATOM      1  N   UNL     1       2.441   6.626  18.886  0.00  0.00    +0.000 N 
ENDROOT
BRANCH   1   2
ATOM      2  C   UNL     1       1.867   7.710  19.556  0.00  0.00    +0.000 A 
ATOM      3  C   UNL     1       1.577   7.701  20.931  0.00  0.00    +0.000 A 
ATOM      4  C   UNL     1       0.987   8.797  21.572  0.00  0.00    +0.000 A 
ATOM      5  C   UNL     1       0.685   9.946  20.846  0.00  0.00    +0.000 A 
ATOM      6  C   UNL     1       0.981   9.996  19.496  0.00  0.00    +0.000 A 
ATOM      7  C   UNL     1       1.563   8.892  18.857  0.00  0.00    +0.000 A 
ENDBRANCH   1   2
BRANCH   1   8
ATOM      8  C   UNL     1       1.582   5.662  18.176  0.00  0.00    +0.000 C 
BRANCH   8  12
ATOM      9  C   UNL     1       2.006   1.972  20.305  0.00  0.00    +0.000 A 
ATOM     10  C   UNL     1       1.265   3.017  20.849  0.00  0.00    +0.000 A 
ATOM     11  C   UNL     1       1.028   4.161  20.091  0.00  0.00    +0.000 A 
ATOM     12  C   UNL     1       1.567   4.282  18.798  0.00  0.00    +0.000 A 
ATOM     13  C   UNL     1       2.176   3.169  18.213  0.00  0.00    +0.000 A 
ATOM     14  C   UNL     1       2.418   2.026  18.974  0.00  0.00    +0.000 A 
ENDBRANCH   8  12
ENDBRANCH   1   8
BRANCH   1  15
ATOM     15  C   UNL     1       3.705   6.096  19.446  0.00  0.00    +0.000 C 
BRANCH  15  16
ATOM     16  C   UNL     1       4.763   5.911  18.373  0.00  0.00    +0.000 A 
ATOM     17  C   UNL     1       4.752   6.718  17.224  0.00  0.00    +0.000 A 
ATOM     18  C   UNL     1       5.622   6.471  16.169  0.00  0.00    +0.000 A 
ATOM     19  C   UNL     1       6.596   5.470  16.306  0.00  0.00    +0.000 A 
ATOM     20  C   UNL     1       6.633   4.663  17.438  0.00  0.00    +0.000 A 
ATOM     21  C   UNL     1       5.721   4.886  18.473  0.00  0.00    +0.000 A 
BRANCH  19  22
ATOM     22  O   UNL     1       7.602   5.354  15.375  0.00  0.00    +0.000 OA
BRANCH  22  23
ATOM     23  C   UNL     1       7.210   4.844  14.148  0.00  0.00    +0.000 A 
ATOM     24  C   UNL     1       6.200   3.881  14.003  0.00  0.00    +0.000 A 
ATOM     25  C   UNL     1       5.941   3.308  12.765  0.00  0.00    +0.000 A 
ATOM     26  C   UNL     1       6.638   3.745  11.644  0.00  0.00    +0.000 A 
ATOM     27  C   UNL     1       7.590   4.761  11.768  0.00  0.00    +0.000 A 
ATOM     28  C   UNL     1       7.881   5.308  13.019  0.00  0.00    +0.000 A 
ENDBRANCH  22  23
ENDBRANCH  19  22
ENDBRANCH  15  16
ENDBRANCH   1  15
TORSDOF 7
ENDMDL
MODEL 7
REMARK VINA RESULT:      -8.4      1.492      4.726
REMARK  Name = 
REMARK  7 active torsions:
REMARK  status: ('A' for Active; 'I' for Inactive)
REMARK    1  A    between atoms: C_4  and  C_5
REMARK    2  A    between atoms: C_5  and  N_6
REMARK    3  A    between atoms: N_6  and  C_7
REMARK    4  A    between atoms: N_6  and  C_21
REMARK    5  A    between atoms: C_7  and  C_8
REMARK    6  A    between atoms: C_11  and  O_12
REMARK    7  A    between atoms: O_12  and  C_13
REMARK                            x       y       z     vdW  Elec       q    Type
REMARK                         _______ _______ _______ _____ _____    ______ ____
ROOT
ATOM      1  N   UNL     1       2.836   5.558  18.674  0.00  0.00    +0.000 N 
ENDROOT
BRANCH   1   2
ATOM      2  C   UNL     1       2.247   4.554  19.446  0.00  0.00    +0.000 A 
ATOM      3  C   UNL     1       1.367   3.592  18.921  0.00  0.00    +0.000 A 
ATOM      4  C   UNL     1       0.779   2.607  19.723  0.00  0.00    +0.000 A 
ATOM      5  C   UNL     1       1.075   2.551  21.083  0.00  0.00    +0.000 A 
ATOM      6  C   UNL     1       1.957   3.468  21.626  0.00  0.00    +0.000 A 
ATOM      7  C   UNL     1       2.535   4.459  20.820  0.00  0.00    +0.000 A 
ENDBRANCH   1   2
BRANCH   1   8
ATOM      8  C   UNL     1       3.550   5.209  17.433  0.00  0.00    +0.000 C 
BRANCH   8  12
ATOM      9  C   UNL     1       7.602   6.434  18.070  0.00  0.00    +0.000 A 
ATOM     10  C   UNL     1       7.161   5.196  18.526  0.00  0.00    +0.000 A 
ATOM     11  C   UNL     1       5.882   4.756  18.200  0.00  0.00    +0.000 A 
ATOM     12  C   UNL     1       5.019   5.574  17.448  0.00  0.00    +0.000 A 
ATOM     13  C   UNL     1       5.526   6.742  16.872  0.00  0.00    +0.000 A 
ATOM     14  C   UNL     1       6.807   7.183  17.204  0.00  0.00    +0.000 A 
ENDBRANCH   8  12
ENDBRANCH   1   8
BRANCH   1  15
ATOM     15  C   UNL     1       3.324   6.751  19.402  0.00  0.00    +0.000 C 
BRANCH  15  16
ATOM     16  C   UNL     1       2.397   7.940  19.221  0.00  0.00    +0.000 A 
ATOM     17  C   UNL     1       1.530   8.324  20.257  0.00  0.00    +0.000 A 
ATOM     18  C   UNL     1       0.577   9.316  20.060  0.00  0.00    +0.000 A 
ATOM     19  C   UNL     1       0.561  10.016  18.844  0.00  0.00    +0.000 A 
ATOM     20  C   UNL     1       1.415   9.661  17.805  0.00  0.00    +0.000 A 
ATOM     21  C   UNL     1       2.336   8.627  17.995  0.00  0.00    +0.000 A 
BRANCH  19  22
ATOM     22  O   UNL     1      -0.219  11.142  18.706  0.00  0.00    +0.000 OA
BRANCH  22  23
ATOM     23  C   UNL     1      -1.498  10.914  18.225  0.00  0.00    +0.000 A 
ATOM     24  C   UNL     1      -1.784   9.995  17.204  0.00  0.00    +0.000 A 
ATOM     25  C   UNL     1      -3.062   9.905  16.669  0.00  0.00    +0.000 A 
ATOM     26  C   UNL     1      -4.087  10.680  17.201  0.00  0.00    +0.000 A 
ATOM     27  C   UNL     1      -3.827  11.539  18.272  0.00  0.00    +0.000 A 
ATOM     28  C   UNL     1      -2.533  11.661  18.783  0.00  0.00    +0.000 A 
ENDBRANCH  22  23
ENDBRANCH  19  22
ENDBRANCH  15  16
ENDBRANCH   1  15
TORSDOF 7
ENDMDL
MODEL 8
REMARK VINA RESULT:      -8.4      3.270      7.282
REMARK  Name = 
REMARK  7 active torsions:
REMARK  status: ('A' for Active; 'I' for Inactive)
REMARK    1  A    between atoms: C_4  and  C_5
REMARK    2  A    between atoms: C_5  and  N_6
REMARK    3  A    between atoms: N_6  and  C_7
REMARK    4  A    between atoms: N_6  and  C_21
REMARK    5  A    between atoms: C_7  and  C_8
REMARK    6  A    between atoms: C_11  and  O_12
REMARK    7  A    between atoms: O_12  and  C_13
REMARK                            x       y       z     vdW  Elec       q    Type
REMARK                         _______ _______ _______ _____ _____    ______ ____
ROOT
ATOM      1  N   UNL     1       2.423   6.596  18.694  0.00  0.00    +0.000 N 
ENDROOT
BRANCH   1   2
ATOM      2  C   UNL     1       1.904   7.771  19.245  0.00  0.00    +0.000 A 
ATOM      3  C   UNL     1       1.657   8.932  18.494  0.00  0.00    +0.000 A 
ATOM      4  C   UNL     1       1.151  10.099  19.077  0.00  0.00    +0.000 A 
ATOM      5  C   UNL     1       0.862  10.127  20.439  0.00  0.00    +0.000 A 
ATOM      6  C   UNL     1       1.071   8.992  21.202  0.00  0.00    +0.000 A 
ATOM      7  C   UNL     1       1.587   7.828  20.615  0.00  0.00    +0.000 A 
ENDBRANCH   1   2
BRANCH   1   8
ATOM      8  C   UNL     1       1.513   5.580  18.138  0.00  0.00    +0.000 C 
BRANCH   8  12
ATOM      9  C   UNL     1       2.025   2.113  20.597  0.00  0.00    +0.000 A 
ATOM     10  C   UNL     1       1.368   3.235  21.091  0.00  0.00    +0.000 A 
ATOM     11  C   UNL     1       1.095   4.304  20.242  0.00  0.00    +0.000 A 
ATOM     12  C   UNL     1       1.515   4.272  18.900  0.00  0.00    +0.000 A 
ATOM     13  C   UNL     1       2.036   3.083  18.383  0.00  0.00    +0.000 A 
ATOM     14  C   UNL     1       2.314   2.015  19.236  0.00  0.00    +0.000 A 
ENDBRANCH   8  12
ENDBRANCH   1   8
BRANCH   1  15
ATOM     15  C   UNL     1       3.692   6.099  19.274  0.00  0.00    +0.000 C 
BRANCH  15  16
ATOM     16  C   UNL     1       4.750   5.878  18.207  0.00  0.00    +0.000 A 
ATOM     17  C   UNL     1       5.768   4.931  18.407  0.00  0.00    +0.000 A 
ATOM     18  C   UNL     1       6.822   4.815  17.509  0.00  0.00    +0.000 A 
ATOM     19  C   UNL     1       6.804   5.579  16.332  0.00  0.00    +0.000 A 
ATOM     20  C   UNL     1       5.803   6.517  16.106  0.00  0.00    +0.000 A 
ATOM     21  C   UNL     1       4.773   6.663  17.040  0.00  0.00    +0.000 A 
BRANCH  19  22
ATOM     22  O   UNL     1       7.713   5.324  15.331  0.00  0.00    +0.000 OA
BRANCH  22  23
ATOM     23  C   UNL     1       7.173   4.788  14.172  0.00  0.00    +0.000 A 
ATOM     24  C   UNL     1       6.098   3.886  14.170  0.00  0.00    +0.000 A 
ATOM     25  C   UNL     1       5.686   3.279  12.991  0.00  0.00    +0.000 A 
ATOM     26  C   UNL     1       6.296   3.623  11.789  0.00  0.00    +0.000 A 
ATOM     27  C   UNL     1       7.313   4.581  11.773  0.00  0.00    +0.000 A 
ATOM     28  C   UNL     1       7.757   5.161  12.963  0.00  0.00    +0.000 A 
ENDBRANCH  22  23
ENDBRANCH  19  22
ENDBRANCH  15  16
ENDBRANCH   1  15
TORSDOF 7
ENDMDL
MODEL 9
REMARK VINA RESULT:      -8.3      1.823      4.416
REMARK  Name = 
REMARK  7 active torsions:
REMARK  status: ('A' for Active; 'I' for Inactive)
REMARK    1  A    between atoms: C_4  and  C_5
REMARK    2  A    between atoms: C_5  and  N_6
REMARK    3  A    between atoms: N_6  and  C_7
REMARK    4  A    between atoms: N_6  and  C_21
REMARK    5  A    between atoms: C_7  and  C_8
REMARK    6  A    between atoms: C_11  and  O_12
REMARK    7  A    between atoms: O_12  and  C_13
REMARK                            x       y       z     vdW  Elec       q    Type
REMARK                         _______ _______ _______ _____ _____    ______ ____
ROOT
ATOM      1  N   UNL     1       3.700   5.574  19.030  0.00  0.00    +0.000 N 
ENDROOT
BRANCH   1   2
ATOM      2  C   UNL     1       3.531   4.213  18.764  0.00  0.00    +0.000 A 
ATOM      3  C   UNL     1       2.727   3.724  17.721  0.00  0.00    +0.000 A 
ATOM      4  C   UNL     1       2.564   2.353  17.489  0.00  0.00    +0.000 A 
ATOM      5  C   UNL     1       3.222   1.429  18.297  0.00  0.00    +0.000 A 
ATOM      6  C   UNL     1       4.041   1.878  19.317  0.00  0.00    +0.000 A 
ATOM      7  C   UNL     1       4.193   3.252  19.551  0.00  0.00    +0.000 A 
ENDBRANCH   1   2
BRANCH   1   8
ATOM      8  C   UNL     1       5.016   6.204  18.830  0.00  0.00    +0.000 C 
BRANCH   8  12
ATOM      9  C   UNL     1       6.438   4.706  15.079  0.00  0.00    +0.000 A 
ATOM     10  C   UNL     1       5.444   5.680  15.117  0.00  0.00    +0.000 A 
ATOM     11  C   UNL     1       5.084   6.250  16.335  0.00  0.00    +0.000 A 
ATOM     12  C   UNL     1       5.689   5.819  17.529  0.00  0.00    +0.000 A 
ATOM     13  C   UNL     1       6.785   4.955  17.457  0.00  0.00    +0.000 A 
ATOM     14  C   UNL     1       7.141   4.381  16.238  0.00  0.00    +0.000 A 
ENDBRANCH   8  12
ENDBRANCH   1   8
BRANCH   1  15
ATOM     15  C   UNL     1       2.847   6.151  20.095  0.00  0.00    +0.000 C 
BRANCH  15  16
ATOM     16  C   UNL     1       2.188   7.444  19.649  0.00  0.00    +0.000 A 
ATOM     17  C   UNL     1       1.437   8.204  20.561  0.00  0.00    +0.000 A 
ATOM     18  C   UNL     1       0.711   9.311  20.140  0.00  0.00    +0.000 A 
ATOM     19  C   UNL     1       0.824   9.736  18.807  0.00  0.00    +0.000 A 
ATOM     20  C   UNL     1       1.568   9.006  17.887  0.00  0.00    +0.000 A 
ATOM     21  C   UNL     1       2.254   7.863  18.308  0.00  0.00    +0.000 A 
BRANCH  19  22
ATOM     22  O   UNL     1       0.296  10.947  18.421  0.00  0.00    +0.000 OA
BRANCH  22  23
ATOM     23  C   UNL     1      -1.073  10.951  18.212  0.00  0.00    +0.000 A 
ATOM     24  C   UNL     1      -1.947  11.843  18.852  0.00  0.00    +0.000 A 
ATOM     25  C   UNL     1      -3.322  11.713  18.708  0.00  0.00    +0.000 A 
ATOM     26  C   UNL     1      -3.837  10.737  17.862  0.00  0.00    +0.000 A 
ATOM     27  C   UNL     1      -2.970   9.897  17.159  0.00  0.00    +0.000 A 
ATOM     28  C   UNL     1      -1.589   9.998  17.335  0.00  0.00    +0.000 A 
ENDBRANCH  22  23
ENDBRANCH  19  22
ENDBRANCH  15  16
ENDBRANCH   1  15
TORSDOF 7
ENDMDL
