MODEL 1
REMARK VINA RESULT:      -5.6      0.000      0.000
REMARK  Name = 
REMARK  5 active torsions:
REMARK  status: ('A' for Active; 'I' for Inactive)
REMARK    1  A    between atoms: N_2  and  C_4
REMARK    2  A    between atoms: C_4  and  C_18
REMARK    3  A    between atoms: C_5  and  N_6
REMARK    4  A    between atoms: C_5  and  N_12
REMARK    5  A    between atoms: C_20  and  N_22
REMARK                            x       y       z     vdW  Elec       q    Type
REMARK                         _______ _______ _______ _____ _____    ______ ____
ROOT
ATOM      1  C   UNL     1       4.344   4.055  18.330  0.00  0.00    +0.000 C 
ATOM      2  C   UNL     1       3.323   4.820  18.814  0.00  0.00    +0.000 C 
ENDROOT
BRANCH   2   3
ATOM      3  N   UNL     1       3.236   6.146  18.346  0.00  0.00    +0.000 N 
ATOM      4  C   UNL     1       2.140   7.059  18.768  0.00  0.00    +0.000 C 
ATOM      5  C   UNL     1       1.920   8.130  17.685  0.00  0.00    +0.000 C 
ATOM      6  O   UNL     1       3.126   8.865  17.413  0.00  0.00    +0.000 OA
ATOM      7  C   UNL     1       4.175   7.976  16.996  0.00  0.00    +0.000 C 
ATOM      8  C   UNL     1       4.474   6.927  18.083  0.00  0.00    +0.000 C 
ENDBRANCH   2   3
BRANCH   2   9
ATOM      9  N   UNL     1       2.365   4.385  19.733  0.00  0.00    +0.000 N 
ATOM     10  C   UNL     1       2.444   4.552  21.200  0.00  0.00    +0.000 C 
ATOM     11  C   UNL     1       2.190   3.218  21.929  0.00  0.00    +0.000 C 
ATOM     12  O   UNL     1       0.962   2.602  21.506  0.00  0.00    +0.000 OA
ATOM     13  C   UNL     1       0.997   2.357  20.091  0.00  0.00    +0.000 C 
ATOM     14  C   UNL     1       1.140   3.674  19.311  0.00  0.00    +0.000 C 
ENDBRANCH   2   9
BRANCH   1  15
ATOM     15  C   UNL     1       5.280   4.439  17.294  0.00  0.00    +0.000 C 
ATOM     16 CL   UNL     1       4.627   4.254  15.672  0.00  0.00    +0.000 Cl
ATOM     17  C   UNL     1       6.519   4.907  17.529  0.00  0.00    +0.000 C 
ATOM     18 CL   UNL     1       7.318   4.889  19.058  0.00  0.00    +0.000 Cl
BRANCH  17  19
ATOM     19  N   UNL     1       7.231   5.515  16.415  0.00  0.00    +0.000 N 
ATOM     20  O   UNL     1       7.591   4.767  15.503  0.00  0.00    +0.000 OA
ATOM     21  O   UNL     1       7.477   6.729  16.491  0.00  0.00    +0.000 OA
ENDBRANCH  17  19
ENDBRANCH   1  15
BRANCH   1  23
ATOM     22  O   UNL     1       3.932   1.820  18.156  0.00  0.00    +0.000 OA
ATOM     23  N   UNL     1       4.475   2.710  18.831  0.00  0.00    +0.000 N 
ATOM     24  O   UNL     1       5.061   2.539  19.906  0.00  0.00    +0.000 OA
ENDBRANCH   1  23
TORSDOF 5
ENDMDL
MODEL 2
REMARK VINA RESULT:      -5.6      0.936      1.804
REMARK  Name = 
REMARK  5 active torsions:
REMARK  status: ('A' for Active; 'I' for Inactive)
REMARK    1  A    between atoms: N_2  and  C_4
REMARK    2  A    between atoms: C_4  and  C_18
REMARK    3  A    between atoms: C_5  and  N_6
REMARK    4  A    between atoms: C_5  and  N_12
REMARK    5  A    between atoms: C_20  and  N_22
REMARK                            x       y       z     vdW  Elec       q    Type
REMARK                         _______ _______ _______ _____ _____    ______ ____
ROOT
ATOM      1  C   UNL     1       4.402   4.188  18.762  0.00  0.00    +0.000 C 
ATOM      2  C   UNL     1       3.193   4.820  18.799  0.00  0.00    +0.000 C 
ENDROOT
BRANCH   2   3
ATOM      3  N   UNL     1       3.156   6.161  18.368  0.00  0.00    +0.000 N 
ATOM      4  C   UNL     1       3.794   6.598  17.099  0.00  0.00    +0.000 C 
ATOM      5  C   UNL     1       4.158   8.091  17.196  0.00  0.00    +0.000 C 
ATOM      6  O   UNL     1       3.007   8.898  17.497  0.00  0.00    +0.000 OA
ATOM      7  C   UNL     1       2.403   8.476  18.730  0.00  0.00    +0.000 C 
ATOM      8  C   UNL     1       1.962   7.002  18.652  0.00  0.00    +0.000 C 
ENDBRANCH   2   3
BRANCH   2   9
ATOM      9  N   UNL     1       2.000   4.238  19.232  0.00  0.00    +0.000 N 
ATOM     10  C   UNL     1       1.542   4.158  20.636  0.00  0.00    +0.000 C 
ATOM     11  C   UNL     1       1.126   2.721  21.007  0.00  0.00    +0.000 C 
ATOM     12  O   UNL     1       0.168   2.184  20.079  0.00  0.00    +0.000 OA
ATOM     13  C   UNL     1       0.718   2.178  18.753  0.00  0.00    +0.000 C 
ATOM     14  C   UNL     1       1.049   3.607  18.292  0.00  0.00    +0.000 C 
ENDBRANCH   2   9
BRANCH   1  15
ATOM     15  C   UNL     1       5.629   4.726  18.213  0.00  0.00    +0.000 C 
ATOM     16 CL   UNL     1       6.534   5.694  19.368  0.00  0.00    +0.000 Cl
ATOM     17  C   UNL     1       6.057   4.506  16.958  0.00  0.00    +0.000 C 
ATOM     18 CL   UNL     1       5.125   3.782  15.698  0.00  0.00    +0.000 Cl
BRANCH  17  19
ATOM     19  N   UNL     1       7.430   4.869  16.641  0.00  0.00    +0.000 N 
ATOM     20  O   UNL     1       8.322   4.169  17.125  0.00  0.00    +0.000 OA
ATOM     21  O   UNL     1       7.605   5.890  15.957  0.00  0.00    +0.000 OA
ENDBRANCH  17  19
ENDBRANCH   1  15
BRANCH   1  23
ATOM     22  O   UNL     1       4.084   1.952  18.450  0.00  0.00    +0.000 OA
ATOM     23  N   UNL     1       4.467   2.830  19.241  0.00  0.00    +0.000 N 
ATOM     24  O   UNL     1       4.841   2.636  20.403  0.00  0.00    +0.000 OA
ENDBRANCH   1  23
TORSDOF 5
ENDMDL
MODEL 3
REMARK VINA RESULT:      -5.6      0.939      1.422
REMARK  Name = 
REMARK  5 active torsions:
REMARK  status: ('A' for Active; 'I' for Inactive)
REMARK    1  A    between atoms: N_2  and  C_4
REMARK    2  A    between atoms: C_4  and  C_18
REMARK    3  A    between atoms: C_5  and  N_6
REMARK    4  A    between atoms: C_5  and  N_12
REMARK    5  A    between atoms: C_20  and  N_22
REMARK                            x       y       z     vdW  Elec       q    Type
REMARK                         _______ _______ _______ _____ _____    ______ ____
ROOT
ATOM      1  C   UNL     1       4.290   4.555  18.600  0.00  0.00    +0.000 C 
ATOM      2  C   UNL     1       3.146   5.075  19.133  0.00  0.00    +0.000 C 
ENDROOT
BRANCH   2   3
ATOM      3  N   UNL     1       2.864   6.427  18.855  0.00  0.00    +0.000 N 
ATOM      4  C   UNL     1       2.838   6.956  17.466  0.00  0.00    +0.000 C 
ATOM      5  C   UNL     1       3.146   8.463  17.485  0.00  0.00    +0.000 C 
ATOM      6  O   UNL     1       2.226   9.181  18.327  0.00  0.00    +0.000 OA
ATOM      7  C   UNL     1       2.266   8.670  19.669  0.00  0.00    +0.000 C 
ATOM      8  C   UNL     1       1.897   7.176  19.702  0.00  0.00    +0.000 C 
ENDBRANCH   2   3
BRANCH   2   9
ATOM      9  N   UNL     1       2.243   4.367  19.930  0.00  0.00    +0.000 N 
ATOM     10  C   UNL     1       2.307   4.247  21.403  0.00  0.00    +0.000 C 
ATOM     11  C   UNL     1       2.199   2.776  21.849  0.00  0.00    +0.000 C 
ATOM     12  O   UNL     1       1.043   2.130  21.289  0.00  0.00    +0.000 OA
ATOM     13  C   UNL     1       1.101   2.175  19.855  0.00  0.00    +0.000 C 
ATOM     14  C   UNL     1       1.100   3.629  19.353  0.00  0.00    +0.000 C 
ENDBRANCH   2   9
BRANCH   1  15
ATOM     15  C   UNL     1       5.184   5.227  17.679  0.00  0.00    +0.000 C 
ATOM     16 CL   UNL     1       4.618   5.184  16.016  0.00  0.00    +0.000 Cl
ATOM     17  C   UNL     1       6.323   5.840  18.043  0.00  0.00    +0.000 C 
ATOM     18 CL   UNL     1       7.069   5.721  19.595  0.00  0.00    +0.000 Cl
BRANCH  17  19
ATOM     19  N   UNL     1       6.963   6.708  17.065  0.00  0.00    +0.000 N 
ATOM     20  O   UNL     1       6.775   7.921  17.183  0.00  0.00    +0.000 OA
ATOM     21  O   UNL     1       7.600   6.162  16.151  0.00  0.00    +0.000 OA
ENDBRANCH  17  19
ENDBRANCH   1  15
BRANCH   1  23
ATOM     22  O   UNL     1       4.181   2.328  18.128  0.00  0.00    +0.000 OA
ATOM     23  N   UNL     1       4.618   3.187  18.911  0.00  0.00    +0.000 N 
ATOM     24  O   UNL     1       5.254   2.957  19.947  0.00  0.00    +0.000 OA
ENDBRANCH   1  23
TORSDOF 5
ENDMDL
MODEL 4
REMARK VINA RESULT:      -5.6      8.406     10.943
REMARK  Name = 
REMARK  5 active torsions:
REMARK  status: ('A' for Active; 'I' for Inactive)
REMARK    1  A    between atoms: N_2  and  C_4
REMARK    2  A    between atoms: C_4  and  C_18
REMARK    3  A    between atoms: C_5  and  N_6
REMARK    4  A    between atoms: C_5  and  N_12
REMARK    5  A    between atoms: C_20  and  N_22
REMARK                            x       y       z     vdW  Elec       q    Type
REMARK                         _______ _______ _______ _____ _____    ______ ____
ROOT
ATOM      1  C   UNL     1      -0.026  12.989  21.054  0.00  0.00    +0.000 C 
ATOM      2  C   UNL     1      -0.845  13.549  20.117  0.00  0.00    +0.000 C 
ENDROOT
BRANCH   2   3
ATOM      3  N   UNL     1      -1.652  12.675  19.363  0.00  0.00    +0.000 N 
ATOM      4  C   UNL     1      -3.134  12.670  19.484  0.00  0.00    +0.000 C 
ATOM      5  C   UNL     1      -3.676  11.285  19.090  0.00  0.00    +0.000 C 
ATOM      6  O   UNL     1      -3.266  10.913  17.762  0.00  0.00    +0.000 OA
ATOM      7  C   UNL     1      -1.834  10.910  17.658  0.00  0.00    +0.000 C 
ATOM      8  C   UNL     1      -1.254  12.301  17.980  0.00  0.00    +0.000 C 
ENDBRANCH   2   3
BRANCH   2   9
ATOM      9  N   UNL     1      -0.938  14.918  19.855  0.00  0.00    +0.000 N 
ATOM     10  C   UNL     1      -0.091  15.671  18.905  0.00  0.00    +0.000 C 
ATOM     11  C   UNL     1       0.505  16.930  19.565  0.00  0.00    +0.000 C 
ATOM     12  O   UNL     1      -0.509  17.747  20.172  0.00  0.00    +0.000 OA
ATOM     13  C   UNL     1      -1.216  16.994  21.170  0.00  0.00    +0.000 C 
ATOM     14  C   UNL     1      -1.923  15.782  20.540  0.00  0.00    +0.000 C 
ENDBRANCH   2   9
BRANCH   1  15
ATOM     15  C   UNL     1       0.009  11.590  21.428  0.00  0.00    +0.000 C 
ATOM     16 CL   UNL     1       1.111  10.641  20.441  0.00  0.00    +0.000 Cl
ATOM     17  C   UNL     1      -0.707  11.057  22.433  0.00  0.00    +0.000 C 
ATOM     18 CL   UNL     1      -1.980  11.854  23.283  0.00  0.00    +0.000 Cl
BRANCH  17  19
ATOM     19  N   UNL     1      -0.357   9.714  22.870  0.00  0.00    +0.000 N 
ATOM     20  O   UNL     1       0.401   9.618  23.838  0.00  0.00    +0.000 OA
ATOM     21  O   UNL     1      -0.799   8.765  22.203  0.00  0.00    +0.000 OA
ENDBRANCH  17  19
ENDBRANCH   1  15
BRANCH   1  23
ATOM     22  O   UNL     1       2.011  13.949  21.403  0.00  0.00    +0.000 OA
ATOM     23  N   UNL     1       0.839  13.864  21.804  0.00  0.00    +0.000 N 
ATOM     24  O   UNL     1       0.382  14.420  22.809  0.00  0.00    +0.000 OA
ENDBRANCH   1  23
TORSDOF 5
ENDMDL
MODEL 5
REMARK VINA RESULT:      -5.5     12.047     13.911
REMARK  Name = 
REMARK  5 active torsions:
REMARK  status: ('A' for Active; 'I' for Inactive)
REMARK    1  A    between atoms: N_2  and  C_4
REMARK    2  A    between atoms: C_4  and  C_18
REMARK    3  A    between atoms: C_5  and  N_6
REMARK    4  A    between atoms: C_5  and  N_12
REMARK    5  A    between atoms: C_20  and  N_22
REMARK                            x       y       z     vdW  Elec       q    Type
REMARK                         _______ _______ _______ _____ _____    ______ ____
ROOT
ATOM      1  C   UNL     1      -4.341  13.302  22.035  0.00  0.00    +0.000 C 
ATOM      2  C   UNL     1      -4.284  14.643  22.287  0.00  0.00    +0.000 C 
ENDROOT
BRANCH   2   3
ATOM      3  N   UNL     1      -5.165  15.470  21.564  0.00  0.00    +0.000 N 
ATOM      4  C   UNL     1      -6.334  16.128  22.207  0.00  0.00    +0.000 C 
ATOM      5  C   UNL     1      -7.416  16.400  21.147  0.00  0.00    +0.000 C 
ATOM      6  O   UNL     1      -6.908  17.198  20.063  0.00  0.00    +0.000 OA
ATOM      7  C   UNL     1      -5.786  16.550  19.442  0.00  0.00    +0.000 C 
ATOM      8  C   UNL     1      -4.651  16.320  20.457  0.00  0.00    +0.000 C 
ENDBRANCH   2   3
BRANCH   2   9
ATOM      9  N   UNL     1      -3.421  15.247  23.203  0.00  0.00    +0.000 N 
ATOM     10  C   UNL     1      -2.050  15.720  22.910  0.00  0.00    +0.000 C 
ATOM     11  C   UNL     1      -1.041  15.184  23.944  0.00  0.00    +0.000 C 
ATOM     12  O   UNL     1      -1.451  15.470  25.291  0.00  0.00    +0.000 OA
ATOM     13  C   UNL     1      -2.734  14.882  25.551  0.00  0.00    +0.000 C 
ATOM     14  C   UNL     1      -3.804  15.468  24.614  0.00  0.00    +0.000 C 
ENDBRANCH   2   9
BRANCH   1  15
ATOM     15  C   UNL     1      -5.300  12.635  21.179  0.00  0.00    +0.000 C 
ATOM     16 CL   UNL     1      -4.690  12.346  19.556  0.00  0.00    +0.000 Cl
ATOM     17  C   UNL     1      -6.528  12.255  21.572  0.00  0.00    +0.000 C 
ATOM     18 CL   UNL     1      -7.288  12.712  23.052  0.00  0.00    +0.000 Cl
BRANCH  17  19
ATOM     19  N   UNL     1      -7.263  11.352  20.700  0.00  0.00    +0.000 N 
ATOM     20  O   UNL     1      -7.194  10.146  20.952  0.00  0.00    +0.000 OA
ATOM     21  O   UNL     1      -7.857  11.853  19.732  0.00  0.00    +0.000 OA
ENDBRANCH  17  19
ENDBRANCH   1  15
BRANCH   1  23
ATOM     22  O   UNL     1      -2.325  12.248  22.173  0.00  0.00    +0.000 OA
ATOM     23  N   UNL     1      -3.415  12.446  22.733  0.00  0.00    +0.000 N 
ATOM     24  O   UNL     1      -3.780  11.932  23.797  0.00  0.00    +0.000 OA
ENDBRANCH   1  23
TORSDOF 5
ENDMDL
MODEL 6
REMARK VINA RESULT:      -5.5      0.890      1.534
REMARK  Name = 
REMARK  5 active torsions:
REMARK  status: ('A' for Active; 'I' for Inactive)
REMARK    1  A    between atoms: N_2  and  C_4
REMARK    2  A    between atoms: C_4  and  C_18
REMARK    3  A    between atoms: C_5  and  N_6
REMARK    4  A    between atoms: C_5  and  N_12
REMARK    5  A    between atoms: C_20  and  N_22
REMARK                            x       y       z     vdW  Elec       q    Type
REMARK                         _______ _______ _______ _____ _____    ______ ____
ROOT
ATOM      1  C   UNL     1       4.362   4.162  18.787  0.00  0.00    +0.000 C 
ATOM      2  C   UNL     1       3.155   4.790  18.893  0.00  0.00    +0.000 C 
ENDROOT
BRANCH   2   3
ATOM      3  N   UNL     1       3.109   6.157  18.552  0.00  0.00    +0.000 N 
ATOM      4  C   UNL     1       2.617   7.189  19.503  0.00  0.00    +0.000 C 
ATOM      5  C   UNL     1       2.084   8.398  18.715  0.00  0.00    +0.000 C 
ATOM      6  O   UNL     1       3.085   8.942  17.837  0.00  0.00    +0.000 OA
ATOM      7  C   UNL     1       3.546   7.941  16.916  0.00  0.00    +0.000 C 
ATOM      8  C   UNL     1       4.151   6.739  17.665  0.00  0.00    +0.000 C 
ENDBRANCH   2   3
BRANCH   2   9
ATOM      9  N   UNL     1       1.971   4.179  19.312  0.00  0.00    +0.000 N 
ATOM     10  C   UNL     1       1.538   4.018  20.717  0.00  0.00    +0.000 C 
ATOM     11  C   UNL     1       1.133   2.560  21.013  0.00  0.00    +0.000 C 
ATOM     12  O   UNL     1       0.160   2.074  20.073  0.00  0.00    +0.000 OA
ATOM     13  C   UNL     1       0.687   2.145  18.739  0.00  0.00    +0.000 C 
ATOM     14  C   UNL     1       1.006   3.600  18.354  0.00  0.00    +0.000 C 
ENDBRANCH   2   9
BRANCH   1  15
ATOM     15  C   UNL     1       5.578   4.736  18.248  0.00  0.00    +0.000 C 
ATOM     16 CL   UNL     1       6.529   5.592  19.453  0.00  0.00    +0.000 Cl
ATOM     17  C   UNL     1       5.963   4.624  16.965  0.00  0.00    +0.000 C 
ATOM     18 CL   UNL     1       4.983   4.022  15.678  0.00  0.00    +0.000 Cl
BRANCH  17  19
ATOM     19  N   UNL     1       7.329   5.002  16.637  0.00  0.00    +0.000 N 
ATOM     20  O   UNL     1       8.226   4.237  16.999  0.00  0.00    +0.000 OA
ATOM     21  O   UNL     1       7.497   6.094  16.071  0.00  0.00    +0.000 OA
ENDBRANCH  17  19
ENDBRANCH   1  15
BRANCH   1  23
ATOM     22  O   UNL     1       4.011   1.954  18.346  0.00  0.00    +0.000 OA
ATOM     23  N   UNL     1       4.437   2.776  19.174  0.00  0.00    +0.000 N 
ATOM     24  O   UNL     1       4.862   2.504  20.303  0.00  0.00    +0.000 OA
ENDBRANCH   1  23
TORSDOF 5
ENDMDL
MODEL 7
REMARK VINA RESULT:      -5.4      9.529     12.158
REMARK  Name = 
REMARK  5 active torsions:
REMARK  status: ('A' for Active; 'I' for Inactive)
REMARK    1  A    between atoms: N_2  and  C_4
REMARK    2  A    between atoms: C_4  and  C_18
REMARK    3  A    between atoms: C_5  and  N_6
REMARK    4  A    between atoms: C_5  and  N_12
REMARK    5  A    between atoms: C_20  and  N_22
REMARK                            x       y       z     vdW  Elec       q    Type
REMARK                         _______ _______ _______ _____ _____    ______ ____
ROOT
ATOM      1  C   UNL     1       8.440  14.732  20.040  0.00  0.00    +0.000 C 
ATOM      2  C   UNL     1       8.667  15.940  19.444  0.00  0.00    +0.000 C 
ENDROOT
BRANCH   2   3
ATOM      3  N   UNL     1       9.865  16.083  18.717  0.00  0.00    +0.000 N 
ATOM      4  C   UNL     1       9.871  16.325  17.250  0.00  0.00    +0.000 C 
ATOM      5  C   UNL     1      11.193  15.812  16.651  0.00  0.00    +0.000 C 
ATOM      6  O   UNL     1      12.332  16.426  17.279  0.00  0.00    +0.000 OA
ATOM      7  C   UNL     1      12.323  16.178  18.694  0.00  0.00    +0.000 C 
ATOM      8  C   UNL     1      11.044  16.737  19.344  0.00  0.00    +0.000 C 
ENDBRANCH   2   3
BRANCH   2   9
ATOM      9  N   UNL     1       7.802  17.035  19.504  0.00  0.00    +0.000 N 
ATOM     10  C   UNL     1       7.909  18.163  20.454  0.00  0.00    +0.000 C 
ATOM     11  C   UNL     1       6.565  18.427  21.161  0.00  0.00    +0.000 C 
ATOM     12  O   UNL     1       5.489  18.592  20.222  0.00  0.00    +0.000 OA
ATOM     13  C   UNL     1       5.360  17.414  19.411  0.00  0.00    +0.000 C 
ATOM     14  C   UNL     1       6.642  17.168  18.597  0.00  0.00    +0.000 C 
ENDBRANCH   2   9
BRANCH   1  15
ATOM     15  C   UNL     1       9.259  13.546  19.901  0.00  0.00    +0.000 C 
ATOM     16 CL   UNL     1      10.453  13.380  21.180  0.00  0.00    +0.000 Cl
ATOM     17  C   UNL     1       9.125  12.646  18.912  0.00  0.00    +0.000 C 
ATOM     18 CL   UNL     1       8.158  12.854  17.497  0.00  0.00    +0.000 Cl
BRANCH  17  19
ATOM     19  N   UNL     1       9.817  11.375  19.060  0.00  0.00    +0.000 N 
ATOM     20  O   UNL     1       9.187  10.448  19.575  0.00  0.00    +0.000 OA
ATOM     21  O   UNL     1      11.008  11.332  18.714  0.00  0.00    +0.000 OA
ENDBRANCH  17  19
ENDBRANCH   1  15
BRANCH   1  23
ATOM     22  O   UNL     1       7.355  14.794  22.043  0.00  0.00    +0.000 OA
ATOM     23  N   UNL     1       7.241  14.583  20.825  0.00  0.00    +0.000 N 
ATOM     24  O   UNL     1       6.210  14.209  20.254  0.00  0.00    +0.000 OA
ENDBRANCH   1  23
TORSDOF 5
ENDMDL
MODEL 8
REMARK VINA RESULT:      -5.4      8.450     10.925
REMARK  Name = 
REMARK  5 active torsions:
REMARK  status: ('A' for Active; 'I' for Inactive)
REMARK    1  A    between atoms: N_2  and  C_4
REMARK    2  A    between atoms: C_4  and  C_18
REMARK    3  A    between atoms: C_5  and  N_6
REMARK    4  A    between atoms: C_5  and  N_12
REMARK    5  A    between atoms: C_20  and  N_22
REMARK                            x       y       z     vdW  Elec       q    Type
REMARK                         _______ _______ _______ _____ _____    ______ ____
ROOT
ATOM      1  C   UNL     1      -2.982  12.702  19.896  0.00  0.00    +0.000 C 
ATOM      2  C   UNL     1      -3.928  12.146  19.084  0.00  0.00    +0.000 C 
ENDROOT
BRANCH   2   3
ATOM      3  N   UNL     1      -3.471  11.383  17.992  0.00  0.00    +0.000 N 
ATOM      4  C   UNL     1      -2.845  10.046  18.172  0.00  0.00    +0.000 C 
ATOM      5  C   UNL     1      -1.907   9.755  16.988  0.00  0.00    +0.000 C 
ATOM      6  O   UNL     1      -2.601   9.833  15.730  0.00  0.00    +0.000 OA
ATOM      7  C   UNL     1      -3.193  11.130  15.560  0.00  0.00    +0.000 C 
ATOM      8  C   UNL     1      -4.192  11.434  16.692  0.00  0.00    +0.000 C 
ENDBRANCH   2   3
BRANCH   2   9
ATOM      9  N   UNL     1      -5.308  12.281  19.257  0.00  0.00    +0.000 N 
ATOM     10  C   UNL     1      -6.095  13.501  18.975  0.00  0.00    +0.000 C 
ATOM     11  C   UNL     1      -6.990  13.877  20.172  0.00  0.00    +0.000 C 
ATOM     12  O   UNL     1      -7.809  12.773  20.595  0.00  0.00    +0.000 OA
ATOM     13  C   UNL     1      -6.981  11.661  20.969  0.00  0.00    +0.000 C 
ATOM     14  C   UNL     1      -6.144  11.177  19.773  0.00  0.00    +0.000 C 
ENDBRANCH   2   9
BRANCH   1  15
ATOM     15  C   UNL     1      -1.552  12.487  19.810  0.00  0.00    +0.000 C 
ATOM     16 CL   UNL     1      -0.847  13.131  18.334  0.00  0.00    +0.000 Cl
ATOM     17  C   UNL     1      -0.821  11.874  20.757  0.00  0.00    +0.000 C 
ATOM     18 CL   UNL     1      -1.460  11.005  22.104  0.00  0.00    +0.000 Cl
BRANCH  17  19
ATOM     19  N   UNL     1       0.627  11.984  20.665  0.00  0.00    +0.000 N 
ATOM     20  O   UNL     1       1.215  11.123  20.007  0.00  0.00    +0.000 OA
ATOM     21  O   UNL     1       1.170  12.900  21.303  0.00  0.00    +0.000 OA
ENDBRANCH  17  19
ENDBRANCH   1  15
BRANCH   1  23
ATOM     22  O   UNL     1      -3.927  12.921  21.958  0.00  0.00    +0.000 OA
ATOM     23  N   UNL     1      -3.432  13.523  20.991  0.00  0.00    +0.000 N 
ATOM     24  O   UNL     1      -3.347  14.751  20.877  0.00  0.00    +0.000 OA
ENDBRANCH   1  23
TORSDOF 5
ENDMDL
MODEL 9
REMARK VINA RESULT:      -5.4     12.152     13.997
REMARK  Name = 
REMARK  5 active torsions:
REMARK  status: ('A' for Active; 'I' for Inactive)
REMARK    1  A    between atoms: N_2  and  C_4
REMARK    2  A    between atoms: C_4  and  C_18
REMARK    3  A    between atoms: C_5  and  N_6
REMARK    4  A    between atoms: C_5  and  N_12
REMARK    5  A    between atoms: C_20  and  N_22
REMARK                            x       y       z     vdW  Elec       q    Type
REMARK                         _______ _______ _______ _____ _____    ______ ____
ROOT
ATOM      1  C   UNL     1      -4.707  13.312  22.428  0.00  0.00    +0.000 C 
ATOM      2  C   UNL     1      -4.498  14.659  22.513  0.00  0.00    +0.000 C 
ENDROOT
BRANCH   2   3
ATOM      3  N   UNL     1      -5.358  15.491  21.770  0.00  0.00    +0.000 N 
ATOM      4  C   UNL     1      -6.332  16.403  22.426  0.00  0.00    +0.000 C 
ATOM      5  C   UNL     1      -7.508  16.671  21.469  0.00  0.00    +0.000 C 
ATOM      6  O   UNL     1      -7.058  17.214  20.216  0.00  0.00    +0.000 OA
ATOM      7  C   UNL     1      -6.126  16.322  19.585  0.00  0.00    +0.000 C 
ATOM      8  C   UNL     1      -4.899  16.079  20.483  0.00  0.00    +0.000 C 
ENDBRANCH   2   3
BRANCH   2   9
ATOM      9  N   UNL     1      -3.499  15.266  23.278  0.00  0.00    +0.000 N 
ATOM     10  C   UNL     1      -2.136  15.595  22.806  0.00  0.00    +0.000 C 
ATOM     11  C   UNL     1      -1.065  15.067  23.779  0.00  0.00    +0.000 C 
ATOM     12  O   UNL     1      -1.306  15.501  25.129  0.00  0.00    +0.000 OA
ATOM     13  C   UNL     1      -2.595  15.047  25.569  0.00  0.00    +0.000 C 
ATOM     14  C   UNL     1      -3.712  15.638  24.692  0.00  0.00    +0.000 C 
ENDBRANCH   2   9
BRANCH   1  15
ATOM     15  C   UNL     1      -5.801  12.661  21.739  0.00  0.00    +0.000 C 
ATOM     16 CL   UNL     1      -7.214  12.426  22.757  0.00  0.00    +0.000 Cl
ATOM     17  C   UNL     1      -5.764  12.283  20.449  0.00  0.00    +0.000 C 
ATOM     18 CL   UNL     1      -4.351  12.252  19.458  0.00  0.00    +0.000 Cl
BRANCH  17  19
ATOM     19  N   UNL     1      -7.022  11.906  19.822  0.00  0.00    +0.000 N 
ATOM     20  O   UNL     1      -7.716  12.816  19.364  0.00  0.00    +0.000 OA
ATOM     21  O   UNL     1      -7.332  10.704  19.846  0.00  0.00    +0.000 OA
ENDBRANCH  17  19
ENDBRANCH   1  15
BRANCH   1  23
ATOM     22  O   UNL     1      -2.767  12.121  22.551  0.00  0.00    +0.000 OA
ATOM     23  N   UNL     1      -3.808  12.445  23.147  0.00  0.00    +0.000 N 
ATOM     24  O   UNL     1      -4.149  12.043  24.265  0.00  0.00    +0.000 OA
ENDBRANCH   1  23
TORSDOF 5
ENDMDL
