MODEL 1
REMARK VINA RESULT:      -8.7      0.000      0.000
REMARK  Name = 
REMARK  7 active torsions:
REMARK  status: ('A' for Active; 'I' for Inactive)
REMARK    1  A    between atoms: C_1  and  C_2
REMARK    2  A    between atoms: C_5  and  C_6
REMARK    3  A    between atoms: C_6  and  N_7
REMARK    4  A    between atoms: N_7  and  C_8
REMARK    5  A    between atoms: C_11  and  C_12
REMARK    6  A    between atoms: C_18  and  C_19
REMARK    7  A    between atoms: C_22  and  C_23
REMARK                            x       y       z     vdW  Elec       q    Type
REMARK                         _______ _______ _______ _____ _____    ______ ____
ROOT
ATOM      1  C   UNL     1       2.431   6.778  20.083  0.00  0.00    +0.000 A 
ATOM      2  N   UNL     1       1.487   7.539  20.680  0.00  0.00    +0.000 NA
ATOM      3  C   UNL     1       1.056   8.674  20.079  0.00  0.00    +0.000 A 
ATOM      4  C   UNL     1       0.125   9.523  20.696  0.00  0.00    +0.000 A 
ATOM      5  C   UNL     1      -0.398   9.235  22.077  0.00  0.00    +0.000 C 
ATOM      6  C   UNL     1      -0.340  10.683  20.046  0.00  0.00    +0.000 A 
ATOM      7  C   UNL     1       0.123  11.023  18.781  0.00  0.00    +0.000 A 
ATOM      8  C   UNL     1       1.067  10.215  18.164  0.00  0.00    +0.000 A 
ATOM      9  C   UNL     1       1.534   9.057  18.805  0.00  0.00    +0.000 A 
ATOM     10  C   UNL     1       2.495   8.259  18.189  0.00  0.00    +0.000 A 
ATOM     11  C   UNL     1       2.969   7.114  18.833  0.00  0.00    +0.000 A 
ENDROOT
BRANCH  11  12
ATOM     12  C   UNL     1       3.959   6.275  18.176  0.00  0.00    +0.000 A 
ATOM     13  N   UNL     1       4.900   5.574  18.833  0.00  0.00    +0.000 NA
ATOM     14  O   UNL     1       5.640   4.981  17.811  0.00  0.00    +0.000 OA
ATOM     15  C   UNL     1       5.060   5.362  16.636  0.00  0.00    +0.000 A 
ATOM     16  N   UNL     1       4.008   6.128  16.807  0.00  0.00    +0.000 NA
BRANCH  15  17
ATOM     17  C   UNL     1       5.679   4.914  15.402  0.00  0.00    +0.000 A 
ATOM     18  C   UNL     1       6.969   5.310  15.025  0.00  0.00    +0.000 A 
ATOM     19  C   UNL     1       7.519   4.886  13.818  0.00  0.00    +0.000 A 
ATOM     20  C   UNL     1       6.786   4.059  12.965  0.00  0.00    +0.000 A 
ATOM     21  C   UNL     1       5.504   3.647  13.328  0.00  0.00    +0.000 A 
ATOM     22  C   UNL     1       4.954   4.071  14.538  0.00  0.00    +0.000 A 
ENDBRANCH  15  17
ENDBRANCH  11  12
BRANCH   1  23
ATOM     23  N   UNL     1       2.857   5.621  20.709  0.00  0.00    +0.000 N 
ATOM     24  H   UNL     1       3.688   5.762  21.278  0.00  0.00    +0.000 HD
BRANCH  23  25
ATOM     25  C   UNL     1       1.973   4.565  21.146  0.00  0.00    +0.000 C 
BRANCH  25  30
ATOM     26  C   UNL     1       3.722   1.421  17.858  0.00  0.00    +0.000 C 
ATOM     27  C   UNL     1       2.636   2.090  18.600  0.00  0.00    +0.000 A 
ATOM     28  C   UNL     1       1.265   1.956  18.574  0.00  0.00    +0.000 A 
ATOM     29  C   UNL     1       0.762   2.866  19.528  0.00  0.00    +0.000 A 
ATOM     30  C   UNL     1       1.856   3.506  20.085  0.00  0.00    +0.000 A 
ATOM     31  O   UNL     1       3.004   3.036  19.513  0.00  0.00    +0.000 OA
ENDBRANCH  25  30
ENDBRANCH  23  25
ENDBRANCH   1  23
TORSDOF 5
ENDMDL
MODEL 2
REMARK VINA RESULT:      -8.5      3.576      8.655
REMARK  Name = 
REMARK  7 active torsions:
REMARK  status: ('A' for Active; 'I' for Inactive)
REMARK    1  A    between atoms: C_1  and  C_2
REMARK    2  A    between atoms: C_5  and  C_6
REMARK    3  A    between atoms: C_6  and  N_7
REMARK    4  A    between atoms: N_7  and  C_8
REMARK    5  A    between atoms: C_11  and  C_12
REMARK    6  A    between atoms: C_18  and  C_19
REMARK    7  A    between atoms: C_22  and  C_23
REMARK                            x       y       z     vdW  Elec       q    Type
REMARK                         _______ _______ _______ _____ _____    ______ ____
ROOT
ATOM      1  C   UNL     1       7.128   5.622  15.971  0.00  0.00    +0.000 A 
ATOM      2  N   UNL     1       7.583   5.835  14.716  0.00  0.00    +0.000 NA
ATOM      3  C   UNL     1       7.211   5.002  13.714  0.00  0.00    +0.000 A 
ATOM      4  C   UNL     1       7.712   5.151  12.413  0.00  0.00    +0.000 A 
ATOM      5  C   UNL     1       8.724   6.214  12.084  0.00  0.00    +0.000 C 
ATOM      6  C   UNL     1       7.292   4.300  11.372  0.00  0.00    +0.000 A 
ATOM      7  C   UNL     1       6.380   3.280  11.612  0.00  0.00    +0.000 A 
ATOM      8  C   UNL     1       5.894   3.093  12.898  0.00  0.00    +0.000 A 
ATOM      9  C   UNL     1       6.307   3.939  13.940  0.00  0.00    +0.000 A 
ATOM     10  C   UNL     1       5.830   3.737  15.233  0.00  0.00    +0.000 A 
ATOM     11  C   UNL     1       6.251   4.570  16.271  0.00  0.00    +0.000 A 
ENDROOT
BRANCH  11  12
ATOM     12  C   UNL     1       5.735   4.365  17.615  0.00  0.00    +0.000 A 
ATOM     13  N   UNL     1       6.500   4.378  18.721  0.00  0.00    +0.000 NA
ATOM     14  O   UNL     1       5.601   4.085  19.745  0.00  0.00    +0.000 OA
ATOM     15  C   UNL     1       4.375   3.947  19.162  0.00  0.00    +0.000 A 
ATOM     16  N   UNL     1       4.399   4.140  17.865  0.00  0.00    +0.000 NA
BRANCH  15  17
ATOM     17  C   UNL     1       3.259   3.585  20.018  0.00  0.00    +0.000 A 
ATOM     18  C   UNL     1       3.355   2.581  20.990  0.00  0.00    +0.000 A 
ATOM     19  C   UNL     1       2.254   2.239  21.770  0.00  0.00    +0.000 A 
ATOM     20  C   UNL     1       1.036   2.895  21.590  0.00  0.00    +0.000 A 
ATOM     21  C   UNL     1       0.924   3.904  20.633  0.00  0.00    +0.000 A 
ATOM     22  C   UNL     1       2.027   4.248  19.853  0.00  0.00    +0.000 A 
ENDBRANCH  15  17
ENDBRANCH  11  12
BRANCH   1  23
ATOM     23  N   UNL     1       7.514   6.483  16.981  0.00  0.00    +0.000 N 
ATOM     24  H   UNL     1       8.516   6.469  17.152  0.00  0.00    +0.000 HD
BRANCH  23  25
ATOM     25  C   UNL     1       6.848   7.730  17.281  0.00  0.00    +0.000 C 
BRANCH  25  30
ATOM     26  C   UNL     1       8.920  12.107  17.836  0.00  0.00    +0.000 C 
ATOM     27  C   UNL     1       8.752  10.674  18.148  0.00  0.00    +0.000 A 
ATOM     28  C   UNL     1       9.370   9.836  19.049  0.00  0.00    +0.000 A 
ATOM     29  C   UNL     1       8.766   8.570  18.888  0.00  0.00    +0.000 A 
ATOM     30  C   UNL     1       7.812   8.707  17.894  0.00  0.00    +0.000 A 
ATOM     31  O   UNL     1       7.807   9.994  17.436  0.00  0.00    +0.000 OA
ENDBRANCH  25  30
ENDBRANCH  23  25
ENDBRANCH   1  23
TORSDOF 5
ENDMDL
MODEL 3
REMARK VINA RESULT:      -8.5      1.353      2.155
REMARK  Name = 
REMARK  7 active torsions:
REMARK  status: ('A' for Active; 'I' for Inactive)
REMARK    1  A    between atoms: C_1  and  C_2
REMARK    2  A    between atoms: C_5  and  C_6
REMARK    3  A    between atoms: C_6  and  N_7
REMARK    4  A    between atoms: N_7  and  C_8
REMARK    5  A    between atoms: C_11  and  C_12
REMARK    6  A    between atoms: C_18  and  C_19
REMARK    7  A    between atoms: C_22  and  C_23
REMARK                            x       y       z     vdW  Elec       q    Type
REMARK                         _______ _______ _______ _____ _____    ______ ____
ROOT
ATOM      1  C   UNL     1       3.801   6.393  18.890  0.00  0.00    +0.000 A 
ATOM      2  N   UNL     1       2.849   6.853  19.732  0.00  0.00    +0.000 NA
ATOM      3  C   UNL     1       2.128   7.951  19.400  0.00  0.00    +0.000 A 
ATOM      4  C   UNL     1       1.176   8.495  20.274  0.00  0.00    +0.000 A 
ATOM      5  C   UNL     1       0.949   7.911  21.642  0.00  0.00    +0.000 C 
ATOM      6  C   UNL     1       0.409   9.618  19.904  0.00  0.00    +0.000 A 
ATOM      7  C   UNL     1       0.588  10.223  18.666  0.00  0.00    +0.000 A 
ATOM      8  C   UNL     1       1.545   9.721  17.797  0.00  0.00    +0.000 A 
ATOM      9  C   UNL     1       2.312   8.602  18.159  0.00  0.00    +0.000 A 
ATOM     10  C   UNL     1       3.285   8.112  17.290  0.00  0.00    +0.000 A 
ATOM     11  C   UNL     1       4.055   7.008  17.656  0.00  0.00    +0.000 A 
ENDROOT
BRANCH  11  12
ATOM     12  C   UNL     1       5.057   6.490  16.736  0.00  0.00    +0.000 A 
ATOM     13  N   UNL     1       6.364   6.795  16.804  0.00  0.00    +0.000 NA
ATOM     14  O   UNL     1       6.913   6.129  15.710  0.00  0.00    +0.000 OA
ATOM     15  C   UNL     1       5.888   5.467  15.100  0.00  0.00    +0.000 A 
ATOM     16  N   UNL     1       4.737   5.630  15.709  0.00  0.00    +0.000 NA
BRANCH  15  17
ATOM     17  C   UNL     1       6.190   4.726  13.888  0.00  0.00    +0.000 A 
ATOM     18  C   UNL     1       5.372   3.689  13.421  0.00  0.00    +0.000 A 
ATOM     19  C   UNL     1       5.711   2.979  12.272  0.00  0.00    +0.000 A 
ATOM     20  C   UNL     1       6.875   3.294  11.571  0.00  0.00    +0.000 A 
ATOM     21  C   UNL     1       7.697   4.330  12.015  0.00  0.00    +0.000 A 
ATOM     22  C   UNL     1       7.357   5.042  13.165  0.00  0.00    +0.000 A 
ENDBRANCH  15  17
ENDBRANCH  11  12
BRANCH   1  23
ATOM     23  N   UNL     1       4.525   5.269  19.243  0.00  0.00    +0.000 N 
ATOM     24  H   UNL     1       4.842   5.289  20.209  0.00  0.00    +0.000 HD
BRANCH  23  25
ATOM     25  C   UNL     1       4.300   3.955  18.687  0.00  0.00    +0.000 C 
BRANCH  25  30
ATOM     26  C   UNL     1       1.161   2.389  22.071  0.00  0.00    +0.000 C 
ATOM     27  C   UNL     1       1.570   2.690  20.685  0.00  0.00    +0.000 A 
ATOM     28  C   UNL     1       0.921   2.582  19.475  0.00  0.00    +0.000 A 
ATOM     29  C   UNL     1       1.831   3.038  18.498  0.00  0.00    +0.000 A 
ATOM     30  C   UNL     1       2.988   3.399  19.167  0.00  0.00    +0.000 A 
ATOM     31  O   UNL     1       2.831   3.181  20.507  0.00  0.00    +0.000 OA
ENDBRANCH  25  30
ENDBRANCH  23  25
ENDBRANCH   1  23
TORSDOF 5
ENDMDL
MODEL 4
REMARK VINA RESULT:      -8.5      2.493      7.626
REMARK  Name = 
REMARK  7 active torsions:
REMARK  status: ('A' for Active; 'I' for Inactive)
REMARK    1  A    between atoms: C_1  and  C_2
REMARK    2  A    between atoms: C_5  and  C_6
REMARK    3  A    between atoms: C_6  and  N_7
REMARK    4  A    between atoms: N_7  and  C_8
REMARK    5  A    between atoms: C_11  and  C_12
REMARK    6  A    between atoms: C_18  and  C_19
REMARK    7  A    between atoms: C_22  and  C_23
REMARK                            x       y       z     vdW  Elec       q    Type
REMARK                         _______ _______ _______ _____ _____    ______ ____
ROOT
ATOM      1  C   UNL     1       3.510   6.007  18.066  0.00  0.00    +0.000 A 
ATOM      2  N   UNL     1       3.807   4.732  18.401  0.00  0.00    +0.000 NA
ATOM      3  C   UNL     1       3.225   4.167  19.487  0.00  0.00    +0.000 A 
ATOM      4  C   UNL     1       3.555   2.869  19.903  0.00  0.00    +0.000 A 
ATOM      5  C   UNL     1       4.609   2.065  19.191  0.00  0.00    +0.000 C 
ATOM      6  C   UNL     1       2.918   2.280  21.014  0.00  0.00    +0.000 A 
ATOM      7  C   UNL     1       1.956   2.977  21.733  0.00  0.00    +0.000 A 
ATOM      8  C   UNL     1       1.635   4.274  21.358  0.00  0.00    +0.000 A 
ATOM      9  C   UNL     1       2.264   4.866  20.252  0.00  0.00    +0.000 A 
ATOM     10  C   UNL     1       1.952   6.175  19.890  0.00  0.00    +0.000 A 
ATOM     11  C   UNL     1       2.587   6.768  18.798  0.00  0.00    +0.000 A 
ENDROOT
BRANCH  11  12
ATOM     12  C   UNL     1       2.243   8.128  18.415  0.00  0.00    +0.000 A 
ATOM     13  N   UNL     1       2.682   8.723  17.292  0.00  0.00    +0.000 NA
ATOM     14  O   UNL     1       2.154  10.011  17.375  0.00  0.00    +0.000 OA
ATOM     15  C   UNL     1       1.427  10.062  18.529  0.00  0.00    +0.000 A 
ATOM     16  N   UNL     1       1.424   8.925  19.185  0.00  0.00    +0.000 NA
BRANCH  15  17
ATOM     17  C   UNL     1       0.806  11.327  18.880  0.00  0.00    +0.000 A 
ATOM     18  C   UNL     1       1.548  12.421  19.344  0.00  0.00    +0.000 A 
ATOM     19  C   UNL     1       0.914  13.608  19.701  0.00  0.00    +0.000 A 
ATOM     20  C   UNL     1      -0.472  13.721  19.603  0.00  0.00    +0.000 A 
ATOM     21  C   UNL     1      -1.226  12.645  19.133  0.00  0.00    +0.000 A 
ATOM     22  C   UNL     1      -0.592  11.456  18.774  0.00  0.00    +0.000 A 
ENDBRANCH  15  17
ENDBRANCH  11  12
BRANCH   1  23
ATOM     23  N   UNL     1       4.110   6.568  16.954  0.00  0.00    +0.000 N 
ATOM     24  H   UNL     1       3.915   7.561  16.856  0.00  0.00    +0.000 HD
BRANCH  23  25
ATOM     25  C   UNL     1       5.371   6.122  16.404  0.00  0.00    +0.000 C 
BRANCH  25  30
ATOM     26  C   UNL     1       8.488   9.476  18.074  0.00  0.00    +0.000 C 
ATOM     27  C   UNL     1       7.923   8.114  18.004  0.00  0.00    +0.000 A 
ATOM     28  C   UNL     1       8.229   6.941  18.658  0.00  0.00    +0.000 A 
ATOM     29  C   UNL     1       7.324   5.972  18.174  0.00  0.00    +0.000 A 
ATOM     30  C   UNL     1       6.514   6.610  17.250  0.00  0.00    +0.000 A 
ATOM     31  O   UNL     1       6.884   7.921  17.141  0.00  0.00    +0.000 OA
ENDBRANCH  25  30
ENDBRANCH  23  25
ENDBRANCH   1  23
TORSDOF 5
ENDMDL
MODEL 5
REMARK VINA RESULT:      -8.5      2.069      7.299
REMARK  Name = 
REMARK  7 active torsions:
REMARK  status: ('A' for Active; 'I' for Inactive)
REMARK    1  A    between atoms: C_1  and  C_2
REMARK    2  A    between atoms: C_5  and  C_6
REMARK    3  A    between atoms: C_6  and  N_7
REMARK    4  A    between atoms: N_7  and  C_8
REMARK    5  A    between atoms: C_11  and  C_12
REMARK    6  A    between atoms: C_18  and  C_19
REMARK    7  A    between atoms: C_22  and  C_23
REMARK                            x       y       z     vdW  Elec       q    Type
REMARK                         _______ _______ _______ _____ _____    ______ ____
ROOT
ATOM      1  C   UNL     1       3.765   5.961  18.481  0.00  0.00    +0.000 A 
ATOM      2  N   UNL     1       4.030   4.702  18.893  0.00  0.00    +0.000 NA
ATOM      3  C   UNL     1       3.192   4.085  19.761  0.00  0.00    +0.000 A 
ATOM      4  C   UNL     1       3.468   2.804  20.261  0.00  0.00    +0.000 A 
ATOM      5  C   UNL     1       4.733   2.078  19.893  0.00  0.00    +0.000 C 
ATOM      6  C   UNL     1       2.571   2.160  21.136  0.00  0.00    +0.000 A 
ATOM      7  C   UNL     1       1.398   2.784  21.539  0.00  0.00    +0.000 A 
ATOM      8  C   UNL     1       1.119   4.064  21.081  0.00  0.00    +0.000 A 
ATOM      9  C   UNL     1       2.007   4.712  20.207  0.00  0.00    +0.000 A 
ATOM     10  C   UNL     1       1.732   6.004  19.765  0.00  0.00    +0.000 A 
ATOM     11  C   UNL     1       2.620   6.652  18.906  0.00  0.00    +0.000 A 
ENDROOT
BRANCH  11  12
ATOM     12  C   UNL     1       2.319   7.994  18.434  0.00  0.00    +0.000 A 
ATOM     13  N   UNL     1       2.748   8.489  17.260  0.00  0.00    +0.000 NA
ATOM     14  O   UNL     1       2.272   9.799  17.263  0.00  0.00    +0.000 OA
ATOM     15  C   UNL     1       1.581   9.962  18.428  0.00  0.00    +0.000 A 
ATOM     16  N   UNL     1       1.554   8.876  19.164  0.00  0.00    +0.000 NA
BRANCH  15  17
ATOM     17  C   UNL     1       1.020  11.273  18.702  0.00  0.00    +0.000 A 
ATOM     18  C   UNL     1       1.811  12.428  18.761  0.00  0.00    +0.000 A 
ATOM     19  C   UNL     1       1.243  13.664  19.058  0.00  0.00    +0.000 A 
ATOM     20  C   UNL     1      -0.127  13.766  19.303  0.00  0.00    +0.000 A 
ATOM     21  C   UNL     1      -0.931  12.628  19.238  0.00  0.00    +0.000 A 
ATOM     22  C   UNL     1      -0.363  11.391  18.940  0.00  0.00    +0.000 A 
ENDBRANCH  15  17
ENDBRANCH  11  12
BRANCH   1  23
ATOM     23  N   UNL     1       4.628   6.575  17.593  0.00  0.00    +0.000 N 
ATOM     24  H   UNL     1       4.446   7.569  17.486  0.00  0.00    +0.000 HD
BRANCH  23  25
ATOM     25  C   UNL     1       5.998   6.165  17.382  0.00  0.00    +0.000 C 
BRANCH  25  30
ATOM     26  C   UNL     1       7.962   5.210  13.024  0.00  0.00    +0.000 C 
ATOM     27  C   UNL     1       7.005   4.976  14.124  0.00  0.00    +0.000 A 
ATOM     28  C   UNL     1       6.006   4.046  14.311  0.00  0.00    +0.000 A 
ATOM     29  C   UNL     1       5.441   4.324  15.574  0.00  0.00    +0.000 A 
ATOM     30  C   UNL     1       6.128   5.410  16.089  0.00  0.00    +0.000 A 
ATOM     31  O   UNL     1       7.082   5.814  15.199  0.00  0.00    +0.000 OA
ENDBRANCH  25  30
ENDBRANCH  23  25
ENDBRANCH   1  23
TORSDOF 5
ENDMDL
MODEL 6
REMARK VINA RESULT:      -8.4      1.670      3.130
REMARK  Name = 
REMARK  7 active torsions:
REMARK  status: ('A' for Active; 'I' for Inactive)
REMARK    1  A    between atoms: C_1  and  C_2
REMARK    2  A    between atoms: C_5  and  C_6
REMARK    3  A    between atoms: C_6  and  N_7
REMARK    4  A    between atoms: N_7  and  C_8
REMARK    5  A    between atoms: C_11  and  C_12
REMARK    6  A    between atoms: C_18  and  C_19
REMARK    7  A    between atoms: C_22  and  C_23
REMARK                            x       y       z     vdW  Elec       q    Type
REMARK                         _______ _______ _______ _____ _____    ______ ____
ROOT
ATOM      1  C   UNL     1       4.250   5.053  17.920  0.00  0.00    +0.000 A 
ATOM      2  N   UNL     1       3.417   5.459  18.904  0.00  0.00    +0.000 NA
ATOM      3  C   UNL     1       2.875   6.700  18.859  0.00  0.00    +0.000 A 
ATOM      4  C   UNL     1       2.058   7.180  19.893  0.00  0.00    +0.000 A 
ATOM      5  C   UNL     1       1.790   6.356  21.123  0.00  0.00    +0.000 C 
ATOM      6  C   UNL     1       1.472   8.460  19.819  0.00  0.00    +0.000 A 
ATOM      7  C   UNL     1       1.701   9.284  18.724  0.00  0.00    +0.000 A 
ATOM      8  C   UNL     1       2.530   8.842  17.704  0.00  0.00    +0.000 A 
ATOM      9  C   UNL     1       3.116   7.567  17.770  0.00  0.00    +0.000 A 
ATOM     10  C   UNL     1       3.962   7.135  16.751  0.00  0.00    +0.000 A 
ATOM     11  C   UNL     1       4.554   5.873  16.824  0.00  0.00    +0.000 A 
ENDROOT
BRANCH  11  12
ATOM     12  C   UNL     1       5.422   5.420  15.748  0.00  0.00    +0.000 A 
ATOM     13  N   UNL     1       6.616   5.971  15.467  0.00  0.00    +0.000 NA
ATOM     14  O   UNL     1       7.048   5.263  14.347  0.00  0.00    +0.000 OA
ATOM     15  C   UNL     1       6.084   4.337  14.073  0.00  0.00    +0.000 A 
ATOM     16  N   UNL     1       5.083   4.371  14.922  0.00  0.00    +0.000 NA
BRANCH  15  17
ATOM     17  C   UNL     1       6.271   3.493  12.907  0.00  0.00    +0.000 A 
ATOM     18  C   UNL     1       5.235   2.718  12.370  0.00  0.00    +0.000 A 
ATOM     19  C   UNL     1       5.460   1.895  11.269  0.00  0.00    +0.000 A 
ATOM     20  C   UNL     1       6.726   1.832  10.688  0.00  0.00    +0.000 A 
ATOM     21  C   UNL     1       7.768   2.604  11.203  0.00  0.00    +0.000 A 
ATOM     22  C   UNL     1       7.543   3.429  12.304  0.00  0.00    +0.000 A 
ENDBRANCH  15  17
ENDBRANCH  11  12
BRANCH   1  23
ATOM     23  N   UNL     1       4.792   3.782  17.979  0.00  0.00    +0.000 N 
ATOM     24  H   UNL     1       5.579   3.718  18.620  0.00  0.00    +0.000 HD
BRANCH  23  25
ATOM     25  C   UNL     1       4.029   2.568  17.803  0.00  0.00    +0.000 C 
BRANCH  25  30
ATOM     26  C   UNL     1       1.468   2.550  21.949  0.00  0.00    +0.000 C 
ATOM     27  C   UNL     1       1.607   2.607  20.481  0.00  0.00    +0.000 A 
ATOM     28  C   UNL     1       0.690   2.733  19.460  0.00  0.00    +0.000 A 
ATOM     29  C   UNL     1       1.435   2.739  18.261  0.00  0.00    +0.000 A 
ATOM     30  C   UNL     1       2.767   2.617  18.618  0.00  0.00    +0.000 A 
ATOM     31  O   UNL     1       2.873   2.530  19.977  0.00  0.00    +0.000 OA
ENDBRANCH  25  30
ENDBRANCH  23  25
ENDBRANCH   1  23
TORSDOF 5
ENDMDL
MODEL 7
REMARK VINA RESULT:      -8.4      1.471      2.472
REMARK  Name = 
REMARK  7 active torsions:
REMARK  status: ('A' for Active; 'I' for Inactive)
REMARK    1  A    between atoms: C_1  and  C_2
REMARK    2  A    between atoms: C_5  and  C_6
REMARK    3  A    between atoms: C_6  and  N_7
REMARK    4  A    between atoms: N_7  and  C_8
REMARK    5  A    between atoms: C_11  and  C_12
REMARK    6  A    between atoms: C_18  and  C_19
REMARK    7  A    between atoms: C_22  and  C_23
REMARK                            x       y       z     vdW  Elec       q    Type
REMARK                         _______ _______ _______ _____ _____    ______ ____
ROOT
ATOM      1  C   UNL     1       4.087   5.746  18.432  0.00  0.00    +0.000 A 
ATOM      2  N   UNL     1       3.220   6.211  19.359  0.00  0.00    +0.000 NA
ATOM      3  C   UNL     1       2.572   7.382  19.150  0.00  0.00    +0.000 A 
ATOM      4  C   UNL     1       1.715   7.928  20.116  0.00  0.00    +0.000 A 
ATOM      5  C   UNL     1       1.516   7.261  21.450  0.00  0.00    +0.000 C 
ATOM      6  C   UNL     1       1.020   9.130  19.872  0.00  0.00    +0.000 A 
ATOM      7  C   UNL     1       1.179   9.812  18.673  0.00  0.00    +0.000 A 
ATOM      8  C   UNL     1       2.046   9.307  17.715  0.00  0.00    +0.000 A 
ATOM      9  C   UNL     1       2.740   8.109  17.950  0.00  0.00    +0.000 A 
ATOM     10  C   UNL     1       3.622   7.615  16.992  0.00  0.00    +0.000 A 
ATOM     11  C   UNL     1       4.321   6.431  17.231  0.00  0.00    +0.000 A 
ENDROOT
BRANCH  11  12
ATOM     12  C   UNL     1       5.228   5.911  16.220  0.00  0.00    +0.000 A 
ATOM     13  N   UNL     1       6.501   6.318  16.075  0.00  0.00    +0.000 NA
ATOM     14  O   UNL     1       6.950   5.600  14.967  0.00  0.00    +0.000 OA
ATOM     15  C   UNL     1       5.912   4.812  14.563  0.00  0.00    +0.000 A 
ATOM     16  N   UNL     1       4.846   4.942  15.318  0.00  0.00    +0.000 NA
BRANCH  15  17
ATOM     17  C   UNL     1       6.107   3.993  13.381  0.00  0.00    +0.000 A 
ATOM     18  C   UNL     1       7.360   3.845  12.771  0.00  0.00    +0.000 A 
ATOM     19  C   UNL     1       7.503   3.077  11.619  0.00  0.00    +0.000 A 
ATOM     20  C   UNL     1       6.395   2.444  11.055  0.00  0.00    +0.000 A 
ATOM     21  C   UNL     1       5.141   2.572  11.654  0.00  0.00    +0.000 A 
ATOM     22  C   UNL     1       4.998   3.341  12.808  0.00  0.00    +0.000 A 
ENDBRANCH  15  17
ENDBRANCH  11  12
BRANCH   1  23
ATOM     23  N   UNL     1       4.737   4.547  18.660  0.00  0.00    +0.000 N 
ATOM     24  H   UNL     1       5.286   4.552  19.516  0.00  0.00    +0.000 HD
BRANCH  23  25
ATOM     25  C   UNL     1       4.225   3.259  18.253  0.00  0.00    +0.000 C 
BRANCH  25  30
ATOM     26  C   UNL     1       1.219   2.555  22.026  0.00  0.00    +0.000 C 
ATOM     27  C   UNL     1       1.531   2.678  20.588  0.00  0.00    +0.000 A 
ATOM     28  C   UNL     1       0.751   2.615  19.454  0.00  0.00    +0.000 A 
ATOM     29  C   UNL     1       1.624   2.821  18.364  0.00  0.00    +0.000 A 
ATOM     30  C   UNL     1       2.890   2.998  18.894  0.00  0.00    +0.000 A 
ATOM     31  O   UNL     1       2.835   2.905  20.256  0.00  0.00    +0.000 OA
ENDBRANCH  25  30
ENDBRANCH  23  25
ENDBRANCH   1  23
TORSDOF 5
ENDMDL
MODEL 8
REMARK VINA RESULT:      -8.2      3.379      8.386
REMARK  Name = 
REMARK  7 active torsions:
REMARK  status: ('A' for Active; 'I' for Inactive)
REMARK    1  A    between atoms: C_1  and  C_2
REMARK    2  A    between atoms: C_5  and  C_6
REMARK    3  A    between atoms: C_6  and  N_7
REMARK    4  A    between atoms: N_7  and  C_8
REMARK    5  A    between atoms: C_11  and  C_12
REMARK    6  A    between atoms: C_18  and  C_19
REMARK    7  A    between atoms: C_22  and  C_23
REMARK                            x       y       z     vdW  Elec       q    Type
REMARK                         _______ _______ _______ _____ _____    ______ ____
ROOT
ATOM      1  C   UNL     1       1.810   7.797  19.765  0.00  0.00    +0.000 A 
ATOM      2  N   UNL     1       2.499   6.634  19.787  0.00  0.00    +0.000 NA
ATOM      3  C   UNL     1       3.298   6.304  18.744  0.00  0.00    +0.000 A 
ATOM      4  C   UNL     1       3.978   5.078  18.701  0.00  0.00    +0.000 A 
ATOM      5  C   UNL     1       3.810   4.054  19.790  0.00  0.00    +0.000 C 
ATOM      6  C   UNL     1       4.832   4.760  17.627  0.00  0.00    +0.000 A 
ATOM      7  C   UNL     1       5.011   5.649  16.574  0.00  0.00    +0.000 A 
ATOM      8  C   UNL     1       4.325   6.855  16.580  0.00  0.00    +0.000 A 
ATOM      9  C   UNL     1       3.473   7.179  17.648  0.00  0.00    +0.000 A 
ATOM     10  C   UNL     1       2.772   8.382  17.641  0.00  0.00    +0.000 A 
ATOM     11  C   UNL     1       1.916   8.698  18.696  0.00  0.00    +0.000 A 
ENDROOT
BRANCH  11  12
ATOM     12  C   UNL     1       1.200   9.965  18.691  0.00  0.00    +0.000 A 
ATOM     13  N   UNL     1      -0.133  10.071  18.561  0.00  0.00    +0.000 NA
ATOM     14  O   UNL     1      -0.353  11.448  18.554  0.00  0.00    +0.000 OA
ATOM     15  C   UNL     1       0.867  12.040  18.704  0.00  0.00    +0.000 A 
ATOM     16  N   UNL     1       1.846  11.174  18.825  0.00  0.00    +0.000 NA
BRANCH  15  17
ATOM     17  C   UNL     1       0.920  13.491  18.678  0.00  0.00    +0.000 A 
ATOM     18  C   UNL     1      -0.234  14.283  18.724  0.00  0.00    +0.000 A 
ATOM     19  C   UNL     1      -0.147  15.671  18.664  0.00  0.00    +0.000 A 
ATOM     20  C   UNL     1       1.098  16.291  18.556  0.00  0.00    +0.000 A 
ATOM     21  C   UNL     1       2.259  15.519  18.518  0.00  0.00    +0.000 A 
ATOM     22  C   UNL     1       2.172  14.129  18.579  0.00  0.00    +0.000 A 
ENDBRANCH  15  17
ENDBRANCH  11  12
BRANCH   1  23
ATOM     23  N   UNL     1       1.001   8.120  20.839  0.00  0.00    +0.000 N 
ATOM     24  H   UNL     1       0.297   7.412  21.032  0.00  0.00    +0.000 HD
BRANCH  23  25
ATOM     25  C   UNL     1       1.441   8.890  21.980  0.00  0.00    +0.000 C 
BRANCH  25  30
ATOM     26  C   UNL     1      -0.629  13.301  22.132  0.00  0.00    +0.000 C 
ATOM     27  C   UNL     1      -0.552  11.864  22.460  0.00  0.00    +0.000 A 
ATOM     28  C   UNL     1      -1.376  11.024  23.177  0.00  0.00    +0.000 A 
ATOM     29  C   UNL     1      -0.775   9.747  23.129  0.00  0.00    +0.000 A 
ATOM     30  C   UNL     1       0.384   9.880  22.385  0.00  0.00    +0.000 A 
ATOM     31  O   UNL     1       0.525  11.177  21.979  0.00  0.00    +0.000 OA
ENDBRANCH  25  30
ENDBRANCH  23  25
ENDBRANCH   1  23
TORSDOF 5
ENDMDL
MODEL 9
REMARK VINA RESULT:      -8.2      4.286      7.808
REMARK  Name = 
REMARK  7 active torsions:
REMARK  status: ('A' for Active; 'I' for Inactive)
REMARK    1  A    between atoms: C_1  and  C_2
REMARK    2  A    between atoms: C_5  and  C_6
REMARK    3  A    between atoms: C_6  and  N_7
REMARK    4  A    between atoms: N_7  and  C_8
REMARK    5  A    between atoms: C_11  and  C_12
REMARK    6  A    between atoms: C_18  and  C_19
REMARK    7  A    between atoms: C_22  and  C_23
REMARK                            x       y       z     vdW  Elec       q    Type
REMARK                         _______ _______ _______ _____ _____    ______ ____
ROOT
ATOM      1  C   UNL     1      -1.070  12.268  20.925  0.00  0.00    +0.000 A 
ATOM      2  N   UNL     1      -1.954  13.286  21.012  0.00  0.00    +0.000 NA
ATOM      3  C   UNL     1      -2.812  13.346  22.059  0.00  0.00    +0.000 A 
ATOM      4  C   UNL     1      -3.787  14.351  22.151  0.00  0.00    +0.000 A 
ATOM      5  C   UNL     1      -3.954  15.378  21.064  0.00  0.00    +0.000 C 
ATOM      6  C   UNL     1      -4.651  14.423  23.261  0.00  0.00    +0.000 A 
ATOM      7  C   UNL     1      -4.569  13.490  24.287  0.00  0.00    +0.000 A 
ATOM      8  C   UNL     1      -3.634  12.469  24.203  0.00  0.00    +0.000 A 
ATOM      9  C   UNL     1      -2.768  12.392  23.100  0.00  0.00    +0.000 A 
ATOM     10  C   UNL     1      -1.842  11.355  23.011  0.00  0.00    +0.000 A 
ATOM     11  C   UNL     1      -0.990  11.272  21.909  0.00  0.00    +0.000 A 
ENDROOT
BRANCH  11  12
ATOM     12  C   UNL     1      -0.014  10.197  21.831  0.00  0.00    +0.000 A 
ATOM     13  N   UNL     1       0.920   9.964  22.769  0.00  0.00    +0.000 NA
ATOM     14  O   UNL     1       1.648   8.895  22.248  0.00  0.00    +0.000 OA
ATOM     15  C   UNL     1       1.069   8.570  21.056  0.00  0.00    +0.000 A 
ATOM     16  N   UNL     1       0.028   9.317  20.771  0.00  0.00    +0.000 NA
BRANCH  15  17
ATOM     17  C   UNL     1       1.678   7.506  20.278  0.00  0.00    +0.000 A 
ATOM     18  C   UNL     1       1.715   6.179  20.726  0.00  0.00    +0.000 A 
ATOM     19  C   UNL     1       2.336   5.190  19.968  0.00  0.00    +0.000 A 
ATOM     20  C   UNL     1       2.933   5.513  18.749  0.00  0.00    +0.000 A 
ATOM     21  C   UNL     1       2.898   6.827  18.282  0.00  0.00    +0.000 A 
ATOM     22  C   UNL     1       2.274   7.817  19.041  0.00  0.00    +0.000 A 
ENDBRANCH  15  17
ENDBRANCH  11  12
BRANCH   1  23
ATOM     23  N   UNL     1      -0.199  12.223  19.852  0.00  0.00    +0.000 N 
ATOM     24  H   UNL     1       0.554  11.553  19.981  0.00  0.00    +0.000 HD
BRANCH  23  25
ATOM     25  C   UNL     1      -0.590  12.468  18.482  0.00  0.00    +0.000 C 
BRANCH  25  30
ATOM     26  C   UNL     1      -5.159  11.142  17.423  0.00  0.00    +0.000 C 
ATOM     27  C   UNL     1      -3.713  10.892  17.585  0.00  0.00    +0.000 A 
ATOM     28  C   UNL     1      -2.932   9.774  17.397  0.00  0.00    +0.000 A 
ATOM     29  C   UNL     1      -1.609  10.161  17.702  0.00  0.00    +0.000 A 
ATOM     30  C   UNL     1      -1.658  11.497  18.060  0.00  0.00    +0.000 A 
ATOM     31  O   UNL     1      -2.947  11.945  17.994  0.00  0.00    +0.000 OA
ENDBRANCH  25  30
ENDBRANCH  23  25
ENDBRANCH   1  23
TORSDOF 5
ENDMDL
