MODEL 1
REMARK VINA RESULT:      -7.2      0.000      0.000
REMARK  Name = 
REMARK  2 active torsions:
REMARK  status: ('A' for Active; 'I' for Inactive)
REMARK    1  A    between atoms: C_2  and  C_10
REMARK    2  A    between atoms: N_3  and  C_4
REMARK                            x       y       z     vdW  Elec       q    Type
REMARK                         _______ _______ _______ _____ _____    ______ ____
ROOT
ATOM      1  O   UNL     1       6.227   4.506  18.861  0.00  0.00    +0.000 OA
ATOM      2  C   UNL     1       5.494   4.396  17.884  0.00  0.00    +0.000 C 
ATOM      3  N   UNL     1       4.144   4.119  17.967  0.00  0.00    +0.000 N 
ATOM      4  H   UNL     1       3.605   4.142  17.106  0.00  0.00    +0.000 HD
ENDROOT
BRANCH   2   5
ATOM      5  C   UNL     1       6.045   4.542  16.506  0.00  0.00    +0.000 A 
ATOM      6  C   UNL     1       5.458   3.884  15.435  0.00  0.00    +0.000 A 
ATOM      7  C   UNL     1       5.995   4.074  14.164  0.00  0.00    +0.000 A 
ATOM      8  C   UNL     1       7.089   4.910  14.042  0.00  0.00    +0.000 A 
ATOM      9 CL   UNL     1       7.822   5.208  12.526  0.00  0.00    +0.000 Cl
ATOM     10  N   UNL     1       7.647   5.542  15.097  0.00  0.00    +0.000 NA
ATOM     11  N   UNL     1       7.118   5.359  16.350  0.00  0.00    +0.000 NA
ENDBRANCH   2   5
BRANCH   3  12
ATOM     12  C   UNL     1       3.464   3.938  19.242  0.00  0.00    +0.000 C 
ATOM     13  C   UNL     1       2.631   2.658  19.231  0.00  0.00    +0.000 C 
ATOM     14  C   UNL     1       1.842   2.528  20.525  0.00  0.00    +0.000 C 
ATOM     15  O   UNL     1       1.030   3.681  20.737  0.00  0.00    +0.000 OA
ATOM     16  C   UNL     1       1.809   4.870  20.871  0.00  0.00    +0.000 C 
ATOM     17  C   UNL     1       2.591   5.146  19.594  0.00  0.00    +0.000 C 
ENDBRANCH   3  12
TORSDOF 2
ENDMDL
MODEL 2
REMARK VINA RESULT:      -6.4      4.460      6.839
REMARK  Name = 
REMARK  2 active torsions:
REMARK  status: ('A' for Active; 'I' for Inactive)
REMARK    1  A    between atoms: C_2  and  C_10
REMARK    2  A    between atoms: N_3  and  C_4
REMARK                            x       y       z     vdW  Elec       q    Type
REMARK                         _______ _______ _______ _____ _____    ______ ____
ROOT
ATOM      1  O   UNL     1       3.248   5.452  19.394  0.00  0.00    +0.000 OA
ATOM      2  C   UNL     1       3.319   6.429  18.656  0.00  0.00    +0.000 C 
ATOM      3  N   UNL     1       4.216   6.536  17.612  0.00  0.00    +0.000 N 
ATOM      4  H   UNL     1       4.132   7.343  17.000  0.00  0.00    +0.000 HD
ENDROOT
BRANCH   2   5
ATOM      5  C   UNL     1       2.422   7.601  18.867  0.00  0.00    +0.000 A 
ATOM      6  C   UNL     1       2.095   8.441  17.812  0.00  0.00    +0.000 A 
ATOM      7  C   UNL     1       1.232   9.507  18.056  0.00  0.00    +0.000 A 
ATOM      8  C   UNL     1       0.751   9.669  19.341  0.00  0.00    +0.000 A 
ATOM      9 CL   UNL     1      -0.312  10.948  19.743  0.00  0.00    +0.000 Cl
ATOM     10  N   UNL     1       1.082   8.842  20.355  0.00  0.00    +0.000 NA
ATOM     11  N   UNL     1       1.930   7.789  20.118  0.00  0.00    +0.000 NA
ENDBRANCH   2   5
BRANCH   3  12
ATOM     12  C   UNL     1       5.163   5.478  17.288  0.00  0.00    +0.000 C 
ATOM     13  C   UNL     1       6.483   5.692  18.027  0.00  0.00    +0.000 C 
ATOM     14  C   UNL     1       7.503   4.645  17.606  0.00  0.00    +0.000 C 
ATOM     15  O   UNL     1       7.683   4.659  16.192  0.00  0.00    +0.000 OA
ATOM     16  C   UNL     1       6.480   4.339  15.492  0.00  0.00    +0.000 C 
ATOM     17  C   UNL     1       5.401   5.373  15.780  0.00  0.00    +0.000 C 
ENDBRANCH   3  12
TORSDOF 2
ENDMDL
MODEL 3
REMARK VINA RESULT:      -6.3      0.772      1.299
REMARK  Name = 
REMARK  2 active torsions:
REMARK  status: ('A' for Active; 'I' for Inactive)
REMARK    1  A    between atoms: C_2  and  C_10
REMARK    2  A    between atoms: N_3  and  C_4
REMARK                            x       y       z     vdW  Elec       q    Type
REMARK                         _______ _______ _______ _____ _____    ______ ____
ROOT
ATOM      1  O   UNL     1       5.284   4.930  18.889  0.00  0.00    +0.000 OA
ATOM      2  C   UNL     1       4.868   4.451  17.840  0.00  0.00    +0.000 C 
ATOM      3  N   UNL     1       3.697   3.727  17.740  0.00  0.00    +0.000 N 
ATOM      4  H   UNL     1       3.390   3.454  16.810  0.00  0.00    +0.000 HD
ENDROOT
BRANCH   2   5
ATOM      5  C   UNL     1       5.643   4.615  16.576  0.00  0.00    +0.000 A 
ATOM      6  C   UNL     1       5.234   3.987  15.408  0.00  0.00    +0.000 A 
ATOM      7  C   UNL     1       5.977   4.193  14.249  0.00  0.00    +0.000 A 
ATOM      8  C   UNL     1       7.087   5.012  14.329  0.00  0.00    +0.000 A 
ATOM      9 CL   UNL     1       8.067   5.327  12.962  0.00  0.00    +0.000 Cl
ATOM     10  N   UNL     1       7.471   5.613  15.475  0.00  0.00    +0.000 NA
ATOM     11  N   UNL     1       6.738   5.415  16.619  0.00  0.00    +0.000 NA
ENDBRANCH   2   5
BRANCH   3  12
ATOM     12  C   UNL     1       2.838   3.474  18.888  0.00  0.00    +0.000 C 
ATOM     13  C   UNL     1       2.161   4.764  19.349  0.00  0.00    +0.000 C 
ATOM     14  C   UNL     1       1.347   4.514  20.610  0.00  0.00    +0.000 C 
ATOM     15  O   UNL     1       2.166   3.953  21.634  0.00  0.00    +0.000 OA
ATOM     16  C   UNL     1       2.707   2.686  21.259  0.00  0.00    +0.000 C 
ATOM     17  C   UNL     1       3.609   2.828  20.041  0.00  0.00    +0.000 C 
ENDBRANCH   3  12
TORSDOF 2
ENDMDL
MODEL 4
REMARK VINA RESULT:      -6.1      4.317      6.802
REMARK  Name = 
REMARK  2 active torsions:
REMARK  status: ('A' for Active; 'I' for Inactive)
REMARK    1  A    between atoms: C_2  and  C_10
REMARK    2  A    between atoms: N_3  and  C_4
REMARK                            x       y       z     vdW  Elec       q    Type
REMARK                         _______ _______ _______ _____ _____    ______ ____
ROOT
ATOM      1  O   UNL     1       2.941   5.257  18.809  0.00  0.00    +0.000 OA
ATOM      2  C   UNL     1       3.262   6.362  18.384  0.00  0.00    +0.000 C 
ATOM      3  N   UNL     1       4.390   6.590  17.621  0.00  0.00    +0.000 N 
ATOM      4  H   UNL     1       4.518   7.522  17.237  0.00  0.00    +0.000 HD
ENDROOT
BRANCH   2   5
ATOM      5  C   UNL     1       2.433   7.562  18.696  0.00  0.00    +0.000 A 
ATOM      6  C   UNL     1       1.906   7.747  19.966  0.00  0.00    +0.000 A 
ATOM      7  C   UNL     1       1.161   8.897  20.214  0.00  0.00    +0.000 A 
ATOM      8  C   UNL     1       0.986   9.791  19.174  0.00  0.00    +0.000 A 
ATOM      9 CL   UNL     1       0.086  11.232  19.376  0.00  0.00    +0.000 Cl
ATOM     10  N   UNL     1       1.507   9.593  17.945  0.00  0.00    +0.000 NA
ATOM     11  N   UNL     1       2.244   8.462  17.698  0.00  0.00    +0.000 NA
ENDBRANCH   2   5
BRANCH   3  12
ATOM     12  C   UNL     1       5.304   5.520  17.243  0.00  0.00    +0.000 C 
ATOM     13  C   UNL     1       6.608   5.622  18.032  0.00  0.00    +0.000 C 
ATOM     14  C   UNL     1       7.597   4.567  17.561  0.00  0.00    +0.000 C 
ATOM     15  O   UNL     1       7.821   4.680  16.157  0.00  0.00    +0.000 OA
ATOM     16  C   UNL     1       6.628   4.465  15.402  0.00  0.00    +0.000 C 
ATOM     17  C   UNL     1       5.583   5.519  15.738  0.00  0.00    +0.000 C 
ENDBRANCH   3  12
TORSDOF 2
ENDMDL
MODEL 5
REMARK VINA RESULT:      -6.1      1.171      1.316
REMARK  Name = 
REMARK  2 active torsions:
REMARK  status: ('A' for Active; 'I' for Inactive)
REMARK    1  A    between atoms: C_2  and  C_10
REMARK    2  A    between atoms: N_3  and  C_4
REMARK                            x       y       z     vdW  Elec       q    Type
REMARK                         _______ _______ _______ _____ _____    ______ ____
ROOT
ATOM      1  O   UNL     1       6.203   4.430  18.885  0.00  0.00    +0.000 OA
ATOM      2  C   UNL     1       5.399   4.377  17.961  0.00  0.00    +0.000 C 
ATOM      3  N   UNL     1       4.036   4.256  18.138  0.00  0.00    +0.000 N 
ATOM      4  H   UNL     1       3.446   4.317  17.312  0.00  0.00    +0.000 HD
ENDROOT
BRANCH   2   5
ATOM      5  C   UNL     1       5.871   4.424  16.546  0.00  0.00    +0.000 A 
ATOM      6  C   UNL     1       7.150   4.865  16.241  0.00  0.00    +0.000 A 
ATOM      7  C   UNL     1       7.551   4.865  14.908  0.00  0.00    +0.000 A 
ATOM      8  C   UNL     1       6.646   4.426  13.960  0.00  0.00    +0.000 A 
ATOM      9 CL   UNL     1       7.042   4.389  12.296  0.00  0.00    +0.000 Cl
ATOM     10  N   UNL     1       5.404   4.002  14.276  0.00  0.00    +0.000 NA
ATOM     11  N   UNL     1       5.007   3.998  15.590  0.00  0.00    +0.000 NA
ENDBRANCH   2   5
BRANCH   3  12
ATOM     12  C   UNL     1       3.425   4.187  19.459  0.00  0.00    +0.000 C 
ATOM     13  C   UNL     1       3.258   2.734  19.900  0.00  0.00    +0.000 C 
ATOM     14  C   UNL     1       2.528   2.664  21.232  0.00  0.00    +0.000 C 
ATOM     15  O   UNL     1       1.273   3.338  21.153  0.00  0.00    +0.000 OA
ATOM     16  C   UNL     1       1.425   4.727  20.861  0.00  0.00    +0.000 C 
ATOM     17  C   UNL     1       2.083   4.921  19.502  0.00  0.00    +0.000 C 
ENDBRANCH   3  12
TORSDOF 2
ENDMDL
MODEL 6
REMARK VINA RESULT:      -5.9      1.145      1.145
REMARK  Name = 
REMARK  2 active torsions:
REMARK  status: ('A' for Active; 'I' for Inactive)
REMARK    1  A    between atoms: C_2  and  C_10
REMARK    2  A    between atoms: N_3  and  C_4
REMARK                            x       y       z     vdW  Elec       q    Type
REMARK                         _______ _______ _______ _____ _____    ______ ____
ROOT
ATOM      1  O   UNL     1       3.458   3.576  16.989  0.00  0.00    +0.000 OA
ATOM      2  C   UNL     1       4.484   4.214  17.197  0.00  0.00    +0.000 C 
ATOM      3  N   UNL     1       4.823   4.738  18.428  0.00  0.00    +0.000 N 
ATOM      4  H   UNL     1       5.739   5.169  18.521  0.00  0.00    +0.000 HD
ENDROOT
BRANCH   2   5
ATOM      5  C   UNL     1       5.444   4.484  16.088  0.00  0.00    +0.000 A 
ATOM      6  C   UNL     1       5.292   3.866  14.854  0.00  0.00    +0.000 A 
ATOM      7  C   UNL     1       6.200   4.171  13.843  0.00  0.00    +0.000 A 
ATOM      8  C   UNL     1       7.207   5.074  14.129  0.00  0.00    +0.000 A 
ATOM      9 CL   UNL     1       8.373   5.513  12.956  0.00  0.00    +0.000 Cl
ATOM     10  N   UNL     1       7.340   5.663  15.336  0.00  0.00    +0.000 NA
ATOM     11  N   UNL     1       6.445   5.367  16.334  0.00  0.00    +0.000 NA
ENDBRANCH   2   5
BRANCH   3  12
ATOM     12  C   UNL     1       3.982   4.569  19.605  0.00  0.00    +0.000 C 
ATOM     13  C   UNL     1       3.689   3.089  19.849  0.00  0.00    +0.000 C 
ATOM     14  C   UNL     1       2.727   2.925  21.016  0.00  0.00    +0.000 C 
ATOM     15  O   UNL     1       1.530   3.667  20.790  0.00  0.00    +0.000 OA
ATOM     16  C   UNL     1       1.779   5.069  20.681  0.00  0.00    +0.000 C 
ATOM     17  C   UNL     1       2.678   5.364  19.489  0.00  0.00    +0.000 C 
ENDBRANCH   3  12
TORSDOF 2
ENDMDL
MODEL 7
REMARK VINA RESULT:      -5.9      3.488      6.781
REMARK  Name = 
REMARK  2 active torsions:
REMARK  status: ('A' for Active; 'I' for Inactive)
REMARK    1  A    between atoms: C_2  and  C_10
REMARK    2  A    between atoms: N_3  and  C_4
REMARK                            x       y       z     vdW  Elec       q    Type
REMARK                         _______ _______ _______ _____ _____    ______ ____
ROOT
ATOM      1  O   UNL     1       6.704   4.144  17.146  0.00  0.00    +0.000 OA
ATOM      2  C   UNL     1       5.558   4.182  16.712  0.00  0.00    +0.000 C 
ATOM      3  N   UNL     1       5.245   4.096  15.370  0.00  0.00    +0.000 N 
ATOM      4  H   UNL     1       4.261   4.040  15.118  0.00  0.00    +0.000 HD
ENDROOT
BRANCH   2   5
ATOM      5  C   UNL     1       4.403   4.346  17.641  0.00  0.00    +0.000 A 
ATOM      6  C   UNL     1       3.140   3.895  17.287  0.00  0.00    +0.000 A 
ATOM      7  C   UNL     1       2.100   4.048  18.200  0.00  0.00    +0.000 A 
ATOM      8  C   UNL     1       2.388   4.646  19.413  0.00  0.00    +0.000 A 
ATOM      9 CL   UNL     1       1.180   4.882  20.602  0.00  0.00    +0.000 Cl
ATOM     10  N   UNL     1       3.624   5.081  19.739  0.00  0.00    +0.000 NA
ATOM     11  N   UNL     1       4.651   4.928  18.842  0.00  0.00    +0.000 NA
ENDBRANCH   2   5
BRANCH   3  12
ATOM     12  C   UNL     1       6.264   3.945  14.341  0.00  0.00    +0.000 C 
ATOM     13  C   UNL     1       7.043   5.246  14.158  0.00  0.00    +0.000 C 
ATOM     14  C   UNL     1       8.035   5.114  13.012  0.00  0.00    +0.000 C 
ATOM     15  O   UNL     1       7.369   4.727  11.812  0.00  0.00    +0.000 OA
ATOM     16  C   UNL     1       6.738   3.452  11.934  0.00  0.00    +0.000 C 
ATOM     17  C   UNL     1       5.662   3.486  13.010  0.00  0.00    +0.000 C 
ENDBRANCH   3  12
TORSDOF 2
ENDMDL
MODEL 8
REMARK VINA RESULT:      -5.8      3.028      3.656
REMARK  Name = 
REMARK  2 active torsions:
REMARK  status: ('A' for Active; 'I' for Inactive)
REMARK    1  A    between atoms: C_2  and  C_10
REMARK    2  A    between atoms: N_3  and  C_4
REMARK                            x       y       z     vdW  Elec       q    Type
REMARK                         _______ _______ _______ _____ _____    ______ ____
ROOT
ATOM      1  O   UNL     1       5.548   4.645  16.142  0.00  0.00    +0.000 OA
ATOM      2  C   UNL     1       5.502   5.195  17.237  0.00  0.00    +0.000 C 
ATOM      3  N   UNL     1       4.607   4.848  18.230  0.00  0.00    +0.000 N 
ATOM      4  H   UNL     1       4.712   5.298  19.136  0.00  0.00    +0.000 HD
ENDROOT
BRANCH   2   5
ATOM      5  C   UNL     1       6.429   6.317  17.559  0.00  0.00    +0.000 A 
ATOM      6  C   UNL     1       7.446   6.152  18.489  0.00  0.00    +0.000 A 
ATOM      7  C   UNL     1       8.301   7.222  18.734  0.00  0.00    +0.000 A 
ATOM      8  C   UNL     1       8.087   8.395  18.035  0.00  0.00    +0.000 A 
ATOM      9 CL   UNL     1       9.081   9.768  18.265  0.00  0.00    +0.000 Cl
ATOM     10  N   UNL     1       7.091   8.538  17.134  0.00  0.00    +0.000 NA
ATOM     11  N   UNL     1       6.248   7.483  16.888  0.00  0.00    +0.000 NA
ENDBRANCH   2   5
BRANCH   3  12
ATOM     12  C   UNL     1       3.632   3.780  18.062  0.00  0.00    +0.000 C 
ATOM     13  C   UNL     1       2.224   4.281  18.378  0.00  0.00    +0.000 C 
ATOM     14  C   UNL     1       1.224   3.137  18.302  0.00  0.00    +0.000 C 
ATOM     15  O   UNL     1       1.611   2.072  19.168  0.00  0.00    +0.000 OA
ATOM     16  C   UNL     1       2.875   1.514  18.806  0.00  0.00    +0.000 C 
ATOM     17  C   UNL     1       3.975   2.559  18.920  0.00  0.00    +0.000 C 
ENDBRANCH   3  12
TORSDOF 2
ENDMDL
MODEL 9
REMARK VINA RESULT:      -5.8      4.918      6.378
REMARK  Name = 
REMARK  2 active torsions:
REMARK  status: ('A' for Active; 'I' for Inactive)
REMARK    1  A    between atoms: C_2  and  C_10
REMARK    2  A    between atoms: N_3  and  C_4
REMARK                            x       y       z     vdW  Elec       q    Type
REMARK                         _______ _______ _______ _____ _____    ______ ____
ROOT
ATOM      1  O   UNL     1       3.697   7.035  17.554  0.00  0.00    +0.000 OA
ATOM      2  C   UNL     1       2.792   6.946  18.377  0.00  0.00    +0.000 C 
ATOM      3  N   UNL     1       2.376   5.751  18.929  0.00  0.00    +0.000 N 
ATOM      4  H   UNL     1       1.684   5.792  19.673  0.00  0.00    +0.000 HD
ENDROOT
BRANCH   2   5
ATOM      5  C   UNL     1       2.056   8.163  18.825  0.00  0.00    +0.000 A 
ATOM      6  C   UNL     1       1.772   9.187  17.932  0.00  0.00    +0.000 A 
ATOM      7  C   UNL     1       1.060  10.290  18.394  0.00  0.00    +0.000 A 
ATOM      8  C   UNL     1       0.676  10.304  19.722  0.00  0.00    +0.000 A 
ATOM      9 CL   UNL     1      -0.201  11.614  20.386  0.00  0.00    +0.000 Cl
ATOM     10  N   UNL     1       0.963   9.298  20.576  0.00  0.00    +0.000 NA
ATOM     11  N   UNL     1       1.663   8.207  20.123  0.00  0.00    +0.000 NA
ENDBRANCH   2   5
BRANCH   3  12
ATOM     12  C   UNL     1       2.990   4.477  18.583  0.00  0.00    +0.000 C 
ATOM     13  C   UNL     1       1.993   3.580  17.850  0.00  0.00    +0.000 C 
ATOM     14  C   UNL     1       2.606   2.214  17.583  0.00  0.00    +0.000 C 
ATOM     15  O   UNL     1       3.056   1.618  18.799  0.00  0.00    +0.000 OA
ATOM     16  C   UNL     1       4.077   2.389  19.431  0.00  0.00    +0.000 C 
ATOM     17  C   UNL     1       3.550   3.764  19.817  0.00  0.00    +0.000 C 
ENDBRANCH   3  12
TORSDOF 2
ENDMDL
