MODEL 1
REMARK VINA RESULT:      -7.1      0.000      0.000
REMARK  Name = 
REMARK  5 active torsions:
REMARK  status: ('A' for Active; 'I' for Inactive)
REMARK    1  A    between atoms: N_1  and  S_2
REMARK    2  A    between atoms: C_3  and  C_4
REMARK    3  A    between atoms: C_6  and  S_7
REMARK    4  A    between atoms: S_7  and  C_8
REMARK    5  A    between atoms: C_8  and  C_9
REMARK                            x       y       z     vdW  Elec       q    Type
REMARK                         _______ _______ _______ _____ _____    ______ ____
ROOT
ATOM      1  C   UNL     1       6.520   4.948  15.400  0.00  0.00    +0.000 A 
ATOM      2  C   UNL     1       5.328   5.545  15.785  0.00  0.00    +0.000 A 
ATOM      3  C   UNL     1       5.158   5.877  17.127  0.00  0.00    +0.000 A 
ATOM      4  C   UNL     1       6.202   5.613  18.017  0.00  0.00    +0.000 A 
ATOM      5  C   UNL     1       7.354   5.012  17.536  0.00  0.00    +0.000 A 
ATOM      6  N   UNL     1       7.536   4.670  16.244  0.00  0.00    +0.000 NA
ENDROOT
BRANCH   1   8
ATOM      7  S   UNL     1       7.064   4.179  12.426  0.00  0.00    +0.000 S 
ATOM      8  C   UNL     1       6.759   4.595  14.038  0.00  0.00    +0.000 C 
BRANCH   7   9
ATOM      9  N   UNL     1       6.142   2.809  12.354  0.00  0.00    +0.000 NA
ATOM     10  H   UNL     1       6.738   1.983  12.331  0.00  0.00    +0.000 HD
ATOM     11  H   UNL     1       5.611   2.787  11.482  0.00  0.00    +0.000 HD
ENDBRANCH   7   9
ENDBRANCH   1   8
BRANCH   3  12
ATOM     12  S   UNL     1       3.710   6.710  17.767  0.00  0.00    +0.000 S 
BRANCH  12  13
ATOM     13  C   UNL     1       3.504   5.945  19.413  0.00  0.00    +0.000 C 
BRANCH  13  14
ATOM     14  C   UNL     1       2.554   4.777  19.363  0.00  0.00    +0.000 A 
ATOM     15  C   UNL     1       2.141   4.236  18.136  0.00  0.00    +0.000 A 
ATOM     16  C   UNL     1       1.258   3.153  18.098  0.00  0.00    +0.000 A 
ATOM     17  C   UNL     1       0.771   2.603  19.284  0.00  0.00    +0.000 A 
ATOM     18  C   UNL     1       1.169   3.137  20.509  0.00  0.00    +0.000 A 
ATOM     19  C   UNL     1       2.050   4.215  20.541  0.00  0.00    +0.000 A 
ATOM     20  F   UNL     1       2.425   4.707  21.729  0.00  0.00    +0.000 F 
ENDBRANCH  13  14
ENDBRANCH  12  13
ENDBRANCH   3  12
TORSDOF 5
ENDMDL
MODEL 2
REMARK VINA RESULT:      -7.0      1.370      1.772
REMARK  Name = 
REMARK  5 active torsions:
REMARK  status: ('A' for Active; 'I' for Inactive)
REMARK    1  A    between atoms: N_1  and  S_2
REMARK    2  A    between atoms: C_3  and  C_4
REMARK    3  A    between atoms: C_6  and  S_7
REMARK    4  A    between atoms: S_7  and  C_8
REMARK    5  A    between atoms: C_8  and  C_9
REMARK                            x       y       z     vdW  Elec       q    Type
REMARK                         _______ _______ _______ _____ _____    ______ ____
ROOT
ATOM      1  C   UNL     1       6.540   4.667  15.416  0.00  0.00    +0.000 A 
ATOM      2  C   UNL     1       5.376   5.238  15.911  0.00  0.00    +0.000 A 
ATOM      3  C   UNL     1       5.303   5.513  17.275  0.00  0.00    +0.000 A 
ATOM      4  C   UNL     1       6.409   5.219  18.075  0.00  0.00    +0.000 A 
ATOM      5  C   UNL     1       7.526   4.647  17.486  0.00  0.00    +0.000 A 
ATOM      6  N   UNL     1       7.615   4.361  16.172  0.00  0.00    +0.000 NA
ENDROOT
BRANCH   1   8
ATOM      7  S   UNL     1       6.870   4.030  12.380  0.00  0.00    +0.000 S 
ATOM      8  C   UNL     1       6.681   4.374  14.027  0.00  0.00    +0.000 C 
BRANCH   7   9
ATOM      9  N   UNL     1       6.046   2.598  12.338  0.00  0.00    +0.000 NA
ATOM     10  H   UNL     1       5.481   2.490  13.180  0.00  0.00    +0.000 HD
ATOM     11  H   UNL     1       6.700   1.814  12.345  0.00  0.00    +0.000 HD
ENDBRANCH   7   9
ENDBRANCH   1   8
BRANCH   3  12
ATOM     12  S   UNL     1       3.901   6.307  18.052  0.00  0.00    +0.000 S 
BRANCH  12  13
ATOM     13  C   UNL     1       2.531   5.159  17.672  0.00  0.00    +0.000 C 
BRANCH  13  14
ATOM     14  C   UNL     1       2.210   4.275  18.849  0.00  0.00    +0.000 A 
ATOM     15  C   UNL     1       2.099   4.809  20.142  0.00  0.00    +0.000 A 
ATOM     16  C   UNL     1       1.803   3.982  21.229  0.00  0.00    +0.000 A 
ATOM     17  C   UNL     1       1.621   2.612  21.039  0.00  0.00    +0.000 A 
ATOM     18  C   UNL     1       1.736   2.070  19.760  0.00  0.00    +0.000 A 
ATOM     19  C   UNL     1       2.030   2.898  18.680  0.00  0.00    +0.000 A 
ATOM     20  F   UNL     1       2.129   2.357  17.459  0.00  0.00    +0.000 F 
ENDBRANCH  13  14
ENDBRANCH  12  13
ENDBRANCH   3  12
TORSDOF 5
ENDMDL
MODEL 3
REMARK VINA RESULT:      -6.9      1.365      1.763
REMARK  Name = 
REMARK  5 active torsions:
REMARK  status: ('A' for Active; 'I' for Inactive)
REMARK    1  A    between atoms: N_1  and  S_2
REMARK    2  A    between atoms: C_3  and  C_4
REMARK    3  A    between atoms: C_6  and  S_7
REMARK    4  A    between atoms: S_7  and  C_8
REMARK    5  A    between atoms: C_8  and  C_9
REMARK                            x       y       z     vdW  Elec       q    Type
REMARK                         _______ _______ _______ _____ _____    ______ ____
ROOT
ATOM      1  C   UNL     1       6.550   4.593  15.241  0.00  0.00    +0.000 A 
ATOM      2  C   UNL     1       5.303   4.992  15.701  0.00  0.00    +0.000 A 
ATOM      3  C   UNL     1       5.166   5.309  17.050  0.00  0.00    +0.000 A 
ATOM      4  C   UNL     1       6.293   5.230  17.872  0.00  0.00    +0.000 A 
ATOM      5  C   UNL     1       7.496   4.819  17.318  0.00  0.00    +0.000 A 
ATOM      6  N   UNL     1       7.649   4.495  16.018  0.00  0.00    +0.000 NA
ENDROOT
BRANCH   1   8
ATOM      7  S   UNL     1       7.024   3.880  12.242  0.00  0.00    +0.000 S 
ATOM      8  C   UNL     1       6.756   4.267  13.867  0.00  0.00    +0.000 C 
BRANCH   7   9
ATOM      9  N   UNL     1       5.934   2.643  12.107  0.00  0.00    +0.000 NA
ATOM     10  H   UNL     1       6.219   1.857  12.690  0.00  0.00    +0.000 HD
ATOM     11  H   UNL     1       5.923   2.285  11.152  0.00  0.00    +0.000 HD
ENDBRANCH   7   9
ENDBRANCH   1   8
BRANCH   3  12
ATOM     12  S   UNL     1       3.644   5.902  17.781  0.00  0.00    +0.000 S 
BRANCH  12  13
ATOM     13  C   UNL     1       2.569   4.426  17.714  0.00  0.00    +0.000 C 
BRANCH  13  14
ATOM     14  C   UNL     1       2.420   3.791  19.072  0.00  0.00    +0.000 A 
ATOM     15  C   UNL     1       1.285   4.036  19.862  0.00  0.00    +0.000 A 
ATOM     16  C   UNL     1       1.156   3.444  21.121  0.00  0.00    +0.000 A 
ATOM     17  C   UNL     1       2.160   2.608  21.610  0.00  0.00    +0.000 A 
ATOM     18  C   UNL     1       3.294   2.364  20.838  0.00  0.00    +0.000 A 
ATOM     19  C   UNL     1       3.418   2.955  19.583  0.00  0.00    +0.000 A 
ATOM     20  F   UNL     1       4.513   2.701  18.855  0.00  0.00    +0.000 F 
ENDBRANCH  13  14
ENDBRANCH  12  13
ENDBRANCH   3  12
TORSDOF 5
ENDMDL
MODEL 4
REMARK VINA RESULT:      -6.8      1.292      1.356
REMARK  Name = 
REMARK  5 active torsions:
REMARK  status: ('A' for Active; 'I' for Inactive)
REMARK    1  A    between atoms: N_1  and  S_2
REMARK    2  A    between atoms: C_3  and  C_4
REMARK    3  A    between atoms: C_6  and  S_7
REMARK    4  A    between atoms: S_7  and  C_8
REMARK    5  A    between atoms: C_8  and  C_9
REMARK                            x       y       z     vdW  Elec       q    Type
REMARK                         _______ _______ _______ _____ _____    ______ ____
ROOT
ATOM      1  C   UNL     1       6.288   4.647  15.252  0.00  0.00    +0.000 A 
ATOM      2  C   UNL     1       5.147   5.275  15.731  0.00  0.00    +0.000 A 
ATOM      3  C   UNL     1       5.171   5.792  17.024  0.00  0.00    +0.000 A 
ATOM      4  C   UNL     1       6.347   5.672  17.769  0.00  0.00    +0.000 A 
ATOM      5  C   UNL     1       7.434   5.025  17.202  0.00  0.00    +0.000 A 
ATOM      6  N   UNL     1       7.429   4.506  15.958  0.00  0.00    +0.000 NA
ENDROOT
BRANCH   1   8
ATOM      7  S   UNL     1       6.393   3.452  12.372  0.00  0.00    +0.000 S 
ATOM      8  C   UNL     1       6.330   4.108  13.931  0.00  0.00    +0.000 C 
BRANCH   7   9
ATOM      9  N   UNL     1       4.771   3.437  12.052  0.00  0.00    +0.000 NA
ATOM     10  H   UNL     1       4.389   4.380  12.119  0.00  0.00    +0.000 HD
ATOM     11  H   UNL     1       4.277   2.891  12.759  0.00  0.00    +0.000 HD
ENDBRANCH   7   9
ENDBRANCH   1   8
BRANCH   3  12
ATOM     12  S   UNL     1       3.807   6.686  17.760  0.00  0.00    +0.000 S 
BRANCH  12  13
ATOM     13  C   UNL     1       3.549   5.793  19.334  0.00  0.00    +0.000 C 
BRANCH  13  14
ATOM     14  C   UNL     1       2.955   4.428  19.103  0.00  0.00    +0.000 A 
ATOM     15  C   UNL     1       1.614   4.282  18.715  0.00  0.00    +0.000 A 
ATOM     16  C   UNL     1       1.071   3.011  18.504  0.00  0.00    +0.000 A 
ATOM     17  C   UNL     1       1.857   1.873  18.685  0.00  0.00    +0.000 A 
ATOM     18  C   UNL     1       3.188   2.007  19.078  0.00  0.00    +0.000 A 
ATOM     19  C   UNL     1       3.725   3.274  19.285  0.00  0.00    +0.000 A 
ATOM     20  F   UNL     1       5.008   3.379  19.655  0.00  0.00    +0.000 F 
ENDBRANCH  13  14
ENDBRANCH  12  13
ENDBRANCH   3  12
TORSDOF 5
ENDMDL
MODEL 5
REMARK VINA RESULT:      -6.8      1.560      1.877
REMARK  Name = 
REMARK  5 active torsions:
REMARK  status: ('A' for Active; 'I' for Inactive)
REMARK    1  A    between atoms: N_1  and  S_2
REMARK    2  A    between atoms: C_3  and  C_4
REMARK    3  A    between atoms: C_6  and  S_7
REMARK    4  A    between atoms: S_7  and  C_8
REMARK    5  A    between atoms: C_8  and  C_9
REMARK                            x       y       z     vdW  Elec       q    Type
REMARK                         _______ _______ _______ _____ _____    ______ ____
ROOT
ATOM      1  C   UNL     1       6.259   4.850  15.343  0.00  0.00    +0.000 A 
ATOM      2  C   UNL     1       5.100   5.479  15.774  0.00  0.00    +0.000 A 
ATOM      3  C   UNL     1       5.095   6.059  17.041  0.00  0.00    +0.000 A 
ATOM      4  C   UNL     1       6.260   5.997  17.808  0.00  0.00    +0.000 A 
ATOM      5  C   UNL     1       7.368   5.344  17.290  0.00  0.00    +0.000 A 
ATOM      6  N   UNL     1       7.392   4.765  16.072  0.00  0.00    +0.000 NA
ENDROOT
BRANCH   1   8
ATOM      7  S   UNL     1       6.431   3.518  12.528  0.00  0.00    +0.000 S 
ATOM      8  C   UNL     1       6.332   4.248  14.051  0.00  0.00    +0.000 C 
BRANCH   7   9
ATOM      9  N   UNL     1       4.816   3.474  12.177  0.00  0.00    +0.000 NA
ATOM     10  H   UNL     1       4.360   4.325  12.504  0.00  0.00    +0.000 HD
ATOM     11  H   UNL     1       4.365   2.711  12.683  0.00  0.00    +0.000 HD
ENDBRANCH   7   9
ENDBRANCH   1   8
BRANCH   3  12
ATOM     12  S   UNL     1       3.704   6.963  17.712  0.00  0.00    +0.000 S 
BRANCH  12  13
ATOM     13  C   UNL     1       3.273   5.987  19.195  0.00  0.00    +0.000 C 
BRANCH  13  14
ATOM     14  C   UNL     1       3.214   4.513  18.888  0.00  0.00    +0.000 A 
ATOM     15  C   UNL     1       4.121   3.618  19.476  0.00  0.00    +0.000 A 
ATOM     16  C   UNL     1       4.062   2.252  19.184  0.00  0.00    +0.000 A 
ATOM     17  C   UNL     1       3.101   1.766  18.297  0.00  0.00    +0.000 A 
ATOM     18  C   UNL     1       2.200   2.647  17.701  0.00  0.00    +0.000 A 
ATOM     19  C   UNL     1       2.263   4.006  17.996  0.00  0.00    +0.000 A 
ATOM     20  F   UNL     1       1.383   4.834  17.418  0.00  0.00    +0.000 F 
ENDBRANCH  13  14
ENDBRANCH  12  13
ENDBRANCH   3  12
TORSDOF 5
ENDMDL
MODEL 6
REMARK VINA RESULT:      -6.7      1.645      2.010
REMARK  Name = 
REMARK  5 active torsions:
REMARK  status: ('A' for Active; 'I' for Inactive)
REMARK    1  A    between atoms: N_1  and  S_2
REMARK    2  A    between atoms: C_3  and  C_4
REMARK    3  A    between atoms: C_6  and  S_7
REMARK    4  A    between atoms: S_7  and  C_8
REMARK    5  A    between atoms: C_8  and  C_9
REMARK                            x       y       z     vdW  Elec       q    Type
REMARK                         _______ _______ _______ _____ _____    ______ ____
ROOT
ATOM      1  C   UNL     1       6.533   5.054  15.886  0.00  0.00    +0.000 A 
ATOM      2  C   UNL     1       5.305   5.604  16.226  0.00  0.00    +0.000 A 
ATOM      3  C   UNL     1       5.019   5.799  17.575  0.00  0.00    +0.000 A 
ATOM      4  C   UNL     1       5.986   5.449  18.520  0.00  0.00    +0.000 A 
ATOM      5  C   UNL     1       7.183   4.904  18.081  0.00  0.00    +0.000 A 
ATOM      6  N   UNL     1       7.476   4.695  16.781  0.00  0.00    +0.000 NA
ENDROOT
BRANCH   1   8
ATOM      7  S   UNL     1       7.291   4.589  12.896  0.00  0.00    +0.000 S 
ATOM      8  C   UNL     1       6.890   4.842  14.521  0.00  0.00    +0.000 C 
BRANCH   7   9
ATOM      9  N   UNL     1       8.365   5.833  12.718  0.00  0.00    +0.000 NA
ATOM     10  H   UNL     1       8.004   6.520  12.057  0.00  0.00    +0.000 HD
ATOM     11  H   UNL     1       9.236   5.492  12.310  0.00  0.00    +0.000 HD
ENDBRANCH   7   9
ENDBRANCH   1   8
BRANCH   3  12
ATOM     12  S   UNL     1       3.511   6.558  18.169  0.00  0.00    +0.000 S 
BRANCH  12  13
ATOM     13  C   UNL     1       2.261   5.264  17.851  0.00  0.00    +0.000 C 
BRANCH  13  14
ATOM     14  C   UNL     1       2.102   4.347  19.035  0.00  0.00    +0.000 A 
ATOM     15  C   UNL     1       2.141   4.849  20.346  0.00  0.00    +0.000 A 
ATOM     16  C   UNL     1       1.994   3.992  21.439  0.00  0.00    +0.000 A 
ATOM     17  C   UNL     1       1.814   2.623  21.239  0.00  0.00    +0.000 A 
ATOM     18  C   UNL     1       1.783   2.112  19.942  0.00  0.00    +0.000 A 
ATOM     19  C   UNL     1       1.927   2.971  18.856  0.00  0.00    +0.000 A 
ATOM     20  F   UNL     1       1.886   2.459  17.618  0.00  0.00    +0.000 F 
ENDBRANCH  13  14
ENDBRANCH  12  13
ENDBRANCH   3  12
TORSDOF 5
ENDMDL
MODEL 7
REMARK VINA RESULT:      -6.6      0.959      1.012
REMARK  Name = 
REMARK  5 active torsions:
REMARK  status: ('A' for Active; 'I' for Inactive)
REMARK    1  A    between atoms: N_1  and  S_2
REMARK    2  A    between atoms: C_3  and  C_4
REMARK    3  A    between atoms: C_6  and  S_7
REMARK    4  A    between atoms: S_7  and  C_8
REMARK    5  A    between atoms: C_8  and  C_9
REMARK                            x       y       z     vdW  Elec       q    Type
REMARK                         _______ _______ _______ _____ _____    ______ ____
ROOT
ATOM      1  C   UNL     1       6.565   4.947  15.914  0.00  0.00    +0.000 A 
ATOM      2  C   UNL     1       5.426   5.562  16.414  0.00  0.00    +0.000 A 
ATOM      3  C   UNL     1       5.340   5.775  17.788  0.00  0.00    +0.000 A 
ATOM      4  C   UNL     1       6.409   5.377  18.594  0.00  0.00    +0.000 A 
ATOM      5  C   UNL     1       7.503   4.769  17.999  0.00  0.00    +0.000 A 
ATOM      6  N   UNL     1       7.604   4.541  16.674  0.00  0.00    +0.000 NA
ENDROOT
BRANCH   1   8
ATOM      7  S   UNL     1       6.924   4.440  12.857  0.00  0.00    +0.000 S 
ATOM      8  C   UNL     1       6.719   4.713  14.515  0.00  0.00    +0.000 C 
BRANCH   7   9
ATOM      9  N   UNL     1       6.181   2.966  12.763  0.00  0.00    +0.000 NA
ATOM     10  H   UNL     1       5.968   2.739  11.793  0.00  0.00    +0.000 HD
ATOM     11  H   UNL     1       5.280   2.994  13.241  0.00  0.00    +0.000 HD
ENDBRANCH   7   9
ENDBRANCH   1   8
BRANCH   3  12
ATOM     12  S   UNL     1       3.970   6.614  18.577  0.00  0.00    +0.000 S 
BRANCH  12  13
ATOM     13  C   UNL     1       2.519   5.868  17.754  0.00  0.00    +0.000 C 
BRANCH  13  14
ATOM     14  C   UNL     1       2.233   4.488  18.285  0.00  0.00    +0.000 A 
ATOM     15  C   UNL     1       2.524   3.347  17.520  0.00  0.00    +0.000 A 
ATOM     16  C   UNL     1       2.254   2.070  18.020  0.00  0.00    +0.000 A 
ATOM     17  C   UNL     1       1.684   1.917  19.284  0.00  0.00    +0.000 A 
ATOM     18  C   UNL     1       1.383   3.043  20.048  0.00  0.00    +0.000 A 
ATOM     19  C   UNL     1       1.655   4.313  19.547  0.00  0.00    +0.000 A 
ATOM     20  F   UNL     1       1.365   5.381  20.302  0.00  0.00    +0.000 F 
ENDBRANCH  13  14
ENDBRANCH  12  13
ENDBRANCH   3  12
TORSDOF 5
ENDMDL
MODEL 8
REMARK VINA RESULT:      -6.6      1.251      1.401
REMARK  Name = 
REMARK  5 active torsions:
REMARK  status: ('A' for Active; 'I' for Inactive)
REMARK    1  A    between atoms: N_1  and  S_2
REMARK    2  A    between atoms: C_3  and  C_4
REMARK    3  A    between atoms: C_6  and  S_7
REMARK    4  A    between atoms: S_7  and  C_8
REMARK    5  A    between atoms: C_8  and  C_9
REMARK                            x       y       z     vdW  Elec       q    Type
REMARK                         _______ _______ _______ _____ _____    ______ ____
ROOT
ATOM      1  C   UNL     1       6.263   4.601  15.477  0.00  0.00    +0.000 A 
ATOM      2  C   UNL     1       5.143   5.254  15.972  0.00  0.00    +0.000 A 
ATOM      3  C   UNL     1       5.187   5.745  17.275  0.00  0.00    +0.000 A 
ATOM      4  C   UNL     1       6.360   5.574  18.014  0.00  0.00    +0.000 A 
ATOM      5  C   UNL     1       7.425   4.905  17.431  0.00  0.00    +0.000 A 
ATOM      6  N   UNL     1       7.401   4.411  16.176  0.00  0.00    +0.000 NA
ENDROOT
BRANCH   1   8
ATOM      7  S   UNL     1       6.287   3.479  12.567  0.00  0.00    +0.000 S 
ATOM      8  C   UNL     1       6.284   4.088  14.146  0.00  0.00    +0.000 C 
BRANCH   7   9
ATOM      9  N   UNL     1       7.386   4.524  11.909  0.00  0.00    +0.000 NA
ATOM     10  H   UNL     1       7.381   4.448  10.892  0.00  0.00    +0.000 HD
ATOM     11  H   UNL     1       8.332   4.270  12.197  0.00  0.00    +0.000 HD
ENDBRANCH   7   9
ENDBRANCH   1   8
BRANCH   3  12
ATOM     12  S   UNL     1       3.853   6.666  18.033  0.00  0.00    +0.000 S 
BRANCH  12  13
ATOM     13  C   UNL     1       2.468   5.475  17.983  0.00  0.00    +0.000 C 
BRANCH  13  14
ATOM     14  C   UNL     1       2.535   4.502  19.131  0.00  0.00    +0.000 A 
ATOM     15  C   UNL     1       3.093   3.225  18.962  0.00  0.00    +0.000 A 
ATOM     16  C   UNL     1       3.150   2.327  20.031  0.00  0.00    +0.000 A 
ATOM     17  C   UNL     1       2.646   2.691  21.280  0.00  0.00    +0.000 A 
ATOM     18  C   UNL     1       2.083   3.953  21.458  0.00  0.00    +0.000 A 
ATOM     19  C   UNL     1       2.029   4.844  20.390  0.00  0.00    +0.000 A 
ATOM     20  F   UNL     1       1.491   6.055  20.585  0.00  0.00    +0.000 F 
ENDBRANCH  13  14
ENDBRANCH  12  13
ENDBRANCH   3  12
TORSDOF 5
ENDMDL
MODEL 9
REMARK VINA RESULT:      -6.6      1.578      2.411
REMARK  Name = 
REMARK  5 active torsions:
REMARK  status: ('A' for Active; 'I' for Inactive)
REMARK    1  A    between atoms: N_1  and  S_2
REMARK    2  A    between atoms: C_3  and  C_4
REMARK    3  A    between atoms: C_6  and  S_7
REMARK    4  A    between atoms: S_7  and  C_8
REMARK    5  A    between atoms: C_8  and  C_9
REMARK                            x       y       z     vdW  Elec       q    Type
REMARK                         _______ _______ _______ _____ _____    ______ ____
ROOT
ATOM      1  C   UNL     1       6.580   4.782  15.377  0.00  0.00    +0.000 A 
ATOM      2  C   UNL     1       5.752   4.051  16.216  0.00  0.00    +0.000 A 
ATOM      3  C   UNL     1       5.639   4.451  17.546  0.00  0.00    +0.000 A 
ATOM      4  C   UNL     1       6.349   5.578  17.966  0.00  0.00    +0.000 A 
ATOM      5  C   UNL     1       7.152   6.241  17.052  0.00  0.00    +0.000 A 
ATOM      6  N   UNL     1       7.286   5.865  15.764  0.00  0.00    +0.000 NA
ENDROOT
BRANCH   1   8
ATOM      7  S   UNL     1       6.925   4.014  12.373  0.00  0.00    +0.000 S 
ATOM      8  C   UNL     1       6.727   4.431  14.002  0.00  0.00    +0.000 C 
BRANCH   7   9
ATOM      9  N   UNL     1       5.879   2.734  12.325  0.00  0.00    +0.000 NA
ATOM     10  H   UNL     1       5.028   2.992  11.827  0.00  0.00    +0.000 HD
ATOM     11  H   UNL     1       5.580   2.487  13.269  0.00  0.00    +0.000 HD
ENDBRANCH   7   9
ENDBRANCH   1   8
BRANCH   3  12
ATOM     12  S   UNL     1       4.563   3.654  18.733  0.00  0.00    +0.000 S 
BRANCH  12  13
ATOM     13  C   UNL     1       2.903   4.189  18.188  0.00  0.00    +0.000 C 
BRANCH  13  14
ATOM     14  C   UNL     1       2.535   5.527  18.772  0.00  0.00    +0.000 A 
ATOM     15  C   UNL     1       2.667   6.704  18.018  0.00  0.00    +0.000 A 
ATOM     16  C   UNL     1       2.325   7.942  18.569  0.00  0.00    +0.000 A 
ATOM     17  C   UNL     1       1.854   8.021  19.880  0.00  0.00    +0.000 A 
ATOM     18  C   UNL     1       1.727   6.860  20.640  0.00  0.00    +0.000 A 
ATOM     19  C   UNL     1       2.068   5.629  20.087  0.00  0.00    +0.000 A 
ATOM     20  F   UNL     1       1.930   4.525  20.834  0.00  0.00    +0.000 F 
ENDBRANCH  13  14
ENDBRANCH  12  13
ENDBRANCH   3  12
TORSDOF 5
ENDMDL
