MODEL 1
REMARK VINA RESULT:      -7.3      0.000      0.000
REMARK  Name = 
REMARK  6 active torsions:
REMARK  status: ('A' for Active; 'I' for Inactive)
REMARK    1  A    between atoms: C_1  and  C_2
REMARK    2  A    between atoms: C_2  and  N_3
REMARK    3  A    between atoms: C_2  and  C_11
REMARK    4  A    between atoms: N_3  and  C_4
REMARK    5  A    between atoms: C_14  and  S_15
REMARK    6  A    between atoms: S_15  and  N_16
REMARK                            x       y       z     vdW  Elec       q    Type
REMARK                         _______ _______ _______ _____ _____    ______ ____
ROOT
ATOM      1  C   UNL     1       2.844   5.719  18.877  0.00  0.00    +0.000 A 
ATOM      2  C   UNL     1       2.779   7.027  18.348  0.00  0.00    +0.000 A 
ATOM      3  C   UNL     1       2.170   8.074  19.066  0.00  0.00    +0.000 A 
ATOM      4  C   UNL     1       1.621   7.825  20.328  0.00  0.00    +0.000 A 
ATOM      5  C   UNL     1       1.696   6.554  20.882  0.00  0.00    +0.000 A 
ATOM      6  C   UNL     1       2.323   5.533  20.172  0.00  0.00    +0.000 A 
ATOM      7  F   UNL     1       2.353   4.337  20.774  0.00  0.00    +0.000 F 
ENDROOT
BRANCH   4   8
ATOM      8  S   UNL     1       0.759   9.087  21.208  0.00  0.00    +0.000 S 
ATOM      9  O   UNL     1       0.861  10.319  20.457  0.00  0.00    +0.000 OA
ATOM     10  O   UNL     1      -0.503   8.553  21.653  0.00  0.00    +0.000 OA
BRANCH   8  11
ATOM     11  N   UNL     1       1.730   9.267  22.557  0.00  0.00    +0.000 NA
ATOM     12  H   UNL     1       1.227   9.228  23.439  0.00  0.00    +0.000 HD
ATOM     13  H   UNL     1       2.495   9.932  22.462  0.00  0.00    +0.000 HD
ENDBRANCH   8  11
ENDBRANCH   4   8
BRANCH   1  15
ATOM     14  C   UNL     1       1.990   3.767  17.434  0.00  0.00    +0.000 C 
ATOM     15  C   UNL     1       3.216   4.542  17.957  0.00  0.00    +0.000 C 
BRANCH  15  16
ATOM     16  N   UNL     1       4.272   3.609  18.483  0.00  0.00    +0.000 NA
ATOM     17  H   UNL     1       4.105   3.447  19.476  0.00  0.00    +0.000 HD
BRANCH  16  18
ATOM     18  C   UNL     1       5.648   4.156  18.302  0.00  0.00    +0.000 C 
ATOM     19  C   UNL     1       5.949   4.555  16.842  0.00  0.00    +0.000 C 
ATOM     20  C   UNL     1       5.802   6.040  16.525  0.00  0.00    +0.000 C 
ATOM     21  C   UNL     1       7.133   6.767  16.681  0.00  0.00    +0.000 C 
ATOM     22  C   UNL     1       7.639   6.922  18.115  0.00  0.00    +0.000 C 
ATOM     23  C   UNL     1       7.526   5.704  19.037  0.00  0.00    +0.000 C 
ATOM     24  C   UNL     1       6.075   5.243  19.313  0.00  0.00    +0.000 C 
ENDBRANCH  16  18
ENDBRANCH  15  16
ENDBRANCH   1  15
TORSDOF 5
ENDMDL
MODEL 2
REMARK VINA RESULT:      -7.2      0.991      1.037
REMARK  Name = 
REMARK  6 active torsions:
REMARK  status: ('A' for Active; 'I' for Inactive)
REMARK    1  A    between atoms: C_1  and  C_2
REMARK    2  A    between atoms: C_2  and  N_3
REMARK    3  A    between atoms: C_2  and  C_11
REMARK    4  A    between atoms: N_3  and  C_4
REMARK    5  A    between atoms: C_14  and  S_15
REMARK    6  A    between atoms: S_15  and  N_16
REMARK                            x       y       z     vdW  Elec       q    Type
REMARK                         _______ _______ _______ _____ _____    ______ ____
ROOT
ATOM      1  C   UNL     1       2.503   6.242  18.896  0.00  0.00    +0.000 A 
ATOM      2  C   UNL     1       2.507   7.355  18.025  0.00  0.00    +0.000 A 
ATOM      3  C   UNL     1       1.984   8.597  18.430  0.00  0.00    +0.000 A 
ATOM      4  C   UNL     1       1.453   8.745  19.715  0.00  0.00    +0.000 A 
ATOM      5  C   UNL     1       1.462   7.674  20.599  0.00  0.00    +0.000 A 
ATOM      6  C   UNL     1       2.006   6.457  20.196  0.00  0.00    +0.000 A 
ATOM      7  F   UNL     1       1.975   5.474  21.106  0.00  0.00    +0.000 F 
ENDROOT
BRANCH   4   8
ATOM      8  S   UNL     1       0.695  10.256  20.217  0.00  0.00    +0.000 S 
ATOM      9  O   UNL     1       1.399  11.351  19.587  0.00  0.00    +0.000 OA
ATOM     10  O   UNL     1      -0.735  10.101  20.131  0.00  0.00    +0.000 OA
BRANCH   8  11
ATOM     11  N   UNL     1       1.096  10.300  21.840  0.00  0.00    +0.000 NA
ATOM     12  H   UNL     1       1.769  11.021  22.082  0.00  0.00    +0.000 HD
ATOM     13  H   UNL     1       1.169   9.394  22.299  0.00  0.00    +0.000 HD
ENDBRANCH   8  11
ENDBRANCH   4   8
BRANCH   1  15
ATOM     14  C   UNL     1       1.490   4.038  18.036  0.00  0.00    +0.000 C 
ATOM     15  C   UNL     1       2.776   4.834  18.336  0.00  0.00    +0.000 C 
BRANCH  15  16
ATOM     16  N   UNL     1       3.770   4.006  19.104  0.00  0.00    +0.000 NA
ATOM     17  H   UNL     1       3.700   4.241  20.094  0.00  0.00    +0.000 HD
BRANCH  16  18
ATOM     18  C   UNL     1       5.170   4.236  18.645  0.00  0.00    +0.000 C 
ATOM     19  C   UNL     1       5.311   4.216  17.109  0.00  0.00    +0.000 C 
ATOM     20  C   UNL     1       5.341   5.585  16.436  0.00  0.00    +0.000 C 
ATOM     21  C   UNL     1       6.775   6.075  16.260  0.00  0.00    +0.000 C 
ATOM     22  C   UNL     1       7.502   6.471  17.544  0.00  0.00    +0.000 C 
ATOM     23  C   UNL     1       7.345   5.549  18.756  0.00  0.00    +0.000 C 
ATOM     24  C   UNL     1       5.898   5.437  19.291  0.00  0.00    +0.000 C 
ENDBRANCH  16  18
ENDBRANCH  15  16
ENDBRANCH   1  15
TORSDOF 5
ENDMDL
MODEL 3
REMARK VINA RESULT:      -7.2      1.237      1.324
REMARK  Name = 
REMARK  6 active torsions:
REMARK  status: ('A' for Active; 'I' for Inactive)
REMARK    1  A    between atoms: C_1  and  C_2
REMARK    2  A    between atoms: C_2  and  N_3
REMARK    3  A    between atoms: C_2  and  C_11
REMARK    4  A    between atoms: N_3  and  C_4
REMARK    5  A    between atoms: C_14  and  S_15
REMARK    6  A    between atoms: S_15  and  N_16
REMARK                            x       y       z     vdW  Elec       q    Type
REMARK                         _______ _______ _______ _____ _____    ______ ____
ROOT
ATOM      1  C   UNL     1       2.539   6.357  18.800  0.00  0.00    +0.000 A 
ATOM      2  C   UNL     1       2.500   7.509  17.983  0.00  0.00    +0.000 A 
ATOM      3  C   UNL     1       1.956   8.718  18.456  0.00  0.00    +0.000 A 
ATOM      4  C   UNL     1       1.447   8.792  19.757  0.00  0.00    +0.000 A 
ATOM      5  C   UNL     1       1.500   7.681  20.589  0.00  0.00    +0.000 A 
ATOM      6  C   UNL     1       2.064   6.498  20.118  0.00  0.00    +0.000 A 
ATOM      7  F   UNL     1       2.074   5.473  20.981  0.00  0.00    +0.000 F 
ENDROOT
BRANCH   4   8
ATOM      8  S   UNL     1       0.664  10.258  20.344  0.00  0.00    +0.000 S 
ATOM      9  O   UNL     1      -0.752  10.163  20.065  0.00  0.00    +0.000 OA
ATOM     10  O   UNL     1       1.178  10.556  21.657  0.00  0.00    +0.000 OA
BRANCH   8  11
ATOM     11  N   UNL     1       1.284  11.403  19.294  0.00  0.00    +0.000 NA
ATOM     12  H   UNL     1       0.773  11.482  18.419  0.00  0.00    +0.000 HD
ATOM     13  H   UNL     1       2.299  11.476  19.274  0.00  0.00    +0.000 HD
ENDBRANCH   8  11
ENDBRANCH   4   8
BRANCH   1  15
ATOM     14  C   UNL     1       1.563   4.220  17.749  0.00  0.00    +0.000 C 
ATOM     15  C   UNL     1       2.835   4.984  18.169  0.00  0.00    +0.000 C 
BRANCH  15  16
ATOM     16  N   UNL     1       3.778   4.100  18.937  0.00  0.00    +0.000 NA
ATOM     17  H   UNL     1       3.656   4.274  19.935  0.00  0.00    +0.000 HD
BRANCH  16  18
ATOM     18  C   UNL     1       5.203   4.341  18.570  0.00  0.00    +0.000 C 
ATOM     19  C   UNL     1       5.415   4.490  17.050  0.00  0.00    +0.000 C 
ATOM     20  C   UNL     1       5.508   5.925  16.539  0.00  0.00    +0.000 C 
ATOM     21  C   UNL     1       6.958   6.392  16.482  0.00  0.00    +0.000 C 
ATOM     22  C   UNL     1       7.633   6.622  17.834  0.00  0.00    +0.000 C 
ATOM     23  C   UNL     1       7.400   5.573  18.925  0.00  0.00    +0.000 C 
ATOM     24  C   UNL     1       5.926   5.441  19.380  0.00  0.00    +0.000 C 
ENDBRANCH  16  18
ENDBRANCH  15  16
ENDBRANCH   1  15
TORSDOF 5
ENDMDL
MODEL 4
REMARK VINA RESULT:      -7.2      2.431      4.445
REMARK  Name = 
REMARK  6 active torsions:
REMARK  status: ('A' for Active; 'I' for Inactive)
REMARK    1  A    between atoms: C_1  and  C_2
REMARK    2  A    between atoms: C_2  and  N_3
REMARK    3  A    between atoms: C_2  and  C_11
REMARK    4  A    between atoms: N_3  and  C_4
REMARK    5  A    between atoms: C_14  and  S_15
REMARK    6  A    between atoms: S_15  and  N_16
REMARK                            x       y       z     vdW  Elec       q    Type
REMARK                         _______ _______ _______ _____ _____    ______ ____
ROOT
ATOM      1  C   UNL     1       3.841   6.004  18.745  0.00  0.00    +0.000 A 
ATOM      2  C   UNL     1       2.947   6.331  19.789  0.00  0.00    +0.000 A 
ATOM      3  C   UNL     1       2.115   7.464  19.706  0.00  0.00    +0.000 A 
ATOM      4  C   UNL     1       2.164   8.283  18.574  0.00  0.00    +0.000 A 
ATOM      5  C   UNL     1       3.014   7.968  17.522  0.00  0.00    +0.000 A 
ATOM      6  C   UNL     1       3.813   6.830  17.605  0.00  0.00    +0.000 A 
ATOM      7  F   UNL     1       4.606   6.596  16.551  0.00  0.00    +0.000 F 
ENDROOT
BRANCH   4   8
ATOM      8  S   UNL     1       1.214   9.766  18.483  0.00  0.00    +0.000 S 
ATOM      9  O   UNL     1       0.052   9.514  17.658  0.00  0.00    +0.000 OA
ATOM     10  O   UNL     1       1.117  10.328  19.806  0.00  0.00    +0.000 OA
BRANCH   8  11
ATOM     11  N   UNL     1       2.229  10.752  17.593  0.00  0.00    +0.000 NA
ATOM     12  H   UNL     1       2.094  11.745  17.759  0.00  0.00    +0.000 HD
ATOM     13  H   UNL     1       2.423  10.439  16.644  0.00  0.00    +0.000 HD
ENDBRANCH   8  11
ENDBRANCH   4   8
BRANCH   1  15
ATOM     14  C   UNL     1       6.368   5.579  18.983  0.00  0.00    +0.000 C 
ATOM     15  C   UNL     1       4.952   4.967  18.990  0.00  0.00    +0.000 C 
BRANCH  15  16
ATOM     16  N   UNL     1       4.886   3.725  18.145  0.00  0.00    +0.000 NA
ATOM     17  H   UNL     1       4.796   3.996  17.166  0.00  0.00    +0.000 HD
BRANCH  16  18
ATOM     18  C   UNL     1       3.738   2.849  18.517  0.00  0.00    +0.000 C 
ATOM     19  C   UNL     1       3.768   2.414  19.997  0.00  0.00    +0.000 C 
ATOM     20  C   UNL     1       2.877   3.222  20.936  0.00  0.00    +0.000 C 
ATOM     21  C   UNL     1       1.508   2.568  21.085  0.00  0.00    +0.000 C 
ATOM     22  C   UNL     1       0.605   2.634  19.854  0.00  0.00    +0.000 C 
ATOM     23  C   UNL     1       1.246   2.342  18.494  0.00  0.00    +0.000 C 
ATOM     24  C   UNL     1       2.344   3.349  18.076  0.00  0.00    +0.000 C 
ENDBRANCH  16  18
ENDBRANCH  15  16
ENDBRANCH   1  15
TORSDOF 5
ENDMDL
MODEL 5
REMARK VINA RESULT:      -7.1      4.268      6.411
REMARK  Name = 
REMARK  6 active torsions:
REMARK  status: ('A' for Active; 'I' for Inactive)
REMARK    1  A    between atoms: C_1  and  C_2
REMARK    2  A    between atoms: C_2  and  N_3
REMARK    3  A    between atoms: C_2  and  C_11
REMARK    4  A    between atoms: N_3  and  C_4
REMARK    5  A    between atoms: C_14  and  S_15
REMARK    6  A    between atoms: S_15  and  N_16
REMARK                            x       y       z     vdW  Elec       q    Type
REMARK                         _______ _______ _______ _____ _____    ______ ____
ROOT
ATOM      1  C   UNL     1       3.717   6.546  18.685  0.00  0.00    +0.000 A 
ATOM      2  C   UNL     1       4.601   5.608  19.262  0.00  0.00    +0.000 A 
ATOM      3  C   UNL     1       5.666   5.061  18.523  0.00  0.00    +0.000 A 
ATOM      4  C   UNL     1       5.864   5.449  17.194  0.00  0.00    +0.000 A 
ATOM      5  C   UNL     1       5.026   6.391  16.612  0.00  0.00    +0.000 A 
ATOM      6  C   UNL     1       3.991   6.944  17.362  0.00  0.00    +0.000 A 
ATOM      7  F   UNL     1       3.226   7.843  16.728  0.00  0.00    +0.000 F 
ENDROOT
BRANCH   4   8
ATOM      8  S   UNL     1       7.123   4.706  16.208  0.00  0.00    +0.000 S 
ATOM      9  O   UNL     1       7.415   5.589  15.100  0.00  0.00    +0.000 OA
ATOM     10  O   UNL     1       8.147   4.195  17.083  0.00  0.00    +0.000 OA
BRANCH   8  11
ATOM     11  N   UNL     1       6.307   3.392  15.571  0.00  0.00    +0.000 NA
ATOM     12  H   UNL     1       6.779   2.951  14.787  0.00  0.00    +0.000 HD
ATOM     13  H   UNL     1       5.293   3.477  15.544  0.00  0.00    +0.000 HD
ENDBRANCH   8  11
ENDBRANCH   4   8
BRANCH   1  15
ATOM     14  C   UNL     1       2.025   8.378  19.322  0.00  0.00    +0.000 C 
ATOM     15  C   UNL     1       2.391   6.881  19.392  0.00  0.00    +0.000 C 
BRANCH  15  16
ATOM     16  N   UNL     1       2.239   6.343  20.788  0.00  0.00    +0.000 NA
ATOM     17  H   UNL     1       3.165   6.236  21.203  0.00  0.00    +0.000 HD
BRANCH  16  18
ATOM     18  C   UNL     1       1.539   5.027  20.813  0.00  0.00    +0.000 C 
ATOM     19  C   UNL     1       0.888   4.667  19.461  0.00  0.00    +0.000 C 
ATOM     20  C   UNL     1       1.692   3.717  18.579  0.00  0.00    +0.000 C 
ATOM     21  C   UNL     1       1.281   2.268  18.821  0.00  0.00    +0.000 C 
ATOM     22  C   UNL     1       1.691   1.679  20.170  0.00  0.00    +0.000 C 
ATOM     23  C   UNL     1       1.497   2.556  21.410  0.00  0.00    +0.000 C 
ATOM     24  C   UNL     1       2.341   3.852  21.415  0.00  0.00    +0.000 C 
ENDBRANCH  16  18
ENDBRANCH  15  16
ENDBRANCH   1  15
TORSDOF 5
ENDMDL
MODEL 6
REMARK VINA RESULT:      -7.0      1.215      1.605
REMARK  Name = 
REMARK  6 active torsions:
REMARK  status: ('A' for Active; 'I' for Inactive)
REMARK    1  A    between atoms: C_1  and  C_2
REMARK    2  A    between atoms: C_2  and  N_3
REMARK    3  A    between atoms: C_2  and  C_11
REMARK    4  A    between atoms: N_3  and  C_4
REMARK    5  A    between atoms: C_14  and  S_15
REMARK    6  A    between atoms: S_15  and  N_16
REMARK                            x       y       z     vdW  Elec       q    Type
REMARK                         _______ _______ _______ _____ _____    ______ ____
ROOT
ATOM      1  C   UNL     1       2.502   5.950  18.820  0.00  0.00    +0.000 A 
ATOM      2  C   UNL     1       1.999   5.634  20.101  0.00  0.00    +0.000 A 
ATOM      3  C   UNL     1       1.480   6.632  20.946  0.00  0.00    +0.000 A 
ATOM      4  C   UNL     1       1.453   7.963  20.518  0.00  0.00    +0.000 A 
ATOM      5  C   UNL     1       1.916   8.297  19.252  0.00  0.00    +0.000 A 
ATOM      6  C   UNL     1       2.403   7.296  18.415  0.00  0.00    +0.000 A 
ATOM      7  F   UNL     1       2.833   7.699  17.212  0.00  0.00    +0.000 F 
ENDROOT
BRANCH   4   8
ATOM      8  S   UNL     1       0.907   9.253  21.590  0.00  0.00    +0.000 S 
ATOM      9  O   UNL     1       1.027  10.512  20.888  0.00  0.00    +0.000 OA
ATOM     10  O   UNL     1      -0.317   8.832  22.224  0.00  0.00    +0.000 OA
BRANCH   8  11
ATOM     11  N   UNL     1       2.105   9.238  22.756  0.00  0.00    +0.000 NA
ATOM     12  H   UNL     1       2.354   8.309  23.084  0.00  0.00    +0.000 HD
ATOM     13  H   UNL     1       2.069   9.998  23.432  0.00  0.00    +0.000 HD
ENDBRANCH   8  11
ENDBRANCH   4   8
BRANCH   1  15
ATOM     14  C   UNL     1       2.497   3.912  17.249  0.00  0.00    +0.000 C 
ATOM     15  C   UNL     1       3.347   4.915  18.055  0.00  0.00    +0.000 C 
BRANCH  15  16
ATOM     16  N   UNL     1       4.410   4.217  18.856  0.00  0.00    +0.000 NA
ATOM     17  H   UNL     1       4.261   4.415  19.846  0.00  0.00    +0.000 HD
BRANCH  16  18
ATOM     18  C   UNL     1       5.784   4.651  18.473  0.00  0.00    +0.000 C 
ATOM     19  C   UNL     1       5.826   5.382  17.115  0.00  0.00    +0.000 C 
ATOM     20  C   UNL     1       5.850   6.906  17.192  0.00  0.00    +0.000 C 
ATOM     21  C   UNL     1       7.282   7.431  17.178  0.00  0.00    +0.000 C 
ATOM     22  C   UNL     1       8.100   7.158  18.439  0.00  0.00    +0.000 C 
ATOM     23  C   UNL     1       7.996   5.761  19.058  0.00  0.00    +0.000 C 
ATOM     24  C   UNL     1       6.583   5.391  19.568  0.00  0.00    +0.000 C 
ENDBRANCH  16  18
ENDBRANCH  15  16
ENDBRANCH   1  15
TORSDOF 5
ENDMDL
MODEL 7
REMARK VINA RESULT:      -7.0      1.936      2.168
REMARK  Name = 
REMARK  6 active torsions:
REMARK  status: ('A' for Active; 'I' for Inactive)
REMARK    1  A    between atoms: C_1  and  C_2
REMARK    2  A    between atoms: C_2  and  N_3
REMARK    3  A    between atoms: C_2  and  C_11
REMARK    4  A    between atoms: N_3  and  C_4
REMARK    5  A    between atoms: C_14  and  S_15
REMARK    6  A    between atoms: S_15  and  N_16
REMARK                            x       y       z     vdW  Elec       q    Type
REMARK                         _______ _______ _______ _____ _____    ______ ____
ROOT
ATOM      1  C   UNL     1       2.555   6.433  18.942  0.00  0.00    +0.000 A 
ATOM      2  C   UNL     1       2.728   7.278  17.823  0.00  0.00    +0.000 A 
ATOM      3  C   UNL     1       2.268   8.608  17.838  0.00  0.00    +0.000 A 
ATOM      4  C   UNL     1       1.632   9.113  18.977  0.00  0.00    +0.000 A 
ATOM      5  C   UNL     1       1.474   8.311  20.100  0.00  0.00    +0.000 A 
ATOM      6  C   UNL     1       1.956   7.004  20.081  0.00  0.00    +0.000 A 
ATOM      7  F   UNL     1       1.764   6.295  21.201  0.00  0.00    +0.000 F 
ENDROOT
BRANCH   4   8
ATOM      8  S   UNL     1       0.951  10.739  18.992  0.00  0.00    +0.000 S 
ATOM      9  O   UNL     1      -0.329  10.705  18.318  0.00  0.00    +0.000 OA
ATOM     10  O   UNL     1       1.117  11.292  20.312  0.00  0.00    +0.000 OA
BRANCH   8  11
ATOM     11  N   UNL     1       2.006  11.546  17.976  0.00  0.00    +0.000 NA
ATOM     12  H   UNL     1       2.680  12.132  18.459  0.00  0.00    +0.000 HD
ATOM     13  H   UNL     1       1.603  11.883  17.104  0.00  0.00    +0.000 HD
ENDBRANCH   8  11
ENDBRANCH   4   8
BRANCH   1  15
ATOM     14  C   UNL     1       1.476   4.097  18.982  0.00  0.00    +0.000 C 
ATOM     15  C   UNL     1       2.769   4.915  18.791  0.00  0.00    +0.000 C 
BRANCH  15  16
ATOM     16  N   UNL     1       3.909   4.334  19.580  0.00  0.00    +0.000 NA
ATOM     17  H   UNL     1       4.178   4.996  20.308  0.00  0.00    +0.000 HD
BRANCH  16  18
ATOM     18  C   UNL     1       5.094   4.038  18.726  0.00  0.00    +0.000 C 
ATOM     19  C   UNL     1       4.711   3.492  17.335  0.00  0.00    +0.000 C 
ATOM     20  C   UNL     1       4.713   4.517  16.205  0.00  0.00    +0.000 C 
ATOM     21  C   UNL     1       6.060   4.540  15.491  0.00  0.00    +0.000 C 
ATOM     22  C   UNL     1       7.223   5.128  16.290  0.00  0.00    +0.000 C 
ATOM     23  C   UNL     1       7.347   4.715  17.760  0.00  0.00    +0.000 C 
ATOM     24  C   UNL     1       6.160   5.154  18.650  0.00  0.00    +0.000 C 
ENDBRANCH  16  18
ENDBRANCH  15  16
ENDBRANCH   1  15
TORSDOF 5
ENDMDL
MODEL 8
REMARK VINA RESULT:      -7.0      2.098      2.674
REMARK  Name = 
REMARK  6 active torsions:
REMARK  status: ('A' for Active; 'I' for Inactive)
REMARK    1  A    between atoms: C_1  and  C_2
REMARK    2  A    between atoms: C_2  and  N_3
REMARK    3  A    between atoms: C_2  and  C_11
REMARK    4  A    between atoms: N_3  and  C_4
REMARK    5  A    between atoms: C_14  and  S_15
REMARK    6  A    between atoms: S_15  and  N_16
REMARK                            x       y       z     vdW  Elec       q    Type
REMARK                         _______ _______ _______ _____ _____    ______ ____
ROOT
ATOM      1  C   UNL     1       2.446   7.456  18.954  0.00  0.00    +0.000 A 
ATOM      2  C   UNL     1       2.471   8.339  17.851  0.00  0.00    +0.000 A 
ATOM      3  C   UNL     1       1.757   9.551  17.873  0.00  0.00    +0.000 A 
ATOM      4  C   UNL     1       1.011   9.900  19.003  0.00  0.00    +0.000 A 
ATOM      5  C   UNL     1       0.993   9.064  20.112  0.00  0.00    +0.000 A 
ATOM      6  C   UNL     1       1.724   7.879  20.087  0.00  0.00    +0.000 A 
ATOM      7  F   UNL     1       1.653   7.127  21.193  0.00  0.00    +0.000 F 
ENDROOT
BRANCH   4   8
ATOM      8  S   UNL     1       0.021  11.360  19.024  0.00  0.00    +0.000 S 
ATOM      9  O   UNL     1      -1.150  11.129  18.206  0.00  0.00    +0.000 OA
ATOM     10  O   UNL     1      -0.062  11.836  20.381  0.00  0.00    +0.000 OA
BRANCH   8  11
ATOM     11  N   UNL     1       0.994  12.426  18.178  0.00  0.00    +0.000 NA
ATOM     12  H   UNL     1       0.637  13.377  18.147  0.00  0.00    +0.000 HD
ATOM     13  H   UNL     1       1.441  12.047  17.347  0.00  0.00    +0.000 HD
ENDBRANCH   8  11
ENDBRANCH   4   8
BRANCH   1  15
ATOM     14  C   UNL     1       1.843   4.955  18.898  0.00  0.00    +0.000 C 
ATOM     15  C   UNL     1       2.959   6.014  18.790  0.00  0.00    +0.000 C 
BRANCH  15  16
ATOM     16  N   UNL     1       4.152   5.644  19.627  0.00  0.00    +0.000 NA
ATOM     17  H   UNL     1       4.388   6.430  20.232  0.00  0.00    +0.000 HD
BRANCH  16  18
ATOM     18  C   UNL     1       5.339   5.295  18.795  0.00  0.00    +0.000 C 
ATOM     19  C   UNL     1       5.237   3.893  18.159  0.00  0.00    +0.000 C 
ATOM     20  C   UNL     1       4.771   3.865  16.706  0.00  0.00    +0.000 C 
ATOM     21  C   UNL     1       5.960   3.881  15.751  0.00  0.00    +0.000 C 
ATOM     22  C   UNL     1       6.737   5.196  15.683  0.00  0.00    +0.000 C 
ATOM     23  C   UNL     1       7.041   5.904  17.006  0.00  0.00    +0.000 C 
ATOM     24  C   UNL     1       5.788   6.373  17.783  0.00  0.00    +0.000 C 
ENDBRANCH  16  18
ENDBRANCH  15  16
ENDBRANCH   1  15
TORSDOF 5
ENDMDL
MODEL 9
REMARK VINA RESULT:      -7.0      2.112      2.690
REMARK  Name = 
REMARK  6 active torsions:
REMARK  status: ('A' for Active; 'I' for Inactive)
REMARK    1  A    between atoms: C_1  and  C_2
REMARK    2  A    between atoms: C_2  and  N_3
REMARK    3  A    between atoms: C_2  and  C_11
REMARK    4  A    between atoms: N_3  and  C_4
REMARK    5  A    between atoms: C_14  and  S_15
REMARK    6  A    between atoms: S_15  and  N_16
REMARK                            x       y       z     vdW  Elec       q    Type
REMARK                         _______ _______ _______ _____ _____    ______ ____
ROOT
ATOM      1  C   UNL     1       2.299   6.722  19.593  0.00  0.00    +0.000 A 
ATOM      2  C   UNL     1       1.571   7.106  20.741  0.00  0.00    +0.000 A 
ATOM      3  C   UNL     1       1.006   8.390  20.848  0.00  0.00    +0.000 A 
ATOM      4  C   UNL     1       1.158   9.308  19.804  0.00  0.00    +0.000 A 
ATOM      5  C   UNL     1       1.845   8.946  18.653  0.00  0.00    +0.000 A 
ATOM      6  C   UNL     1       2.378   7.663  18.548  0.00  0.00    +0.000 A 
ATOM      7  F   UNL     1       3.028   7.392  17.409  0.00  0.00    +0.000 F 
ENDROOT
BRANCH   4   8
ATOM      8  S   UNL     1       0.554  10.959  19.950  0.00  0.00    +0.000 S 
ATOM      9  O   UNL     1      -0.891  10.922  19.897  0.00  0.00    +0.000 OA
ATOM     10  O   UNL     1       1.275  11.617  21.009  0.00  0.00    +0.000 OA
BRANCH   8  11
ATOM     11  N   UNL     1       1.070  11.624  18.505  0.00  0.00    +0.000 NA
ATOM     12  H   UNL     1       0.811  12.599  18.381  0.00  0.00    +0.000 HD
ATOM     13  H   UNL     1       1.032  11.005  17.698  0.00  0.00    +0.000 HD
ENDBRANCH   8  11
ENDBRANCH   4   8
BRANCH   1  15
ATOM     14  C   UNL     1       2.639   4.380  20.606  0.00  0.00    +0.000 C 
ATOM     15  C   UNL     1       3.168   5.451  19.630  0.00  0.00    +0.000 C 
BRANCH  15  16
ATOM     16  N   UNL     1       4.645   5.673  19.804  0.00  0.00    +0.000 NA
ATOM     17  H   UNL     1       4.853   6.658  19.636  0.00  0.00    +0.000 HD
BRANCH  16  18
ATOM     18  C   UNL     1       5.455   4.837  18.873  0.00  0.00    +0.000 C 
ATOM     19  C   UNL     1       4.607   4.170  17.771  0.00  0.00    +0.000 C 
ATOM     20  C   UNL     1       4.611   4.882  16.421  0.00  0.00    +0.000 C 
ATOM     21  C   UNL     1       5.695   4.316  15.509  0.00  0.00    +0.000 C 
ATOM     22  C   UNL     1       7.133   4.644  15.907  0.00  0.00    +0.000 C 
ATOM     23  C   UNL     1       7.498   4.526  17.390  0.00  0.00    +0.000 C 
ATOM     24  C   UNL     1       6.733   5.503  18.315  0.00  0.00    +0.000 C 
ENDBRANCH  16  18
ENDBRANCH  15  16
ENDBRANCH   1  15
TORSDOF 5
ENDMDL
