MODEL 1
REMARK VINA RESULT:      -5.4      0.000      0.000
REMARK  Name = 
REMARK  5 active torsions:
REMARK  status: ('A' for Active; 'I' for Inactive)
REMARK    1  A    between atoms: C_1  and  N_2
REMARK    2  A    between atoms: N_2  and  C_3
REMARK    3  A    between atoms: C_3  and  C_4
REMARK    4  A    between atoms: C_4  and  C_5
REMARK    5  A    between atoms: C_5  and  C_6
REMARK                            x       y       z     vdW  Elec       q    Type
REMARK                         _______ _______ _______ _____ _____    ______ ____
ROOT
ATOM      1  C   UNL     1       3.155   6.046  17.908  0.00  0.00    +0.000 C 
ENDROOT
BRANCH   1   2
ATOM      2  C   UNL     1       2.353   4.979  18.603  0.00  0.00    +0.000 A 
ATOM      3  C   UNL     1       1.946   3.836  17.891  0.00  0.00    +0.000 A 
ATOM      4  C   UNL     1       1.176   2.854  18.514  0.00  0.00    +0.000 A 
ATOM      5  C   UNL     1       0.812   3.000  19.855  0.00  0.00    +0.000 A 
ATOM      6  C   UNL     1       1.218   4.127  20.574  0.00  0.00    +0.000 A 
ATOM      7  C   UNL     1       1.989   5.113  19.954  0.00  0.00    +0.000 A 
ENDBRANCH   1   2
BRANCH   1   8
ATOM      8  C   UNL     1       4.518   5.476  17.483  0.00  0.00    +0.000 C 
BRANCH   8   9
ATOM      9  C   UNL     1       5.447   5.219  18.676  0.00  0.00    +0.000 C 
BRANCH   9  11
ATOM     10  C   UNL     1       7.616   4.599  17.711  0.00  0.00    +0.000 C 
ATOM     11  N   UNL     1       6.421   4.142  18.427  0.00  0.00    +0.000 NA
ATOM     12  H   UNL     1       6.735   3.785  19.358  0.00  0.00    +0.000 HD
ENDBRANCH   9  11
ENDBRANCH   8   9
ENDBRANCH   1   8
TORSDOF 4
ENDMDL
MODEL 2
REMARK VINA RESULT:      -5.4      0.520      1.520
REMARK  Name = 
REMARK  5 active torsions:
REMARK  status: ('A' for Active; 'I' for Inactive)
REMARK    1  A    between atoms: C_1  and  N_2
REMARK    2  A    between atoms: N_2  and  C_3
REMARK    3  A    between atoms: C_3  and  C_4
REMARK    4  A    between atoms: C_4  and  C_5
REMARK    5  A    between atoms: C_5  and  C_6
REMARK                            x       y       z     vdW  Elec       q    Type
REMARK                         _______ _______ _______ _____ _____    ______ ____
ROOT
ATOM      1  C   UNL     1       3.233   6.318  18.854  0.00  0.00    +0.000 C 
ENDROOT
BRANCH   1   2
ATOM      2  C   UNL     1       2.368   5.119  19.138  0.00  0.00    +0.000 A 
ATOM      3  C   UNL     1       1.949   4.855  20.455  0.00  0.00    +0.000 A 
ATOM      4  C   UNL     1       1.174   3.731  20.737  0.00  0.00    +0.000 A 
ATOM      5  C   UNL     1       0.803   2.864  19.706  0.00  0.00    +0.000 A 
ATOM      6  C   UNL     1       1.206   3.120  18.394  0.00  0.00    +0.000 A 
ATOM      7  C   UNL     1       1.982   4.245  18.106  0.00  0.00    +0.000 A 
ENDBRANCH   1   2
BRANCH   1   8
ATOM      8  C   UNL     1       4.528   5.869  18.157  0.00  0.00    +0.000 C 
BRANCH   8   9
ATOM      9  C   UNL     1       5.513   5.197  19.120  0.00  0.00    +0.000 C 
BRANCH   9  11
ATOM     10  C   UNL     1       7.510   4.689  17.789  0.00  0.00    +0.000 C 
ATOM     11  N   UNL     1       6.330   4.155  18.475  0.00  0.00    +0.000 NA
ATOM     12  H   UNL     1       6.673   3.517  19.229  0.00  0.00    +0.000 HD
ENDBRANCH   9  11
ENDBRANCH   8   9
ENDBRANCH   1   8
TORSDOF 4
ENDMDL
MODEL 3
REMARK VINA RESULT:      -5.1      0.996      1.765
REMARK  Name = 
REMARK  5 active torsions:
REMARK  status: ('A' for Active; 'I' for Inactive)
REMARK    1  A    between atoms: C_1  and  N_2
REMARK    2  A    between atoms: N_2  and  C_3
REMARK    3  A    between atoms: C_3  and  C_4
REMARK    4  A    between atoms: C_4  and  C_5
REMARK    5  A    between atoms: C_5  and  C_6
REMARK                            x       y       z     vdW  Elec       q    Type
REMARK                         _______ _______ _______ _____ _____    ______ ____
ROOT
ATOM      1  C   UNL     1       3.656   5.041  17.462  0.00  0.00    +0.000 C 
ENDROOT
BRANCH   1   2
ATOM      2  C   UNL     1       2.653   4.506  18.449  0.00  0.00    +0.000 A 
ATOM      3  C   UNL     1       2.519   5.116  19.710  0.00  0.00    +0.000 A 
ATOM      4  C   UNL     1       1.616   4.612  20.644  0.00  0.00    +0.000 A 
ATOM      5  C   UNL     1       0.833   3.499  20.328  0.00  0.00    +0.000 A 
ATOM      6  C   UNL     1       0.951   2.891  19.076  0.00  0.00    +0.000 A 
ATOM      7  C   UNL     1       1.854   3.393  18.136  0.00  0.00    +0.000 A 
ENDBRANCH   1   2
BRANCH   1   8
ATOM      8  C   UNL     1       4.706   3.962  17.154  0.00  0.00    +0.000 C 
BRANCH   8   9
ATOM      9  C   UNL     1       6.104   4.548  16.921  0.00  0.00    +0.000 C 
BRANCH   9  11
ATOM     10  C   UNL     1       7.497   5.547  18.676  0.00  0.00    +0.000 C 
ATOM     11  N   UNL     1       7.024   4.310  18.046  0.00  0.00    +0.000 NA
ATOM     12  H   UNL     1       6.496   3.775  18.773  0.00  0.00    +0.000 HD
ENDBRANCH   9  11
ENDBRANCH   8   9
ENDBRANCH   1   8
TORSDOF 4
ENDMDL
MODEL 4
REMARK VINA RESULT:      -5.1      1.048      1.827
REMARK  Name = 
REMARK  5 active torsions:
REMARK  status: ('A' for Active; 'I' for Inactive)
REMARK    1  A    between atoms: C_1  and  N_2
REMARK    2  A    between atoms: N_2  and  C_3
REMARK    3  A    between atoms: C_3  and  C_4
REMARK    4  A    between atoms: C_4  and  C_5
REMARK    5  A    between atoms: C_5  and  C_6
REMARK                            x       y       z     vdW  Elec       q    Type
REMARK                         _______ _______ _______ _____ _____    ______ ____
ROOT
ATOM      1  C   UNL     1       2.982   5.556  17.851  0.00  0.00    +0.000 C 
ENDROOT
BRANCH   1   2
ATOM      2  C   UNL     1       2.342   4.705  18.915  0.00  0.00    +0.000 A 
ATOM      3  C   UNL     1       2.694   4.892  20.265  0.00  0.00    +0.000 A 
ATOM      4  C   UNL     1       2.132   4.091  21.257  0.00  0.00    +0.000 A 
ATOM      5  C   UNL     1       1.209   3.100  20.914  0.00  0.00    +0.000 A 
ATOM      6  C   UNL     1       0.846   2.910  19.579  0.00  0.00    +0.000 A 
ATOM      7  C   UNL     1       1.406   3.711  18.581  0.00  0.00    +0.000 A 
ENDBRANCH   1   2
BRANCH   1   8
ATOM      8  C   UNL     1       4.463   5.172  17.701  0.00  0.00    +0.000 C 
BRANCH   8   9
ATOM      9  C   UNL     1       4.681   4.050  16.679  0.00  0.00    +0.000 C 
BRANCH   9  11
ATOM     10  C   UNL     1       7.009   4.628  17.194  0.00  0.00    +0.000 C 
ATOM     11  N   UNL     1       6.105   3.749  16.448  0.00  0.00    +0.000 NA
ATOM     12  H   UNL     1       6.275   2.773  16.782  0.00  0.00    +0.000 HD
ENDBRANCH   9  11
ENDBRANCH   8   9
ENDBRANCH   1   8
TORSDOF 4
ENDMDL
MODEL 5
REMARK VINA RESULT:      -5.1      0.997      1.743
REMARK  Name = 
REMARK  5 active torsions:
REMARK  status: ('A' for Active; 'I' for Inactive)
REMARK    1  A    between atoms: C_1  and  N_2
REMARK    2  A    between atoms: N_2  and  C_3
REMARK    3  A    between atoms: C_3  and  C_4
REMARK    4  A    between atoms: C_4  and  C_5
REMARK    5  A    between atoms: C_5  and  C_6
REMARK                            x       y       z     vdW  Elec       q    Type
REMARK                         _______ _______ _______ _____ _____    ______ ____
ROOT
ATOM      1  C   UNL     1       3.631   5.147  17.444  0.00  0.00    +0.000 C 
ENDROOT
BRANCH   1   2
ATOM      2  C   UNL     1       2.611   4.378  18.240  0.00  0.00    +0.000 A 
ATOM      3  C   UNL     1       2.093   4.927  19.427  0.00  0.00    +0.000 A 
ATOM      4  C   UNL     1       1.171   4.212  20.191  0.00  0.00    +0.000 A 
ATOM      5  C   UNL     1       0.752   2.946  19.774  0.00  0.00    +0.000 A 
ATOM      6  C   UNL     1       1.254   2.395  18.593  0.00  0.00    +0.000 A 
ATOM      7  C   UNL     1       2.177   3.107  17.824  0.00  0.00    +0.000 A 
ENDBRANCH   1   2
BRANCH   1   8
ATOM      8  C   UNL     1       4.680   5.751  18.391  0.00  0.00    +0.000 C 
BRANCH   8   9
ATOM      9  C   UNL     1       5.694   4.713  18.887  0.00  0.00    +0.000 C 
BRANCH   9  11
ATOM     10  C   UNL     1       7.745   6.060  18.872  0.00  0.00    +0.000 C 
ATOM     11  N   UNL     1       6.784   5.306  19.682  0.00  0.00    +0.000 NA
ATOM     12  H   UNL     1       6.350   5.978  20.354  0.00  0.00    +0.000 HD
ENDBRANCH   9  11
ENDBRANCH   8   9
ENDBRANCH   1   8
TORSDOF 4
ENDMDL
MODEL 6
REMARK VINA RESULT:      -5.1      2.092      2.655
REMARK  Name = 
REMARK  5 active torsions:
REMARK  status: ('A' for Active; 'I' for Inactive)
REMARK    1  A    between atoms: C_1  and  N_2
REMARK    2  A    between atoms: N_2  and  C_3
REMARK    3  A    between atoms: C_3  and  C_4
REMARK    4  A    between atoms: C_4  and  C_5
REMARK    5  A    between atoms: C_5  and  C_6
REMARK                            x       y       z     vdW  Elec       q    Type
REMARK                         _______ _______ _______ _____ _____    ______ ____
ROOT
ATOM      1  C   UNL     1       4.386   5.656  17.243  0.00  0.00    +0.000 C 
ENDROOT
BRANCH   1   2
ATOM      2  C   UNL     1       3.478   4.503  17.577  0.00  0.00    +0.000 A 
ATOM      3  C   UNL     1       2.141   4.748  17.940  0.00  0.00    +0.000 A 
ATOM      4  C   UNL     1       1.298   3.692  18.282  0.00  0.00    +0.000 A 
ATOM      5  C   UNL     1       1.779   2.380  18.258  0.00  0.00    +0.000 A 
ATOM      6  C   UNL     1       3.101   2.124  17.892  0.00  0.00    +0.000 A 
ATOM      7  C   UNL     1       3.950   3.179  17.548  0.00  0.00    +0.000 A 
ENDBRANCH   1   2
BRANCH   1   8
ATOM      8  C   UNL     1       5.225   5.312  16.001  0.00  0.00    +0.000 C 
BRANCH   8   9
ATOM      9  C   UNL     1       6.727   5.512  16.232  0.00  0.00    +0.000 C 
BRANCH   9  11
ATOM     10  C   UNL     1       6.853   4.532  13.986  0.00  0.00    +0.000 C 
ATOM     11  N   UNL     1       7.526   5.341  15.006  0.00  0.00    +0.000 NA
ATOM     12  H   UNL     1       7.677   6.292  14.597  0.00  0.00    +0.000 HD
ENDBRANCH   9  11
ENDBRANCH   8   9
ENDBRANCH   1   8
TORSDOF 4
ENDMDL
MODEL 7
REMARK VINA RESULT:      -5.1      1.407      2.121
REMARK  Name = 
REMARK  5 active torsions:
REMARK  status: ('A' for Active; 'I' for Inactive)
REMARK    1  A    between atoms: C_1  and  N_2
REMARK    2  A    between atoms: N_2  and  C_3
REMARK    3  A    between atoms: C_3  and  C_4
REMARK    4  A    between atoms: C_4  and  C_5
REMARK    5  A    between atoms: C_5  and  C_6
REMARK                            x       y       z     vdW  Elec       q    Type
REMARK                         _______ _______ _______ _____ _____    ______ ____
ROOT
ATOM      1  C   UNL     1       3.305   6.139  17.942  0.00  0.00    +0.000 C 
ENDROOT
BRANCH   1   2
ATOM      2  C   UNL     1       2.430   5.103  18.597  0.00  0.00    +0.000 A 
ATOM      3  C   UNL     1       2.070   5.246  19.949  0.00  0.00    +0.000 A 
ATOM      4  C   UNL     1       1.285   4.279  20.576  0.00  0.00    +0.000 A 
ATOM      5  C   UNL     1       0.847   3.164  19.857  0.00  0.00    +0.000 A 
ATOM      6  C   UNL     1       1.191   3.015  18.512  0.00  0.00    +0.000 A 
ATOM      7  C   UNL     1       1.977   3.982  17.880  0.00  0.00    +0.000 A 
ENDBRANCH   1   2
BRANCH   1   8
ATOM      8  C   UNL     1       4.384   5.445  17.095  0.00  0.00    +0.000 C 
BRANCH   8   9
ATOM      9  C   UNL     1       5.116   6.417  16.162  0.00  0.00    +0.000 C 
BRANCH   9  11
ATOM     10  C   UNL     1       6.323   4.340  15.662  0.00  0.00    +0.000 C 
ATOM     11  N   UNL     1       6.213   5.780  15.412  0.00  0.00    +0.000 NA
ATOM     12  H   UNL     1       6.008   5.904  14.395  0.00  0.00    +0.000 HD
ENDBRANCH   9  11
ENDBRANCH   8   9
ENDBRANCH   1   8
TORSDOF 4
ENDMDL
MODEL 8
REMARK VINA RESULT:      -5.1      1.325      2.034
REMARK  Name = 
REMARK  5 active torsions:
REMARK  status: ('A' for Active; 'I' for Inactive)
REMARK    1  A    between atoms: C_1  and  N_2
REMARK    2  A    between atoms: N_2  and  C_3
REMARK    3  A    between atoms: C_3  and  C_4
REMARK    4  A    between atoms: C_4  and  C_5
REMARK    5  A    between atoms: C_5  and  C_6
REMARK                            x       y       z     vdW  Elec       q    Type
REMARK                         _______ _______ _______ _____ _____    ______ ____
ROOT
ATOM      1  C   UNL     1       2.973   6.354  18.029  0.00  0.00    +0.000 C 
ENDROOT
BRANCH   1   2
ATOM      2  C   UNL     1       2.226   5.204  18.651  0.00  0.00    +0.000 A 
ATOM      3  C   UNL     1       1.959   5.209  20.032  0.00  0.00    +0.000 A 
ATOM      4  C   UNL     1       1.295   4.137  20.626  0.00  0.00    +0.000 A 
ATOM      5  C   UNL     1       0.884   3.053  19.846  0.00  0.00    +0.000 A 
ATOM      6  C   UNL     1       1.135   3.041  18.473  0.00  0.00    +0.000 A 
ATOM      7  C   UNL     1       1.800   4.114  17.873  0.00  0.00    +0.000 A 
ENDBRANCH   1   2
BRANCH   1   8
ATOM      8  C   UNL     1       4.484   6.068  18.064  0.00  0.00    +0.000 C 
BRANCH   8   9
ATOM      9  C   UNL     1       5.110   6.036  16.664  0.00  0.00    +0.000 C 
BRANCH   9  11
ATOM     10  C   UNL     1       7.340   6.693  17.446  0.00  0.00    +0.000 C 
ATOM     11  N   UNL     1       6.241   6.968  16.516  0.00  0.00    +0.000 NA
ATOM     12  H   UNL     1       6.617   6.850  15.548  0.00  0.00    +0.000 HD
ENDBRANCH   9  11
ENDBRANCH   8   9
ENDBRANCH   1   8
TORSDOF 4
ENDMDL
MODEL 9
REMARK VINA RESULT:      -5.1      2.414      5.146
REMARK  Name = 
REMARK  5 active torsions:
REMARK  status: ('A' for Active; 'I' for Inactive)
REMARK    1  A    between atoms: C_1  and  N_2
REMARK    2  A    between atoms: N_2  and  C_3
REMARK    3  A    between atoms: C_3  and  C_4
REMARK    4  A    between atoms: C_4  and  C_5
REMARK    5  A    between atoms: C_5  and  C_6
REMARK                            x       y       z     vdW  Elec       q    Type
REMARK                         _______ _______ _______ _____ _____    ______ ____
ROOT
ATOM      1  C   UNL     1       3.270   3.381  18.152  0.00  0.00    +0.000 C 
ENDROOT
BRANCH   1   2
ATOM      2  C   UNL     1       4.001   4.456  17.394  0.00  0.00    +0.000 A 
ATOM      3  C   UNL     1       3.850   5.803  17.770  0.00  0.00    +0.000 A 
ATOM      4  C   UNL     1       4.497   6.811  17.057  0.00  0.00    +0.000 A 
ATOM      5  C   UNL     1       5.307   6.484  15.966  0.00  0.00    +0.000 A 
ATOM      6  C   UNL     1       5.471   5.150  15.589  0.00  0.00    +0.000 A 
ATOM      7  C   UNL     1       4.826   4.136  16.301  0.00  0.00    +0.000 A 
ENDBRANCH   1   2
BRANCH   1   8
ATOM      8  C   UNL     1       1.754   3.557  17.969  0.00  0.00    +0.000 C 
BRANCH   8   9
ATOM      9  C   UNL     1       0.938   2.692  18.937  0.00  0.00    +0.000 C 
BRANCH   9  11
ATOM     10  C   UNL     1       1.454   2.774  21.334  0.00  0.00    +0.000 C 
ATOM     11  N   UNL     1       0.685   3.353  20.229  0.00  0.00    +0.000 NA
ATOM     12  H   UNL     1       0.983   4.350  20.132  0.00  0.00    +0.000 HD
ENDBRANCH   9  11
ENDBRANCH   8   9
ENDBRANCH   1   8
TORSDOF 4
ENDMDL
