MODEL 1
REMARK VINA RESULT:      -7.2      0.000      0.000
REMARK  Name = 
REMARK  5 active torsions:
REMARK  status: ('A' for Active; 'I' for Inactive)
REMARK    1  A    between atoms: O_1  and  C_2
REMARK    2  A    between atoms: C_5  and  C_6
REMARK    3  A    between atoms: N_7  and  N_8
REMARK    4  A    between atoms: C_14  and  O_15
REMARK    5  A    between atoms: C_16  and  O_17
REMARK                            x       y       z     vdW  Elec       q    Type
REMARK                         _______ _______ _______ _____ _____    ______ ____
ROOT
ATOM      1  C   UNL     1       6.820   5.235  15.613  0.00  0.00    +0.000 A 
ATOM      2  C   UNL     1       5.576   5.748  15.245  0.00  0.00    +0.000 A 
ATOM      3  C   UNL     1       4.486   5.613  16.114  0.00  0.00    +0.000 A 
ATOM      4  C   UNL     1       4.641   4.962  17.345  0.00  0.00    +0.000 A 
ATOM      5  C   UNL     1       5.884   4.441  17.704  0.00  0.00    +0.000 A 
ATOM      6  C   UNL     1       6.971   4.583  16.836  0.00  0.00    +0.000 A 
ENDROOT
BRANCH   1   7
ATOM      7  O   UNL     1       7.897   5.377  14.784  0.00  0.00    +0.000 OA
ATOM      8  H   UNL     1       7.600   5.367  13.862  0.00  0.00    +0.000 HD
ENDBRANCH   1   7
BRANCH   4   9
ATOM      9  C   UNL     1       3.481   4.933  18.259  0.00  0.00    +0.000 C 
ATOM     10  N   UNL     1       2.375   4.321  17.959  0.00  0.00    +0.000 NA
BRANCH  10  11
ATOM     11  N   UNL     1       1.499   4.286  18.996  0.00  0.00    +0.000 N 
ATOM     12  C   UNL     1       1.826   5.093  20.181  0.00  0.00    +0.000 C 
ATOM     13  C   UNL     1       2.491   4.307  21.311  0.00  0.00    +0.000 C 
ATOM     14  C   UNL     1       1.653   3.096  21.695  0.00  0.00    +0.000 C 
ATOM     15  C   UNL     1       1.413   2.234  20.464  0.00  0.00    +0.000 C 
ATOM     16  C   UNL     1       0.780   3.047  19.336  0.00  0.00    +0.000 C 
ENDBRANCH  10  11
ENDBRANCH   4   9
BRANCH   5  17
ATOM     17  O   UNL     1       6.118   3.803  18.896  0.00  0.00    +0.000 OA
ATOM     18  H   UNL     1       6.571   4.451  19.485  0.00  0.00    +0.000 HD
ENDBRANCH   5  17
BRANCH   6  19
ATOM     19  O   UNL     1       8.191   4.088  17.215  0.00  0.00    +0.000 OA
ATOM     20  H   UNL     1       8.695   4.007  16.382  0.00  0.00    +0.000 HD
ENDBRANCH   6  19
TORSDOF 5
ENDMDL
MODEL 2
REMARK VINA RESULT:      -7.1      1.224      1.281
REMARK  Name = 
REMARK  5 active torsions:
REMARK  status: ('A' for Active; 'I' for Inactive)
REMARK    1  A    between atoms: O_1  and  C_2
REMARK    2  A    between atoms: C_5  and  C_6
REMARK    3  A    between atoms: N_7  and  N_8
REMARK    4  A    between atoms: C_14  and  O_15
REMARK    5  A    between atoms: C_16  and  O_17
REMARK                            x       y       z     vdW  Elec       q    Type
REMARK                         _______ _______ _______ _____ _____    ______ ____
ROOT
ATOM      1  C   UNL     1       6.850   5.068  15.169  0.00  0.00    +0.000 A 
ATOM      2  C   UNL     1       5.901   4.095  14.855  0.00  0.00    +0.000 A 
ATOM      3  C   UNL     1       4.879   3.804  15.768  0.00  0.00    +0.000 A 
ATOM      4  C   UNL     1       4.812   4.483  16.993  0.00  0.00    +0.000 A 
ATOM      5  C   UNL     1       5.771   5.447  17.306  0.00  0.00    +0.000 A 
ATOM      6  C   UNL     1       6.786   5.738  16.389  0.00  0.00    +0.000 A 
ENDROOT
BRANCH   1   7
ATOM      7  O   UNL     1       7.841   5.377  14.279  0.00  0.00    +0.000 OA
ATOM      8  H   UNL     1       8.109   6.300  14.401  0.00  0.00    +0.000 HD
ENDBRANCH   1   7
BRANCH   4   9
ATOM      9  C   UNL     1       3.661   4.202  17.874  0.00  0.00    +0.000 C 
ATOM     10  N   UNL     1       2.923   5.146  18.374  0.00  0.00    +0.000 NA
BRANCH  10  11
ATOM     11  N   UNL     1       1.831   4.667  19.026  0.00  0.00    +0.000 N 
ATOM     12  C   UNL     1       1.687   5.020  20.446  0.00  0.00    +0.000 C 
ATOM     13  C   UNL     1       2.174   3.943  21.415  0.00  0.00    +0.000 C 
ATOM     14  C   UNL     1       1.506   2.607  21.118  0.00  0.00    +0.000 C 
ATOM     15  C   UNL     1       1.756   2.226  19.667  0.00  0.00    +0.000 C 
ATOM     16  C   UNL     1       1.294   3.331  18.718  0.00  0.00    +0.000 C 
ENDBRANCH  10  11
ENDBRANCH   4   9
BRANCH   5  17
ATOM     17  O   UNL     1       5.764   6.163  18.477  0.00  0.00    +0.000 OA
ATOM     18  H   UNL     1       6.572   5.903  18.978  0.00  0.00    +0.000 HD
ENDBRANCH   5  17
BRANCH   6  19
ATOM     19  O   UNL     1       7.702   6.706  16.701  0.00  0.00    +0.000 OA
ATOM     20  H   UNL     1       7.349   7.522  16.296  0.00  0.00    +0.000 HD
ENDBRANCH   6  19
TORSDOF 5
ENDMDL
MODEL 3
REMARK VINA RESULT:      -7.1      1.630      2.088
REMARK  Name = 
REMARK  5 active torsions:
REMARK  status: ('A' for Active; 'I' for Inactive)
REMARK    1  A    between atoms: O_1  and  C_2
REMARK    2  A    between atoms: C_5  and  C_6
REMARK    3  A    between atoms: N_7  and  N_8
REMARK    4  A    between atoms: C_14  and  O_15
REMARK    5  A    between atoms: C_16  and  O_17
REMARK                            x       y       z     vdW  Elec       q    Type
REMARK                         _______ _______ _______ _____ _____    ______ ____
ROOT
ATOM      1  C   UNL     1       7.049   5.013  14.969  0.00  0.00    +0.000 A 
ATOM      2  C   UNL     1       6.289   3.927  14.536  0.00  0.00    +0.000 A 
ATOM      3  C   UNL     1       5.376   3.326  15.412  0.00  0.00    +0.000 A 
ATOM      4  C   UNL     1       5.229   3.810  16.719  0.00  0.00    +0.000 A 
ATOM      5  C   UNL     1       6.000   4.889  17.151  0.00  0.00    +0.000 A 
ATOM      6  C   UNL     1       6.906   5.490  16.271  0.00  0.00    +0.000 A 
ENDROOT
BRANCH   1   7
ATOM      7  O   UNL     1       7.929   5.622  14.119  0.00  0.00    +0.000 OA
ATOM      8  H   UNL     1       8.269   6.431  14.531  0.00  0.00    +0.000 HD
ENDBRANCH   1   7
BRANCH   4   9
ATOM      9  C   UNL     1       4.186   3.198  17.566  0.00  0.00    +0.000 C 
ATOM     10  N   UNL     1       4.378   2.934  18.823  0.00  0.00    +0.000 NA
BRANCH  10  11
ATOM     11  N   UNL     1       3.247   2.519  19.450  0.00  0.00    +0.000 N 
ATOM     12  C   UNL     1       2.003   2.523  18.666  0.00  0.00    +0.000 C 
ATOM     13  C   UNL     1       1.127   3.757  18.883  0.00  0.00    +0.000 C 
ATOM     14  C   UNL     1       0.834   3.958  20.364  0.00  0.00    +0.000 C 
ATOM     15  C   UNL     1       2.144   4.045  21.133  0.00  0.00    +0.000 C 
ATOM     16  C   UNL     1       3.018   2.819  20.873  0.00  0.00    +0.000 C 
ENDBRANCH  10  11
ENDBRANCH   4   9
BRANCH   5  17
ATOM     17  O   UNL     1       5.904   5.428  18.410  0.00  0.00    +0.000 OA
ATOM     18  H   UNL     1       5.802   4.676  19.038  0.00  0.00    +0.000 HD
ENDBRANCH   5  17
BRANCH   6  19
ATOM     19  O   UNL     1       7.635   6.565  16.703  0.00  0.00    +0.000 OA
ATOM     20  H   UNL     1       8.440   6.176  17.098  0.00  0.00    +0.000 HD
ENDBRANCH   6  19
TORSDOF 5
ENDMDL
MODEL 4
REMARK VINA RESULT:      -7.1      1.459      1.691
REMARK  Name = 
REMARK  5 active torsions:
REMARK  status: ('A' for Active; 'I' for Inactive)
REMARK    1  A    between atoms: O_1  and  C_2
REMARK    2  A    between atoms: C_5  and  C_6
REMARK    3  A    between atoms: N_7  and  N_8
REMARK    4  A    between atoms: C_14  and  O_15
REMARK    5  A    between atoms: C_16  and  O_17
REMARK                            x       y       z     vdW  Elec       q    Type
REMARK                         _______ _______ _______ _____ _____    ______ ____
ROOT
ATOM      1  C   UNL     1       7.108   5.064  14.775  0.00  0.00    +0.000 A 
ATOM      2  C   UNL     1       6.366   3.944  14.399  0.00  0.00    +0.000 A 
ATOM      3  C   UNL     1       5.465   3.373  15.308  0.00  0.00    +0.000 A 
ATOM      4  C   UNL     1       5.313   3.920  16.589  0.00  0.00    +0.000 A 
ATOM      5  C   UNL     1       6.065   5.033  16.964  0.00  0.00    +0.000 A 
ATOM      6  C   UNL     1       6.959   5.604  16.052  0.00  0.00    +0.000 A 
ENDROOT
BRANCH   1   7
ATOM      7  O   UNL     1       7.976   5.644  13.893  0.00  0.00    +0.000 OA
ATOM      8  H   UNL     1       7.485   6.223  13.290  0.00  0.00    +0.000 HD
ENDBRANCH   1   7
BRANCH   4   9
ATOM      9  C   UNL     1       4.281   3.335  17.469  0.00  0.00    +0.000 C 
ATOM     10  N   UNL     1       3.342   4.050  18.010  0.00  0.00    +0.000 NA
BRANCH  10  11
ATOM     11  N   UNL     1       2.415   3.295  18.654  0.00  0.00    +0.000 N 
ATOM     12  C   UNL     1       1.186   3.971  19.098  0.00  0.00    +0.000 C 
ATOM     13  C   UNL     1       1.197   4.394  20.566  0.00  0.00    +0.000 C 
ATOM     14  C   UNL     1       1.519   3.211  21.468  0.00  0.00    +0.000 C 
ATOM     15  C   UNL     1       2.843   2.593  21.042  0.00  0.00    +0.000 C 
ATOM     16  C   UNL     1       2.822   2.210  19.562  0.00  0.00    +0.000 C 
ENDBRANCH  10  11
ENDBRANCH   4   9
BRANCH   5  17
ATOM     17  O   UNL     1       5.962   5.634  18.193  0.00  0.00    +0.000 OA
ATOM     18  H   UNL     1       5.581   6.530  18.045  0.00  0.00    +0.000 HD
ENDBRANCH   5  17
BRANCH   6  19
ATOM     19  O   UNL     1       7.671   6.712  16.427  0.00  0.00    +0.000 OA
ATOM     20  H   UNL     1       7.176   7.464  16.047  0.00  0.00    +0.000 HD
ENDBRANCH   6  19
TORSDOF 5
ENDMDL
MODEL 5
REMARK VINA RESULT:      -6.9      2.069      2.444
REMARK  Name = 
REMARK  5 active torsions:
REMARK  status: ('A' for Active; 'I' for Inactive)
REMARK    1  A    between atoms: O_1  and  C_2
REMARK    2  A    between atoms: C_5  and  C_6
REMARK    3  A    between atoms: N_7  and  N_8
REMARK    4  A    between atoms: C_14  and  O_15
REMARK    5  A    between atoms: C_16  and  O_17
REMARK                            x       y       z     vdW  Elec       q    Type
REMARK                         _______ _______ _______ _____ _____    ______ ____
ROOT
ATOM      1  C   UNL     1       7.061   7.054  17.265  0.00  0.00    +0.000 A 
ATOM      2  C   UNL     1       5.957   6.686  16.497  0.00  0.00    +0.000 A 
ATOM      3  C   UNL     1       5.116   5.657  16.940  0.00  0.00    +0.000 A 
ATOM      4  C   UNL     1       5.384   4.997  18.147  0.00  0.00    +0.000 A 
ATOM      5  C   UNL     1       6.496   5.361  18.907  0.00  0.00    +0.000 A 
ATOM      6  C   UNL     1       7.329   6.393  18.463  0.00  0.00    +0.000 A 
ENDROOT
BRANCH   1   7
ATOM      7  O   UNL     1       7.878   8.070  16.856  0.00  0.00    +0.000 OA
ATOM      8  H   UNL     1       8.692   8.063  17.382  0.00  0.00    +0.000 HD
ENDBRANCH   1   7
BRANCH   4   9
ATOM      9  C   UNL     1       4.412   3.986  18.610  0.00  0.00    +0.000 C 
ATOM     10  N   UNL     1       4.674   3.162  19.579  0.00  0.00    +0.000 NA
BRANCH  10  11
ATOM     11  N   UNL     1       3.594   2.424  19.945  0.00  0.00    +0.000 N 
ATOM     12  C   UNL     1       2.692   1.974  18.874  0.00  0.00    +0.000 C 
ATOM     13  C   UNL     1       1.456   2.853  18.683  0.00  0.00    +0.000 C 
ATOM     14  C   UNL     1       0.700   3.017  19.994  0.00  0.00    +0.000 C 
ATOM     15  C   UNL     1       1.639   3.574  21.054  0.00  0.00    +0.000 C 
ATOM     16  C   UNL     1       2.883   2.700  21.204  0.00  0.00    +0.000 C 
ENDBRANCH  10  11
ENDBRANCH   4   9
BRANCH   5  17
ATOM     17  O   UNL     1       6.817   4.773  20.104  0.00  0.00    +0.000 OA
ATOM     18  H   UNL     1       6.281   3.948  20.172  0.00  0.00    +0.000 HD
ENDBRANCH   5  17
BRANCH   6  19
ATOM     19  O   UNL     1       8.401   6.756  19.233  0.00  0.00    +0.000 OA
ATOM     20  H   UNL     1       8.023   6.933  20.117  0.00  0.00    +0.000 HD
ENDBRANCH   6  19
TORSDOF 5
ENDMDL
MODEL 6
REMARK VINA RESULT:      -6.8      2.998      6.124
REMARK  Name = 
REMARK  5 active torsions:
REMARK  status: ('A' for Active; 'I' for Inactive)
REMARK    1  A    between atoms: O_1  and  C_2
REMARK    2  A    between atoms: C_5  and  C_6
REMARK    3  A    between atoms: N_7  and  N_8
REMARK    4  A    between atoms: C_14  and  O_15
REMARK    5  A    between atoms: C_16  and  O_17
REMARK                            x       y       z     vdW  Elec       q    Type
REMARK                         _______ _______ _______ _____ _____    ______ ____
ROOT
ATOM      1  C   UNL     1       1.334   3.467  19.847  0.00  0.00    +0.000 A 
ATOM      2  C   UNL     1       1.907   4.663  20.279  0.00  0.00    +0.000 A 
ATOM      3  C   UNL     1       3.220   4.976  19.904  0.00  0.00    +0.000 A 
ATOM      4  C   UNL     1       3.957   4.092  19.105  0.00  0.00    +0.000 A 
ATOM      5  C   UNL     1       3.382   2.892  18.685  0.00  0.00    +0.000 A 
ATOM      6  C   UNL     1       2.069   2.586  19.056  0.00  0.00    +0.000 A 
ENDROOT
BRANCH   1   7
ATOM      7  O   UNL     1       0.047   3.158  20.188  0.00  0.00    +0.000 OA
ATOM      8  H   UNL     1       0.023   2.829  21.099  0.00  0.00    +0.000 HD
ENDBRANCH   1   7
BRANCH   4   9
ATOM      9  C   UNL     1       5.300   4.518  18.664  0.00  0.00    +0.000 C 
ATOM     10  N   UNL     1       5.723   4.336  17.450  0.00  0.00    +0.000 NA
BRANCH  10  11
ATOM     11  N   UNL     1       6.919   4.936  17.217  0.00  0.00    +0.000 N 
ATOM     12  C   UNL     1       7.934   4.849  18.278  0.00  0.00    +0.000 C 
ATOM     13  C   UNL     1       8.007   6.081  19.180  0.00  0.00    +0.000 C 
ATOM     14  C   UNL     1       8.193   7.346  18.355  0.00  0.00    +0.000 C 
ATOM     15  C   UNL     1       7.073   7.454  17.330  0.00  0.00    +0.000 C 
ATOM     16  C   UNL     1       6.997   6.198  16.463  0.00  0.00    +0.000 C 
ENDBRANCH  10  11
ENDBRANCH   4   9
BRANCH   5  17
ATOM     17  O   UNL     1       4.033   1.982  17.890  0.00  0.00    +0.000 OA
ATOM     18  H   UNL     1       4.987   2.016  18.134  0.00  0.00    +0.000 HD
ENDBRANCH   5  17
BRANCH   6  19
ATOM     19  O   UNL     1       1.511   1.416  18.614  0.00  0.00    +0.000 OA
ATOM     20  H   UNL     1       1.890   1.283  17.723  0.00  0.00    +0.000 HD
ENDBRANCH   6  19
TORSDOF 5
ENDMDL
MODEL 7
REMARK VINA RESULT:      -6.7      2.193      2.600
REMARK  Name = 
REMARK  5 active torsions:
REMARK  status: ('A' for Active; 'I' for Inactive)
REMARK    1  A    between atoms: O_1  and  C_2
REMARK    2  A    between atoms: C_5  and  C_6
REMARK    3  A    between atoms: N_7  and  N_8
REMARK    4  A    between atoms: C_14  and  O_15
REMARK    5  A    between atoms: C_16  and  O_17
REMARK                            x       y       z     vdW  Elec       q    Type
REMARK                         _______ _______ _______ _____ _____    ______ ____
ROOT
ATOM      1  C   UNL     1       7.793   7.133  18.507  0.00  0.00    +0.000 A 
ATOM      2  C   UNL     1       7.001   7.539  17.433  0.00  0.00    +0.000 A 
ATOM      3  C   UNL     1       5.833   6.828  17.127  0.00  0.00    +0.000 A 
ATOM      4  C   UNL     1       5.465   5.712  17.890  0.00  0.00    +0.000 A 
ATOM      5  C   UNL     1       6.267   5.304  18.956  0.00  0.00    +0.000 A 
ATOM      6  C   UNL     1       7.428   6.020  19.263  0.00  0.00    +0.000 A 
ENDROOT
BRANCH   1   7
ATOM      7  O   UNL     1       8.924   7.829  18.831  0.00  0.00    +0.000 OA
ATOM      8  H   UNL     1       9.561   7.770  18.102  0.00  0.00    +0.000 HD
ENDBRANCH   1   7
BRANCH   4   9
ATOM      9  C   UNL     1       4.177   5.060  17.579  0.00  0.00    +0.000 C 
ATOM     10  N   UNL     1       4.061   3.772  17.462  0.00  0.00    +0.000 NA
BRANCH  10  11
ATOM     11  N   UNL     1       2.769   3.373  17.327  0.00  0.00    +0.000 N 
ATOM     12  C   UNL     1       1.724   4.346  17.681  0.00  0.00    +0.000 C 
ATOM     13  C   UNL     1       1.154   4.173  19.088  0.00  0.00    +0.000 C 
ATOM     14  C   UNL     1       0.662   2.748  19.301  0.00  0.00    +0.000 C 
ATOM     15  C   UNL     1       1.795   1.772  19.020  0.00  0.00    +0.000 C 
ATOM     16  C   UNL     1       2.373   1.986  17.621  0.00  0.00    +0.000 C 
ENDBRANCH  10  11
ENDBRANCH   4   9
BRANCH   5  17
ATOM     17  O   UNL     1       5.966   4.232  19.758  0.00  0.00    +0.000 OA
ATOM     18  H   UNL     1       5.054   3.943  19.523  0.00  0.00    +0.000 HD
ENDBRANCH   5  17
BRANCH   6  19
ATOM     19  O   UNL     1       8.190   5.622  20.328  0.00  0.00    +0.000 OA
ATOM     20  H   UNL     1       9.081   5.476  19.955  0.00  0.00    +0.000 HD
ENDBRANCH   6  19
TORSDOF 5
ENDMDL
MODEL 8
REMARK VINA RESULT:      -6.6      1.968      2.196
REMARK  Name = 
REMARK  5 active torsions:
REMARK  status: ('A' for Active; 'I' for Inactive)
REMARK    1  A    between atoms: O_1  and  C_2
REMARK    2  A    between atoms: C_5  and  C_6
REMARK    3  A    between atoms: N_7  and  N_8
REMARK    4  A    between atoms: C_14  and  O_15
REMARK    5  A    between atoms: C_16  and  O_17
REMARK                            x       y       z     vdW  Elec       q    Type
REMARK                         _______ _______ _______ _____ _____    ______ ____
ROOT
ATOM      1  C   UNL     1       7.064   7.284  17.372  0.00  0.00    +0.000 A 
ATOM      2  C   UNL     1       5.874   7.009  16.699  0.00  0.00    +0.000 A 
ATOM      3  C   UNL     1       5.009   6.025  17.195  0.00  0.00    +0.000 A 
ATOM      4  C   UNL     1       5.339   5.316  18.359  0.00  0.00    +0.000 A 
ATOM      5  C   UNL     1       6.536   5.588  19.022  0.00  0.00    +0.000 A 
ATOM      6  C   UNL     1       7.393   6.575  18.526  0.00  0.00    +0.000 A 
ENDROOT
BRANCH   1   7
ATOM      7  O   UNL     1       7.908   8.256  16.911  0.00  0.00    +0.000 OA
ATOM      8  H   UNL     1       7.390   8.982  16.532  0.00  0.00    +0.000 HD
ENDBRANCH   1   7
BRANCH   4   9
ATOM      9  C   UNL     1       4.346   4.359  18.886  0.00  0.00    +0.000 C 
ATOM     10  N   UNL     1       3.481   3.764  18.121  0.00  0.00    +0.000 NA
BRANCH  10  11
ATOM     11  N   UNL     1       2.768   2.814  18.780  0.00  0.00    +0.000 N 
ATOM     12  C   UNL     1       1.308   2.983  18.832  0.00  0.00    +0.000 C 
ATOM     13  C   UNL     1       0.794   3.616  20.125  0.00  0.00    +0.000 C 
ATOM     14  C   UNL     1       1.294   2.846  21.340  0.00  0.00    +0.000 C 
ATOM     15  C   UNL     1       2.813   2.771  21.304  0.00  0.00    +0.000 C 
ATOM     16  C   UNL     1       3.305   2.168  19.989  0.00  0.00    +0.000 C 
ENDBRANCH  10  11
ENDBRANCH   4   9
BRANCH   5  17
ATOM     17  O   UNL     1       6.922   4.948  20.173  0.00  0.00    +0.000 OA
ATOM     18  H   UNL     1       6.614   4.014  20.100  0.00  0.00    +0.000 HD
ENDBRANCH   5  17
BRANCH   6  19
ATOM     19  O   UNL     1       8.551   6.848  19.204  0.00  0.00    +0.000 OA
ATOM     20  H   UNL     1       8.466   7.783  19.474  0.00  0.00    +0.000 HD
ENDBRANCH   6  19
TORSDOF 5
ENDMDL
MODEL 9
REMARK VINA RESULT:      -6.6      3.078      6.129
REMARK  Name = 
REMARK  5 active torsions:
REMARK  status: ('A' for Active; 'I' for Inactive)
REMARK    1  A    between atoms: O_1  and  C_2
REMARK    2  A    between atoms: C_5  and  C_6
REMARK    3  A    between atoms: N_7  and  N_8
REMARK    4  A    between atoms: C_14  and  O_15
REMARK    5  A    between atoms: C_16  and  O_17
REMARK                            x       y       z     vdW  Elec       q    Type
REMARK                         _______ _______ _______ _____ _____    ______ ____
ROOT
ATOM      1  C   UNL     1       1.231   2.903  19.104  0.00  0.00    +0.000 A 
ATOM      2  C   UNL     1       1.999   2.215  18.165  0.00  0.00    +0.000 A 
ATOM      3  C   UNL     1       3.280   2.680  17.843  0.00  0.00    +0.000 A 
ATOM      4  C   UNL     1       3.788   3.833  18.457  0.00  0.00    +0.000 A 
ATOM      5  C   UNL     1       3.012   4.524  19.388  0.00  0.00    +0.000 A 
ATOM      6  C   UNL     1       1.735   4.053  19.711  0.00  0.00    +0.000 A 
ENDROOT
BRANCH   1   7
ATOM      7  O   UNL     1      -0.013   2.450  19.444  0.00  0.00    +0.000 OA
ATOM      8  H   UNL     1       0.040   1.514  19.691  0.00  0.00    +0.000 HD
ENDBRANCH   1   7
BRANCH   4   9
ATOM      9  C   UNL     1       5.179   4.222  18.148  0.00  0.00    +0.000 C 
ATOM     10  N   UNL     1       5.522   4.719  16.999  0.00  0.00    +0.000 NA
BRANCH  10  11
ATOM     11  N   UNL     1       6.811   5.148  16.979  0.00  0.00    +0.000 N 
ATOM     12  C   UNL     1       7.665   4.767  18.113  0.00  0.00    +0.000 C 
ATOM     13  C   UNL     1       7.801   5.845  19.188  0.00  0.00    +0.000 C 
ATOM     14  C   UNL     1       8.265   7.161  18.579  0.00  0.00    +0.000 C 
ATOM     15  C   UNL     1       7.306   7.575  17.473  0.00  0.00    +0.000 C 
ATOM     16  C   UNL     1       7.159   6.469  16.428  0.00  0.00    +0.000 C 
ENDBRANCH  10  11
ENDBRANCH   4   9
BRANCH   5  17
ATOM     17  O   UNL     1       3.444   5.651  20.041  0.00  0.00    +0.000 OA
ATOM     18  H   UNL     1       3.373   5.468  21.007  0.00  0.00    +0.000 HD
ENDBRANCH   5  17
BRANCH   6  19
ATOM     19  O   UNL     1       0.997   4.727  20.646  0.00  0.00    +0.000 OA
ATOM     20  H   UNL     1       0.823   4.068  21.346  0.00  0.00    +0.000 HD
ENDBRANCH   6  19
TORSDOF 5
ENDMDL
