MODEL 1
REMARK VINA RESULT:      -8.7      0.000      0.000
REMARK  Name = 
REMARK  6 active torsions:
REMARK  status: ('A' for Active; 'I' for Inactive)
REMARK    1  A    between atoms: C_2  and  C_4
REMARK    2  A    between atoms: C_9  and  O_10
REMARK    3  A    between atoms: O_10  and  C_11
REMARK    4  A    between atoms: C_11  and  C_12
REMARK    5  A    between atoms: N_14  and  C_15
REMARK    6  A    between atoms: C_15  and  C_16
REMARK                            x       y       z     vdW  Elec       q    Type
REMARK                         _______ _______ _______ _____ _____    ______ ____
ROOT
ATOM      1  C   UNL     1       8.371   9.368  17.463  0.00  0.00    +0.000 C 
ENDROOT
BRANCH   1   2
ATOM      2  C   UNL     1       7.856   7.979  17.727  0.00  0.00    +0.000 A 
ATOM      3  N   UNL     1       7.015   7.296  17.013  0.00  0.00    +0.000 NA
ATOM      4  N   UNL     1       6.987   6.088  17.668  0.00  0.00    +0.000 N 
ATOM      5  C   UNL     1       7.839   6.092  18.743  0.00  0.00    +0.000 A 
ATOM      6  O   UNL     1       8.120   5.176  19.497  0.00  0.00    +0.000 OA
ATOM      7  O   UNL     1       8.384   7.340  18.796  0.00  0.00    +0.000 OA
BRANCH   4   8
ATOM      8  C   UNL     1       6.280   4.926  17.173  0.00  0.00    +0.000 C 
BRANCH   8   9
ATOM      9  C   UNL     1       4.973   4.685  17.891  0.00  0.00    +0.000 A 
ATOM     10  C   UNL     1       4.629   5.456  19.011  0.00  0.00    +0.000 A 
ATOM     11  C   UNL     1       3.440   5.215  19.702  0.00  0.00    +0.000 A 
ATOM     12  C   UNL     1       2.588   4.198  19.279  0.00  0.00    +0.000 A 
ATOM     13 BR   UNL     1       1.003   3.839  20.247  0.00  0.00    +0.000 Br
ATOM     14  C   UNL     1       2.904   3.433  18.159  0.00  0.00    +0.000 A 
ATOM     15  C   UNL     1       4.094   3.675  17.467  0.00  0.00    +0.000 A 
ENDBRANCH   8   9
ENDBRANCH   4   8
ENDBRANCH   1   2
BRANCH   1  16
ATOM     16  O   UNL     1       8.216  10.220  18.589  0.00  0.00    +0.000 OA
BRANCH  16  22
ATOM     17  C   UNL     1      10.323  13.206  18.300  0.00  0.00    +0.000 A 
ATOM     18  C   UNL     1      11.276  12.970  19.293  0.00  0.00    +0.000 A 
ATOM     19  F   UNL     1      12.268  13.835  19.541  0.00  0.00    +0.000 F 
ATOM     20  C   UNL     1      11.228  11.812  20.071  0.00  0.00    +0.000 A 
ATOM     21  C   UNL     1      10.222  10.863  19.869  0.00  0.00    +0.000 A 
ATOM     22  C   UNL     1       9.257  11.072  18.882  0.00  0.00    +0.000 A 
ATOM     23  C   UNL     1       9.321  12.246  18.109  0.00  0.00    +0.000 A 
ATOM     24  F   UNL     1       8.381  12.429  17.166  0.00  0.00    +0.000 F 
BRANCH  17  26
ATOM     25  N   UNL     1      11.101  14.420  16.325  0.00  0.00    +0.000 N 
ATOM     26  C   UNL     1      10.402  14.455  17.498  0.00  0.00    +0.000 C 
ATOM     27  O   UNL     1       9.866  15.499  17.844  0.00  0.00    +0.000 OA
ATOM     28  H   UNL     1      11.146  15.269  15.775  0.00  0.00    +0.000 HD
ATOM     29  H   UNL     1      11.567  13.592  15.973  0.00  0.00    +0.000 HD
ENDBRANCH  17  26
ENDBRANCH  16  22
ENDBRANCH   1  16
TORSDOF 6
ENDMDL
MODEL 2
REMARK VINA RESULT:      -8.5      1.430      1.627
REMARK  Name = 
REMARK  6 active torsions:
REMARK  status: ('A' for Active; 'I' for Inactive)
REMARK    1  A    between atoms: C_2  and  C_4
REMARK    2  A    between atoms: C_9  and  O_10
REMARK    3  A    between atoms: O_10  and  C_11
REMARK    4  A    between atoms: C_11  and  C_12
REMARK    5  A    between atoms: N_14  and  C_15
REMARK    6  A    between atoms: C_15  and  C_16
REMARK                            x       y       z     vdW  Elec       q    Type
REMARK                         _______ _______ _______ _____ _____    ______ ____
ROOT
ATOM      1  C   UNL     1       8.418   8.275  18.445  0.00  0.00    +0.000 C 
ENDROOT
BRANCH   1   2
ATOM      2  C   UNL     1       7.600   7.277  17.672  0.00  0.00    +0.000 A 
ATOM      3  N   UNL     1       7.559   5.990  17.832  0.00  0.00    +0.000 NA
ATOM      4  N   UNL     1       6.592   5.612  16.932  0.00  0.00    +0.000 N 
ATOM      5  C   UNL     1       6.072   6.703  16.282  0.00  0.00    +0.000 A 
ATOM      6  O   UNL     1       5.156   6.748  15.479  0.00  0.00    +0.000 OA
ATOM      7  O   UNL     1       6.754   7.788  16.747  0.00  0.00    +0.000 OA
BRANCH   4   8
ATOM      8  C   UNL     1       6.082   4.261  16.825  0.00  0.00    +0.000 C 
BRANCH   8   9
ATOM      9  C   UNL     1       4.825   4.043  17.633  0.00  0.00    +0.000 A 
ATOM     10  C   UNL     1       4.900   3.868  19.023  0.00  0.00    +0.000 A 
ATOM     11  C   UNL     1       3.746   3.629  19.772  0.00  0.00    +0.000 A 
ATOM     12  C   UNL     1       2.509   3.558  19.135  0.00  0.00    +0.000 A 
ATOM     13 BR   UNL     1       0.954   3.183  20.144  0.00  0.00    +0.000 Br
ATOM     14  C   UNL     1       2.413   3.746  17.758  0.00  0.00    +0.000 A 
ATOM     15  C   UNL     1       3.568   3.986  17.009  0.00  0.00    +0.000 A 
ENDBRANCH   8   9
ENDBRANCH   4   8
ENDBRANCH   1   2
BRANCH   1  16
ATOM     16  O   UNL     1       8.184   9.608  18.017  0.00  0.00    +0.000 OA
BRANCH  16  22
ATOM     17  C   UNL     1       9.450  12.998  18.599  0.00  0.00    +0.000 A 
ATOM     18  C   UNL     1      10.260  12.803  19.720  0.00  0.00    +0.000 A 
ATOM     19  F   UNL     1      10.937  13.810  20.288  0.00  0.00    +0.000 F 
ATOM     20  C   UNL     1      10.394  11.539  20.295  0.00  0.00    +0.000 A 
ATOM     21  C   UNL     1       9.718  10.440  19.757  0.00  0.00    +0.000 A 
ATOM     22  C   UNL     1       8.903  10.605  18.636  0.00  0.00    +0.000 A 
ATOM     23  C   UNL     1       8.779  11.887  18.071  0.00  0.00    +0.000 A 
ATOM     24  F   UNL     1       7.988  12.026  16.993  0.00  0.00    +0.000 F 
BRANCH  17  26
ATOM     25  N   UNL     1      10.241  14.745  17.081  0.00  0.00    +0.000 N 
ATOM     26  C   UNL     1       9.326  14.362  18.020  0.00  0.00    +0.000 C 
ATOM     27  O   UNL     1       8.441  15.142  18.347  0.00  0.00    +0.000 OA
ATOM     28  H   UNL     1      10.149  15.671  16.681  0.00  0.00    +0.000 HD
ATOM     29  H   UNL     1      10.997  14.153  16.759  0.00  0.00    +0.000 HD
ENDBRANCH  17  26
ENDBRANCH  16  22
ENDBRANCH   1  16
TORSDOF 6
ENDMDL
MODEL 3
REMARK VINA RESULT:      -8.3      1.281      1.401
REMARK  Name = 
REMARK  6 active torsions:
REMARK  status: ('A' for Active; 'I' for Inactive)
REMARK    1  A    between atoms: C_2  and  C_4
REMARK    2  A    between atoms: C_9  and  O_10
REMARK    3  A    between atoms: O_10  and  C_11
REMARK    4  A    between atoms: C_11  and  C_12
REMARK    5  A    between atoms: N_14  and  C_15
REMARK    6  A    between atoms: C_15  and  C_16
REMARK                            x       y       z     vdW  Elec       q    Type
REMARK                         _______ _______ _______ _____ _____    ______ ____
ROOT
ATOM      1  C   UNL     1       8.660   9.390  18.820  0.00  0.00    +0.000 C 
ENDROOT
BRANCH   1   2
ATOM      2  C   UNL     1       8.092   8.144  18.196  0.00  0.00    +0.000 A 
ATOM      3  N   UNL     1       8.197   6.923  18.625  0.00  0.00    +0.000 NA
ATOM      4  N   UNL     1       7.418   6.230  17.729  0.00  0.00    +0.000 N 
ATOM      5  C   UNL     1       6.856   7.076  16.807  0.00  0.00    +0.000 A 
ATOM      6  O   UNL     1       6.060   6.819  15.921  0.00  0.00    +0.000 OA
ATOM      7  O   UNL     1       7.321   8.324  17.098  0.00  0.00    +0.000 OA
BRANCH   4   8
ATOM      8  C   UNL     1       7.108   4.822  17.861  0.00  0.00    +0.000 C 
BRANCH   8   9
ATOM      9  C   UNL     1       5.655   4.570  18.190  0.00  0.00    +0.000 A 
ATOM     10  C   UNL     1       5.105   5.061  19.384  0.00  0.00    +0.000 A 
ATOM     11  C   UNL     1       3.773   4.800  19.711  0.00  0.00    +0.000 A 
ATOM     12  C   UNL     1       2.983   4.044  18.849  0.00  0.00    +0.000 A 
ATOM     13 BR   UNL     1       1.194   3.649  19.319  0.00  0.00    +0.000 Br
ATOM     14  C   UNL     1       3.506   3.564  17.652  0.00  0.00    +0.000 A 
ATOM     15  C   UNL     1       4.840   3.824  17.323  0.00  0.00    +0.000 A 
ENDBRANCH   8   9
ENDBRANCH   4   8
ENDBRANCH   1   2
BRANCH   1  16
ATOM     16  O   UNL     1       9.164  10.294  17.848  0.00  0.00    +0.000 OA
BRANCH  16  22
ATOM     17  C   UNL     1      10.207  13.783  18.263  0.00  0.00    +0.000 A 
ATOM     18  C   UNL     1      11.320  13.643  19.095  0.00  0.00    +0.000 A 
ATOM     19  F   UNL     1      12.030  14.700  19.512  0.00  0.00    +0.000 F 
ATOM     20  C   UNL     1      11.736  12.383  19.528  0.00  0.00    +0.000 A 
ATOM     21  C   UNL     1      11.045  11.234  19.134  0.00  0.00    +0.000 A 
ATOM     22  C   UNL     1       9.930  11.344  18.301  0.00  0.00    +0.000 A 
ATOM     23  C   UNL     1       9.525  12.622  17.876  0.00  0.00    +0.000 A 
ATOM     24  F   UNL     1       8.448  12.707  17.076  0.00  0.00    +0.000 F 
BRANCH  17  26
ATOM     25  N   UNL     1      10.331  15.642  16.678  0.00  0.00    +0.000 N 
ATOM     26  C   UNL     1       9.791  15.143  17.829  0.00  0.00    +0.000 C 
ATOM     27  O   UNL     1       8.987  15.820  18.456  0.00  0.00    +0.000 OA
ATOM     28  H   UNL     1      10.038  16.564  16.379  0.00  0.00    +0.000 HD
ATOM     29  H   UNL     1      10.997  15.138  16.105  0.00  0.00    +0.000 HD
ENDBRANCH  17  26
ENDBRANCH  16  22
ENDBRANCH   1  16
TORSDOF 6
ENDMDL
MODEL 4
REMARK VINA RESULT:      -8.3      1.741      1.925
REMARK  Name = 
REMARK  6 active torsions:
REMARK  status: ('A' for Active; 'I' for Inactive)
REMARK    1  A    between atoms: C_2  and  C_4
REMARK    2  A    between atoms: C_9  and  O_10
REMARK    3  A    between atoms: O_10  and  C_11
REMARK    4  A    between atoms: C_11  and  C_12
REMARK    5  A    between atoms: N_14  and  C_15
REMARK    6  A    between atoms: C_15  and  C_16
REMARK                            x       y       z     vdW  Elec       q    Type
REMARK                         _______ _______ _______ _____ _____    ______ ____
ROOT
ATOM      1  C   UNL     1       8.301   9.509  17.729  0.00  0.00    +0.000 C 
ENDROOT
BRANCH   1   2
ATOM      2  C   UNL     1       7.799   8.099  17.880  0.00  0.00    +0.000 A 
ATOM      3  N   UNL     1       6.915   7.489  17.150  0.00  0.00    +0.000 NA
ATOM      4  N   UNL     1       6.925   6.220  17.678  0.00  0.00    +0.000 N 
ATOM      5  C   UNL     1       7.840   6.117  18.696  0.00  0.00    +0.000 A 
ATOM      6  O   UNL     1       8.163   5.130  19.333  0.00  0.00    +0.000 OA
ATOM      7  O   UNL     1       8.390   7.355  18.844  0.00  0.00    +0.000 OA
BRANCH   4   8
ATOM      8  C   UNL     1       6.186   5.112  17.110  0.00  0.00    +0.000 C 
BRANCH   8   9
ATOM      9  C   UNL     1       4.921   4.798  17.873  0.00  0.00    +0.000 A 
ATOM     10  C   UNL     1       4.923   3.813  18.871  0.00  0.00    +0.000 A 
ATOM     11  C   UNL     1       3.748   3.492  19.555  0.00  0.00    +0.000 A 
ATOM     12  C   UNL     1       2.562   4.152  19.241  0.00  0.00    +0.000 A 
ATOM     13 BR   UNL     1       0.962   3.679  20.131  0.00  0.00    +0.000 Br
ATOM     14  C   UNL     1       2.545   5.144  18.265  0.00  0.00    +0.000 A 
ATOM     15  C   UNL     1       3.720   5.466  17.581  0.00  0.00    +0.000 A 
ENDBRANCH   8   9
ENDBRANCH   4   8
ENDBRANCH   1   2
BRANCH   1  16
ATOM     16  O   UNL     1       9.116   9.908  18.821  0.00  0.00    +0.000 OA
BRANCH  16  22
ATOM     17  C   UNL     1      10.014  13.338  19.752  0.00  0.00    +0.000 A 
ATOM     18  C   UNL     1      10.923  13.669  18.746  0.00  0.00    +0.000 A 
ATOM     19  F   UNL     1      11.519  14.868  18.697  0.00  0.00    +0.000 F 
ATOM     20  C   UNL     1      11.249  12.753  17.744  0.00  0.00    +0.000 A 
ATOM     21  C   UNL     1      10.667  11.482  17.729  0.00  0.00    +0.000 A 
ATOM     22  C   UNL     1       9.752  11.124  18.722  0.00  0.00    +0.000 A 
ATOM     23  C   UNL     1       9.438  12.061  19.724  0.00  0.00    +0.000 A 
ATOM     24  F   UNL     1       8.557  11.696  20.672  0.00  0.00    +0.000 F 
BRANCH  17  26
ATOM     25  N   UNL     1       8.655  15.192  20.588  0.00  0.00    +0.000 N 
ATOM     26  C   UNL     1       9.699  14.338  20.806  0.00  0.00    +0.000 C 
ATOM     27  O   UNL     1      10.331  14.419  21.851  0.00  0.00    +0.000 OA
ATOM     28  H   UNL     1       8.437  15.866  21.312  0.00  0.00    +0.000 HD
ATOM     29  H   UNL     1       8.086  15.181  19.751  0.00  0.00    +0.000 HD
ENDBRANCH  17  26
ENDBRANCH  16  22
ENDBRANCH   1  16
TORSDOF 6
ENDMDL
MODEL 5
REMARK VINA RESULT:      -8.2      1.512      1.600
REMARK  Name = 
REMARK  6 active torsions:
REMARK  status: ('A' for Active; 'I' for Inactive)
REMARK    1  A    between atoms: C_2  and  C_4
REMARK    2  A    between atoms: C_9  and  O_10
REMARK    3  A    between atoms: O_10  and  C_11
REMARK    4  A    between atoms: C_11  and  C_12
REMARK    5  A    between atoms: N_14  and  C_15
REMARK    6  A    between atoms: C_15  and  C_16
REMARK                            x       y       z     vdW  Elec       q    Type
REMARK                         _______ _______ _______ _____ _____    ______ ____
ROOT
ATOM      1  C   UNL     1       8.928   9.532  18.757  0.00  0.00    +0.000 C 
ENDROOT
BRANCH   1   2
ATOM      2  C   UNL     1       8.175   8.315  18.292  0.00  0.00    +0.000 A 
ATOM      3  N   UNL     1       7.370   8.220  17.278  0.00  0.00    +0.000 NA
ATOM      4  N   UNL     1       7.055   6.882  17.278  0.00  0.00    +0.000 N 
ATOM      5  C   UNL     1       7.710   6.223  18.288  0.00  0.00    +0.000 A 
ATOM      6  O   UNL     1       7.723   5.030  18.536  0.00  0.00    +0.000 OA
ATOM      7  O   UNL     1       8.419   7.168  18.967  0.00  0.00    +0.000 OA
BRANCH   4   8
ATOM      8  C   UNL     1       6.273   6.244  16.240  0.00  0.00    +0.000 C 
BRANCH   8   9
ATOM      9  C   UNL     1       5.033   5.566  16.773  0.00  0.00    +0.000 A 
ATOM     10  C   UNL     1       4.090   6.296  17.511  0.00  0.00    +0.000 A 
ATOM     11  C   UNL     1       2.960   5.668  18.039  0.00  0.00    +0.000 A 
ATOM     12  C   UNL     1       2.768   4.303  17.834  0.00  0.00    +0.000 A 
ATOM     13 BR   UNL     1       1.264   3.444  18.593  0.00  0.00    +0.000 Br
ATOM     14  C   UNL     1       3.685   3.566  17.090  0.00  0.00    +0.000 A 
ATOM     15  C   UNL     1       4.815   4.195  16.562  0.00  0.00    +0.000 A 
ENDBRANCH   8   9
ENDBRANCH   4   8
ENDBRANCH   1   2
BRANCH   1  16
ATOM     16  O   UNL     1       8.633  10.678  17.972  0.00  0.00    +0.000 OA
BRANCH  16  22
ATOM     17  C   UNL     1       9.941  14.098  18.118  0.00  0.00    +0.000 A 
ATOM     18  C   UNL     1      11.306  13.882  17.913  0.00  0.00    +0.000 A 
ATOM     19  F   UNL     1      12.187  14.892  17.889  0.00  0.00    +0.000 F 
ATOM     20  C   UNL     1      11.806  12.594  17.724  0.00  0.00    +0.000 A 
ATOM     21  C   UNL     1      10.948  11.491  17.735  0.00  0.00    +0.000 A 
ATOM     22  C   UNL     1       9.578  11.677  17.935  0.00  0.00    +0.000 A 
ATOM     23  C   UNL     1       9.093  12.984  18.125  0.00  0.00    +0.000 A 
ATOM     24  F   UNL     1       7.772  13.142  18.319  0.00  0.00    +0.000 F 
BRANCH  17  26
ATOM     25  N   UNL     1       9.664  16.070  19.539  0.00  0.00    +0.000 N 
ATOM     26  C   UNL     1       9.447  15.486  18.323  0.00  0.00    +0.000 C 
ATOM     27  O   UNL     1       8.865  16.117  17.451  0.00  0.00    +0.000 OA
ATOM     28  H   UNL     1       9.335  17.018  19.673  0.00  0.00    +0.000 HD
ATOM     29  H   UNL     1      10.140  15.611  20.306  0.00  0.00    +0.000 HD
ENDBRANCH  17  26
ENDBRANCH  16  22
ENDBRANCH   1  16
TORSDOF 6
ENDMDL
MODEL 6
REMARK VINA RESULT:      -8.2      1.311      1.567
REMARK  Name = 
REMARK  6 active torsions:
REMARK  status: ('A' for Active; 'I' for Inactive)
REMARK    1  A    between atoms: C_2  and  C_4
REMARK    2  A    between atoms: C_9  and  O_10
REMARK    3  A    between atoms: O_10  and  C_11
REMARK    4  A    between atoms: C_11  and  C_12
REMARK    5  A    between atoms: N_14  and  C_15
REMARK    6  A    between atoms: C_15  and  C_16
REMARK                            x       y       z     vdW  Elec       q    Type
REMARK                         _______ _______ _______ _____ _____    ______ ____
ROOT
ATOM      1  C   UNL     1       8.926   8.854  18.656  0.00  0.00    +0.000 C 
ENDROOT
BRANCH   1   2
ATOM      2  C   UNL     1       7.994   7.760  18.210  0.00  0.00    +0.000 A 
ATOM      3  N   UNL     1       7.054   7.834  17.318  0.00  0.00    +0.000 NA
ATOM      4  N   UNL     1       6.605   6.536  17.258  0.00  0.00    +0.000 N 
ATOM      5  C   UNL     1       7.317   5.729  18.108  0.00  0.00    +0.000 A 
ATOM      6  O   UNL     1       7.240   4.522  18.257  0.00  0.00    +0.000 OA
ATOM      7  O   UNL     1       8.206   6.538  18.750  0.00  0.00    +0.000 OA
BRANCH   4   8
ATOM      8  C   UNL     1       5.627   6.072  16.296  0.00  0.00    +0.000 C 
BRANCH   8   9
ATOM      9  C   UNL     1       4.492   5.308  16.936  0.00  0.00    +0.000 A 
ATOM     10  C   UNL     1       4.350   3.931  16.708  0.00  0.00    +0.000 A 
ATOM     11  C   UNL     1       3.282   3.225  17.267  0.00  0.00    +0.000 A 
ATOM     12  C   UNL     1       2.346   3.894  18.053  0.00  0.00    +0.000 A 
ATOM     13 BR   UNL     1       0.873   2.947  18.766  0.00  0.00    +0.000 Br
ATOM     14  C   UNL     1       2.481   5.257  18.304  0.00  0.00    +0.000 A 
ATOM     15  C   UNL     1       3.550   5.963  17.746  0.00  0.00    +0.000 A 
ENDBRANCH   8   9
ENDBRANCH   4   8
ENDBRANCH   1   2
BRANCH   1  16
ATOM     16  O   UNL     1       8.521  10.130  18.182  0.00  0.00    +0.000 OA
BRANCH  16  22
ATOM     17  C   UNL     1       9.444  13.661  18.514  0.00  0.00    +0.000 A 
ATOM     18  C   UNL     1      10.344  13.614  19.580  0.00  0.00    +0.000 A 
ATOM     19  F   UNL     1      10.944  14.716  20.050  0.00  0.00    +0.000 F 
ATOM     20  C   UNL     1      10.655  12.404  20.202  0.00  0.00    +0.000 A 
ATOM     21  C   UNL     1      10.069  11.212  19.766  0.00  0.00    +0.000 A 
ATOM     22  C   UNL     1       9.167  11.229  18.700  0.00  0.00    +0.000 A 
ATOM     23  C   UNL     1       8.865  12.459  18.088  0.00  0.00    +0.000 A 
ATOM     24  F   UNL     1       7.993  12.455  17.065  0.00  0.00    +0.000 F 
BRANCH  17  26
ATOM     25  N   UNL     1       7.853  15.439  17.974  0.00  0.00    +0.000 N 
ATOM     26  C   UNL     1       9.133  14.971  17.883  0.00  0.00    +0.000 C 
ATOM     27  O   UNL     1       9.974  15.639  17.295  0.00  0.00    +0.000 OA
ATOM     28  H   UNL     1       7.646  16.335  17.552  0.00  0.00    +0.000 HD
ATOM     29  H   UNL     1       7.106  14.944  18.447  0.00  0.00    +0.000 HD
ENDBRANCH  17  26
ENDBRANCH  16  22
ENDBRANCH   1  16
TORSDOF 6
ENDMDL
MODEL 7
REMARK VINA RESULT:      -8.1      7.373     10.478
REMARK  Name = 
REMARK  6 active torsions:
REMARK  status: ('A' for Active; 'I' for Inactive)
REMARK    1  A    between atoms: C_2  and  C_4
REMARK    2  A    between atoms: C_9  and  O_10
REMARK    3  A    between atoms: O_10  and  C_11
REMARK    4  A    between atoms: C_11  and  C_12
REMARK    5  A    between atoms: N_14  and  C_15
REMARK    6  A    between atoms: C_15  and  C_16
REMARK                            x       y       z     vdW  Elec       q    Type
REMARK                         _______ _______ _______ _____ _____    ______ ____
ROOT
ATOM      1  C   UNL     1       2.305   7.519  18.323  0.00  0.00    +0.000 C 
ENDROOT
BRANCH   1   2
ATOM      2  C   UNL     1       1.673   8.796  18.808  0.00  0.00    +0.000 A 
ATOM      3  N   UNL     1       1.318   9.824  18.100  0.00  0.00    +0.000 NA
ATOM      4  N   UNL     1       0.724  10.635  19.037  0.00  0.00    +0.000 N 
ATOM      5  C   UNL     1       0.728  10.041  20.274  0.00  0.00    +0.000 A 
ATOM      6  O   UNL     1       0.226  10.437  21.312  0.00  0.00    +0.000 OA
ATOM      7  O   UNL     1       1.374   8.851  20.126  0.00  0.00    +0.000 OA
BRANCH   4   8
ATOM      8  C   UNL     1       0.040  11.868  18.710  0.00  0.00    +0.000 C 
BRANCH   8   9
ATOM      9  C   UNL     1      -1.456  11.694  18.586  0.00  0.00    +0.000 A 
ATOM     10  C   UNL     1      -1.995  10.958  17.520  0.00  0.00    +0.000 A 
ATOM     11  C   UNL     1      -3.378  10.823  17.379  0.00  0.00    +0.000 A 
ATOM     12  C   UNL     1      -4.230  11.428  18.300  0.00  0.00    +0.000 A 
ATOM     13 BR   UNL     1      -6.103  11.288  18.077  0.00  0.00    +0.000 Br
ATOM     14  C   UNL     1      -3.712  12.148  19.373  0.00  0.00    +0.000 A 
ATOM     15  C   UNL     1      -2.329  12.282  19.515  0.00  0.00    +0.000 A 
ENDBRANCH   8   9
ENDBRANCH   4   8
ENDBRANCH   1   2
BRANCH   1  16
ATOM     16  O   UNL     1       3.075   6.885  19.333  0.00  0.00    +0.000 OA
BRANCH  16  22
ATOM     17  C   UNL     1       3.295   3.273  19.919  0.00  0.00    +0.000 A 
ATOM     18  C   UNL     1       2.063   3.015  20.524  0.00  0.00    +0.000 A 
ATOM     19  F   UNL     1       1.712   1.783  20.917  0.00  0.00    +0.000 F 
ATOM     20  C   UNL     1       1.144   4.042  20.744  0.00  0.00    +0.000 A 
ATOM     21  C   UNL     1       1.440   5.353  20.360  0.00  0.00    +0.000 A 
ATOM     22  C   UNL     1       2.663   5.640  19.751  0.00  0.00    +0.000 A 
ATOM     23  C   UNL     1       3.577   4.592  19.539  0.00  0.00    +0.000 A 
ATOM     24  F   UNL     1       4.750   4.889  18.953  0.00  0.00    +0.000 F 
BRANCH  17  26
ATOM     25  N   UNL     1       4.183   1.465  18.531  0.00  0.00    +0.000 N 
ATOM     26  C   UNL     1       4.251   2.154  19.708  0.00  0.00    +0.000 C 
ATOM     27  O   UNL     1       5.090   1.835  20.541  0.00  0.00    +0.000 OA
ATOM     28  H   UNL     1       4.841   0.710  18.386  0.00  0.00    +0.000 HD
ATOM     29  H   UNL     1       3.519   1.674  17.795  0.00  0.00    +0.000 HD
ENDBRANCH  17  26
ENDBRANCH  16  22
ENDBRANCH   1  16
TORSDOF 6
ENDMDL
MODEL 8
REMARK VINA RESULT:      -8.1      6.182      8.837
REMARK  Name = 
REMARK  6 active torsions:
REMARK  status: ('A' for Active; 'I' for Inactive)
REMARK    1  A    between atoms: C_2  and  C_4
REMARK    2  A    between atoms: C_9  and  O_10
REMARK    3  A    between atoms: O_10  and  C_11
REMARK    4  A    between atoms: C_11  and  C_12
REMARK    5  A    between atoms: N_14  and  C_15
REMARK    6  A    between atoms: C_15  and  C_16
REMARK                            x       y       z     vdW  Elec       q    Type
REMARK                         _______ _______ _______ _____ _____    ______ ____
ROOT
ATOM      1  C   UNL     1       1.843   6.519  20.684  0.00  0.00    +0.000 C 
ENDROOT
BRANCH   1   2
ATOM      2  C   UNL     1       1.522   7.988  20.633  0.00  0.00    +0.000 A 
ATOM      3  N   UNL     1       1.450   8.749  19.584  0.00  0.00    +0.000 NA
ATOM      4  N   UNL     1       1.037   9.946  20.118  0.00  0.00    +0.000 N 
ATOM      5  C   UNL     1       0.855   9.844  21.474  0.00  0.00    +0.000 A 
ATOM      6  O   UNL     1       0.428  10.680  22.252  0.00  0.00    +0.000 OA
ATOM      7  O   UNL     1       1.200   8.569  21.812  0.00  0.00    +0.000 OA
BRANCH   4   8
ATOM      8  C   UNL     1       0.682  11.099  19.317  0.00  0.00    +0.000 C 
BRANCH   8   9
ATOM      9  C   UNL     1      -0.781  11.125  18.943  0.00  0.00    +0.000 A 
ATOM     10  C   UNL     1      -1.269  10.278  17.938  0.00  0.00    +0.000 A 
ATOM     11  C   UNL     1      -2.613  10.322  17.561  0.00  0.00    +0.000 A 
ATOM     12  C   UNL     1      -3.477  11.218  18.186  0.00  0.00    +0.000 A 
ATOM     13 BR   UNL     1      -5.285  11.314  17.639  0.00  0.00    +0.000 Br
ATOM     14  C   UNL     1      -3.015  12.055  19.198  0.00  0.00    +0.000 A 
ATOM     15  C   UNL     1      -1.670  12.011  19.575  0.00  0.00    +0.000 A 
ENDBRANCH   8   9
ENDBRANCH   4   8
ENDBRANCH   1   2
BRANCH   1  16
ATOM     16  O   UNL     1       1.971   5.954  19.387  0.00  0.00    +0.000 OA
BRANCH  16  22
ATOM     17  C   UNL     1       5.164   5.817  17.594  0.00  0.00    +0.000 A 
ATOM     18  C   UNL     1       5.745   4.674  18.147  0.00  0.00    +0.000 A 
ATOM     19  F   UNL     1       6.955   4.241  17.769  0.00  0.00    +0.000 F 
ATOM     20  C   UNL     1       5.079   3.935  19.125  0.00  0.00    +0.000 A 
ATOM     21  C   UNL     1       3.812   4.325  19.570  0.00  0.00    +0.000 A 
ATOM     22  C   UNL     1       3.207   5.463  19.033  0.00  0.00    +0.000 A 
ATOM     23  C   UNL     1       3.895   6.196  18.049  0.00  0.00    +0.000 A 
ATOM     24  F   UNL     1       3.296   7.290  17.546  0.00  0.00    +0.000 F 
BRANCH  17  26
ATOM     25  N   UNL     1       6.961   7.353  16.966  0.00  0.00    +0.000 N 
ATOM     26  C   UNL     1       5.909   6.583  16.559  0.00  0.00    +0.000 C 
ATOM     27  O   UNL     1       5.618   6.545  15.371  0.00  0.00    +0.000 OA
ATOM     28  H   UNL     1       7.472   7.867  16.258  0.00  0.00    +0.000 HD
ATOM     29  H   UNL     1       7.261   7.431  17.930  0.00  0.00    +0.000 HD
ENDBRANCH  17  26
ENDBRANCH  16  22
ENDBRANCH   1  16
TORSDOF 6
ENDMDL
MODEL 9
REMARK VINA RESULT:      -8.1      6.258      8.825
REMARK  Name = 
REMARK  6 active torsions:
REMARK  status: ('A' for Active; 'I' for Inactive)
REMARK    1  A    between atoms: C_2  and  C_4
REMARK    2  A    between atoms: C_9  and  O_10
REMARK    3  A    between atoms: O_10  and  C_11
REMARK    4  A    between atoms: C_11  and  C_12
REMARK    5  A    between atoms: N_14  and  C_15
REMARK    6  A    between atoms: C_15  and  C_16
REMARK                            x       y       z     vdW  Elec       q    Type
REMARK                         _______ _______ _______ _____ _____    ______ ____
ROOT
ATOM      1  C   UNL     1       2.144   5.678  20.358  0.00  0.00    +0.000 C 
ENDROOT
BRANCH   1   2
ATOM      2  C   UNL     1       1.865   7.040  19.783  0.00  0.00    +0.000 A 
ATOM      3  N   UNL     1       1.266   8.037  20.359  0.00  0.00    +0.000 NA
ATOM      4  N   UNL     1       1.377   9.031  19.416  0.00  0.00    +0.000 N 
ATOM      5  C   UNL     1       2.066   8.589  18.315  0.00  0.00    +0.000 A 
ATOM      6  O   UNL     1       2.410   9.216  17.328  0.00  0.00    +0.000 OA
ATOM      7  O   UNL     1       2.358   7.278  18.546  0.00  0.00    +0.000 OA
BRANCH   4   8
ATOM      8  C   UNL     1       0.969  10.401  19.646  0.00  0.00    +0.000 C 
BRANCH   8   9
ATOM      9  C   UNL     1      -0.399  10.707  19.082  0.00  0.00    +0.000 A 
ATOM     10  C   UNL     1      -1.203  11.693  19.673  0.00  0.00    +0.000 A 
ATOM     11  C   UNL     1      -2.483  11.955  19.180  0.00  0.00    +0.000 A 
ATOM     12  C   UNL     1      -2.969  11.230  18.095  0.00  0.00    +0.000 A 
ATOM     13 BR   UNL     1      -4.722  11.551  17.462  0.00  0.00    +0.000 Br
ATOM     14  C   UNL     1      -2.179  10.259  17.485  0.00  0.00    +0.000 A 
ATOM     15  C   UNL     1      -0.898   9.997  17.978  0.00  0.00    +0.000 A 
ENDBRANCH   8   9
ENDBRANCH   4   8
ENDBRANCH   1   2
BRANCH   1  16
ATOM     16  O   UNL     1       3.511   5.314  20.237  0.00  0.00    +0.000 OA
BRANCH  16  22
ATOM     17  C   UNL     1       5.811   4.686  17.453  0.00  0.00    +0.000 A 
ATOM     18  C   UNL     1       5.011   3.926  16.598  0.00  0.00    +0.000 A 
ATOM     19  F   UNL     1       5.466   3.466  15.424  0.00  0.00    +0.000 F 
ATOM     20  C   UNL     1       3.694   3.612  16.939  0.00  0.00    +0.000 A 
ATOM     21  C   UNL     1       3.150   4.057  18.147  0.00  0.00    +0.000 A 
ATOM     22  C   UNL     1       3.926   4.822  19.020  0.00  0.00    +0.000 A 
ATOM     23  C   UNL     1       5.251   5.126  18.659  0.00  0.00    +0.000 A 
ATOM     24  F   UNL     1       5.983   5.861  19.515  0.00  0.00    +0.000 F 
BRANCH  17  26
ATOM     25  N   UNL     1       8.211   4.241  17.606  0.00  0.00    +0.000 N 
ATOM     26  C   UNL     1       7.211   4.993  17.057  0.00  0.00    +0.000 C 
ATOM     27  O   UNL     1       7.495   5.880  16.264  0.00  0.00    +0.000 OA
ATOM     28  H   UNL     1       9.163   4.446  17.328  0.00  0.00    +0.000 HD
ATOM     29  H   UNL     1       8.052   3.489  18.265  0.00  0.00    +0.000 HD
ENDBRANCH  17  26
ENDBRANCH  16  22
ENDBRANCH   1  16
TORSDOF 6
ENDMDL
