MODEL 1
REMARK VINA RESULT:      -7.7      0.000      0.000
REMARK  Name = 
REMARK  14 active torsions:
REMARK  status: ('A' for Active; 'I' for Inactive)
REMARK    1  A    between atoms: C_2  and  C_3
REMARK    2  A    between atoms: C_6  and  C_7
REMARK    3  A    between atoms: C_7  and  N_8
REMARK    4  A    between atoms: C_9  and  C_10
REMARK    5  A    between atoms: C_10  and  O_12
REMARK    6  A    between atoms: C_13  and  C_14
REMARK    7  A    between atoms: C_14  and  N_15
REMARK    8  A    between atoms: N_15  and  C_16
REMARK    9  A    between atoms: C_16  and  C_17
REMARK   10  A    between atoms: C_19  and  O_20
REMARK   11  A    between atoms: O_20  and  C_21
REMARK   12  A    between atoms: C_24  and  O_25
REMARK   13  A    between atoms: O_25  and  C_26
REMARK   14  A    between atoms: C_30  and  C_31
REMARK                            x       y       z     vdW  Elec       q    Type
REMARK                         _______ _______ _______ _____ _____    ______ ____
ROOT
ATOM      1  N   UNL     1       0.759  11.701  19.961  0.00  0.00    +0.000 N 
ATOM      2  C   UNL     1       0.971  10.395  20.361  0.00  0.00    +0.000 A 
ATOM      3  C   UNL     1       1.062   9.877  19.049  0.00  0.00    +0.000 A 
ATOM      4  C   UNL     1      -0.260  10.104  18.706  0.00  0.00    +0.000 A 
ATOM      5  C   UNL     1      -1.078   9.435  17.795  0.00  0.00    +0.000 A 
ATOM      6  C   UNL     1      -2.293   9.980  17.500  0.00  0.00    +0.000 A 
ATOM      7  C   UNL     1      -2.648  11.212  18.059  0.00  0.00    +0.000 A 
ATOM      8  C   UNL     1      -4.127  11.507  17.929  0.00  0.00    +0.000 C 
ATOM      9  C   UNL     1      -1.701  12.031  18.808  0.00  0.00    +0.000 A 
ATOM     10  C   UNL     1      -0.429  11.465  19.126  0.00  0.00    +0.000 A 
ENDROOT
BRANCH   2  11
ATOM     11  C   UNL     1       0.282  10.045  21.613  0.00  0.00    +0.000 C 
ATOM     12  O   UNL     1      -0.001  10.827  22.497  0.00  0.00    +0.000 OA
BRANCH  11  13
ATOM     13  O   UNL     1      -0.086   8.746  21.663  0.00  0.00    +0.000 OA
ATOM     14  H   UNL     1      -1.002   8.638  21.362  0.00  0.00    +0.000 HD
ENDBRANCH  11  13
ENDBRANCH   2  11
BRANCH   1  15
ATOM     15  C   UNL     1       1.888  12.687  20.161  0.00  0.00    +0.000 C 
BRANCH  15  19
ATOM     16  C   UNL     1       1.812  16.732  17.971  0.00  0.00    +0.000 A 
ATOM     17  C   UNL     1       2.878  15.821  17.899  0.00  0.00    +0.000 A 
ATOM     18  C   UNL     1       2.893  14.587  18.622  0.00  0.00    +0.000 A 
ATOM     19  C   UNL     1       1.836  14.170  19.496  0.00  0.00    +0.000 A 
ATOM     20  C   UNL     1       0.790  15.118  19.545  0.00  0.00    +0.000 A 
ATOM     21  C   UNL     1       0.787  16.377  18.835  0.00  0.00    +0.000 A 
BRANCH  16  23
ATOM     22  C   UNL     1       0.850  18.630  16.568  0.00  0.00    +0.000 C 
ATOM     23  C   UNL     1       1.856  17.980  17.162  0.00  0.00    +0.000 C 
ENDBRANCH  16  23
ENDBRANCH  15  19
ENDBRANCH   1  15
BRANCH   3  24
ATOM     24  C   UNL     1       1.938  10.114  17.815  0.00  0.00    +0.000 C 
BRANCH  24  25
ATOM     25  N   UNL     1       2.546   8.914  17.338  0.00  0.00    +0.000 NA
ATOM     26  H   UNL     1       3.520   9.081  17.111  0.00  0.00    +0.000 HD
BRANCH  25  27
ATOM     27  C   UNL     1       2.475   7.914  18.385  0.00  0.00    +0.000 C 
BRANCH  27  28
ATOM     28  C   UNL     1       2.793   6.539  17.902  0.00  0.00    +0.000 A 
ATOM     29  C   UNL     1       1.868   5.505  18.127  0.00  0.00    +0.000 A 
ATOM     30  C   UNL     1       2.167   4.189  17.816  0.00  0.00    +0.000 A 
ATOM     31  C   UNL     1       3.404   3.906  17.261  0.00  0.00    +0.000 A 
ATOM     32  C   UNL     1       4.322   4.933  17.013  0.00  0.00    +0.000 A 
ATOM     33  C   UNL     1       4.014   6.272  17.299  0.00  0.00    +0.000 A 
BRANCH  30  34
ATOM     34  O   UNL     1       1.160   3.310  18.085  0.00  0.00    +0.000 OA
ATOM     35  C   UNL     1       0.892   3.085  19.460  0.00  0.00    +0.000 C 
ENDBRANCH  30  34
BRANCH  33  36
ATOM     36  O   UNL     1       5.035   7.146  17.033  0.00  0.00    +0.000 OA
ATOM     37  C   UNL     1       6.330   6.865  17.558  0.00  0.00    +0.000 C 
ENDBRANCH  33  36
ENDBRANCH  27  28
ENDBRANCH  25  27
ENDBRANCH  24  25
ENDBRANCH   3  24
TORSDOF 11
ENDMDL
MODEL 2
REMARK VINA RESULT:      -7.6      3.365      8.831
REMARK  Name = 
REMARK  14 active torsions:
REMARK  status: ('A' for Active; 'I' for Inactive)
REMARK    1  A    between atoms: C_2  and  C_3
REMARK    2  A    between atoms: C_6  and  C_7
REMARK    3  A    between atoms: C_7  and  N_8
REMARK    4  A    between atoms: C_9  and  C_10
REMARK    5  A    between atoms: C_10  and  O_12
REMARK    6  A    between atoms: C_13  and  C_14
REMARK    7  A    between atoms: C_14  and  N_15
REMARK    8  A    between atoms: N_15  and  C_16
REMARK    9  A    between atoms: C_16  and  C_17
REMARK   10  A    between atoms: C_19  and  O_20
REMARK   11  A    between atoms: O_20  and  C_21
REMARK   12  A    between atoms: C_24  and  O_25
REMARK   13  A    between atoms: O_25  and  C_26
REMARK   14  A    between atoms: C_30  and  C_31
REMARK                            x       y       z     vdW  Elec       q    Type
REMARK                         _______ _______ _______ _____ _____    ______ ____
ROOT
ATOM      1  N   UNL     1       0.835   9.857  19.221  0.00  0.00    +0.000 N 
ATOM      2  C   UNL     1       1.153  11.156  19.568  0.00  0.00    +0.000 A 
ATOM      3  C   UNL     1      -0.031  11.380  20.307  0.00  0.00    +0.000 A 
ATOM      4  C   UNL     1      -0.894  11.330  19.226  0.00  0.00    +0.000 A 
ATOM      5  C   UNL     1      -2.135  11.942  19.039  0.00  0.00    +0.000 A 
ATOM      6  C   UNL     1      -2.876  11.576  17.955  0.00  0.00    +0.000 A 
ATOM      7  C   UNL     1      -2.407  10.564  17.111  0.00  0.00    +0.000 A 
ATOM      8  C   UNL     1      -3.143  10.519  15.788  0.00  0.00    +0.000 C 
ATOM      9  C   UNL     1      -1.240   9.752  17.440  0.00  0.00    +0.000 A 
ATOM     10  C   UNL     1      -0.456  10.132  18.571  0.00  0.00    +0.000 A 
ENDROOT
BRANCH   2  11
ATOM     11  C   UNL     1       1.932  11.864  18.541  0.00  0.00    +0.000 C 
ATOM     12  O   UNL     1       2.341  13.004  18.636  0.00  0.00    +0.000 OA
BRANCH  11  13
ATOM     13  O   UNL     1       2.227  11.086  17.477  0.00  0.00    +0.000 OA
ATOM     14  H   UNL     1       3.140  10.765  17.530  0.00  0.00    +0.000 HD
ENDBRANCH  11  13
ENDBRANCH   2  11
BRANCH   1  15
ATOM     15  C   UNL     1       1.609   8.743  19.891  0.00  0.00    +0.000 C 
BRANCH  15  19
ATOM     16  C   UNL     1       3.876   5.578  17.440  0.00  0.00    +0.000 A 
ATOM     17  C   UNL     1       3.859   6.947  17.128  0.00  0.00    +0.000 A 
ATOM     18  C   UNL     1       3.113   7.904  17.885  0.00  0.00    +0.000 A 
ATOM     19  C   UNL     1       2.305   7.561  19.018  0.00  0.00    +0.000 A 
ATOM     20  C   UNL     1       2.344   6.175  19.291  0.00  0.00    +0.000 A 
ATOM     21  C   UNL     1       3.077   5.203  18.510  0.00  0.00    +0.000 A 
BRANCH  16  23
ATOM     22  C   UNL     1       5.494   4.925  15.582  0.00  0.00    +0.000 C 
ATOM     23  C   UNL     1       4.703   4.648  16.624  0.00  0.00    +0.000 C 
ENDBRANCH  16  23
ENDBRANCH  15  19
ENDBRANCH   1  15
BRANCH   3  24
ATOM     24  C   UNL     1      -0.725  10.750  21.519  0.00  0.00    +0.000 C 
BRANCH  24  25
ATOM     25  N   UNL     1      -0.424  11.433  22.736  0.00  0.00    +0.000 NA
ATOM     26  H   UNL     1       0.549  11.293  22.984  0.00  0.00    +0.000 HD
BRANCH  25  27
ATOM     27  C   UNL     1      -0.657  12.850  22.539  0.00  0.00    +0.000 C 
BRANCH  27  28
ATOM     28  C   UNL     1      -1.880  13.343  23.238  0.00  0.00    +0.000 A 
ATOM     29  C   UNL     1      -3.121  12.753  22.940  0.00  0.00    +0.000 A 
ATOM     30  C   UNL     1      -4.302  13.256  23.462  0.00  0.00    +0.000 A 
ATOM     31  C   UNL     1      -4.239  14.356  24.301  0.00  0.00    +0.000 A 
ATOM     32  C   UNL     1      -3.004  14.935  24.619  0.00  0.00    +0.000 A 
ATOM     33  C   UNL     1      -1.801  14.413  24.118  0.00  0.00    +0.000 A 
BRANCH  30  34
ATOM     34  O   UNL     1      -5.416  12.565  23.086  0.00  0.00    +0.000 OA
ATOM     35  C   UNL     1      -6.511  12.632  23.986  0.00  0.00    +0.000 C 
ENDBRANCH  30  34
BRANCH  33  36
ATOM     36  O   UNL     1      -0.690  15.118  24.495  0.00  0.00    +0.000 OA
ATOM     37  C   UNL     1      -0.472  16.407  23.925  0.00  0.00    +0.000 C 
ENDBRANCH  33  36
ENDBRANCH  27  28
ENDBRANCH  25  27
ENDBRANCH  24  25
ENDBRANCH   3  24
TORSDOF 11
ENDMDL
MODEL 3
REMARK VINA RESULT:      -7.4      3.174      8.544
REMARK  Name = 
REMARK  14 active torsions:
REMARK  status: ('A' for Active; 'I' for Inactive)
REMARK    1  A    between atoms: C_2  and  C_3
REMARK    2  A    between atoms: C_6  and  C_7
REMARK    3  A    between atoms: C_7  and  N_8
REMARK    4  A    between atoms: C_9  and  C_10
REMARK    5  A    between atoms: C_10  and  O_12
REMARK    6  A    between atoms: C_13  and  C_14
REMARK    7  A    between atoms: C_14  and  N_15
REMARK    8  A    between atoms: N_15  and  C_16
REMARK    9  A    between atoms: C_16  and  C_17
REMARK   10  A    between atoms: C_19  and  O_20
REMARK   11  A    between atoms: O_20  and  C_21
REMARK   12  A    between atoms: C_24  and  O_25
REMARK   13  A    between atoms: O_25  and  C_26
REMARK   14  A    between atoms: C_30  and  C_31
REMARK                            x       y       z     vdW  Elec       q    Type
REMARK                         _______ _______ _______ _____ _____    ______ ____
ROOT
ATOM      1  N   UNL     1       0.722   9.927  19.393  0.00  0.00    +0.000 N 
ATOM      2  C   UNL     1       1.030  11.209  19.808  0.00  0.00    +0.000 A 
ATOM      3  C   UNL     1      -0.175  11.403  20.520  0.00  0.00    +0.000 A 
ATOM      4  C   UNL     1      -1.006  11.403  19.412  0.00  0.00    +0.000 A 
ATOM      5  C   UNL     1      -2.239  12.025  19.215  0.00  0.00    +0.000 A 
ATOM      6  C   UNL     1      -2.948  11.709  18.094  0.00  0.00    +0.000 A 
ATOM      7  C   UNL     1      -2.455  10.734  17.221  0.00  0.00    +0.000 A 
ATOM      8  C   UNL     1      -3.151  10.749  15.876  0.00  0.00    +0.000 C 
ATOM      9  C   UNL     1      -1.299   9.906  17.548  0.00  0.00    +0.000 A 
ATOM     10  C   UNL     1      -0.548  10.234  18.718  0.00  0.00    +0.000 A 
ENDROOT
BRANCH   2  11
ATOM     11  C   UNL     1       1.841  11.960  18.837  0.00  0.00    +0.000 C 
ATOM     12  O   UNL     1       2.495  11.467  17.941  0.00  0.00    +0.000 OA
BRANCH  11  13
ATOM     13  O   UNL     1       1.734  13.299  18.989  0.00  0.00    +0.000 OA
ATOM     14  H   UNL     1       1.908  13.554  19.908  0.00  0.00    +0.000 HD
ENDBRANCH  11  13
ENDBRANCH   2  11
BRANCH   1  15
ATOM     15  C   UNL     1       1.475   8.783  20.036  0.00  0.00    +0.000 C 
BRANCH  15  19
ATOM     16  C   UNL     1       4.000   5.934  17.454  0.00  0.00    +0.000 A 
ATOM     17  C   UNL     1       3.669   7.247  17.080  0.00  0.00    +0.000 A 
ATOM     18  C   UNL     1       2.849   8.099  17.885  0.00  0.00    +0.000 A 
ATOM     19  C   UNL     1       2.276   7.694  19.135  0.00  0.00    +0.000 A 
ATOM     20  C   UNL     1       2.626   6.366  19.468  0.00  0.00    +0.000 A 
ATOM     21  C   UNL     1       3.433   5.496  18.642  0.00  0.00    +0.000 A 
BRANCH  16  23
ATOM     22  C   UNL     1       5.836   4.248  16.926  0.00  0.00    +0.000 C 
ATOM     23  C   UNL     1       4.886   5.122  16.577  0.00  0.00    +0.000 C 
ENDBRANCH  16  23
ENDBRANCH  15  19
ENDBRANCH   1  15
BRANCH   3  24
ATOM     24  C   UNL     1      -0.906  10.721  21.681  0.00  0.00    +0.000 C 
BRANCH  24  25
ATOM     25  N   UNL     1      -0.706  11.396  22.923  0.00  0.00    +0.000 NA
ATOM     26  H   UNL     1      -0.149  12.232  22.781  0.00  0.00    +0.000 HD
BRANCH  25  27
ATOM     27  C   UNL     1      -2.001  11.782  23.450  0.00  0.00    +0.000 C 
BRANCH  27  28
ATOM     28  C   UNL     1      -2.551  13.010  22.806  0.00  0.00    +0.000 A 
ATOM     29  C   UNL     1      -3.858  12.983  22.289  0.00  0.00    +0.000 A 
ATOM     30  C   UNL     1      -4.371  14.049  21.569  0.00  0.00    +0.000 A 
ATOM     31  C   UNL     1      -3.570  15.162  21.375  0.00  0.00    +0.000 A 
ATOM     32  C   UNL     1      -2.275  15.206  21.906  0.00  0.00    +0.000 A 
ATOM     33  C   UNL     1      -1.759  14.141  22.661  0.00  0.00    +0.000 A 
BRANCH  30  34
ATOM     34  O   UNL     1      -5.655  13.870  21.146  0.00  0.00    +0.000 OA
ATOM     35  C   UNL     1      -5.809  13.556  19.771  0.00  0.00    +0.000 C 
ENDBRANCH  30  34
BRANCH  33  36
ATOM     36  O   UNL     1      -0.467  14.327  23.074  0.00  0.00    +0.000 OA
ATOM     37  C   UNL     1       0.513  14.699  22.107  0.00  0.00    +0.000 C 
ENDBRANCH  33  36
ENDBRANCH  27  28
ENDBRANCH  25  27
ENDBRANCH  24  25
ENDBRANCH   3  24
TORSDOF 11
ENDMDL
MODEL 4
REMARK VINA RESULT:      -7.4      3.164      8.741
REMARK  Name = 
REMARK  14 active torsions:
REMARK  status: ('A' for Active; 'I' for Inactive)
REMARK    1  A    between atoms: C_2  and  C_3
REMARK    2  A    between atoms: C_6  and  C_7
REMARK    3  A    between atoms: C_7  and  N_8
REMARK    4  A    between atoms: C_9  and  C_10
REMARK    5  A    between atoms: C_10  and  O_12
REMARK    6  A    between atoms: C_13  and  C_14
REMARK    7  A    between atoms: C_14  and  N_15
REMARK    8  A    between atoms: N_15  and  C_16
REMARK    9  A    between atoms: C_16  and  C_17
REMARK   10  A    between atoms: C_19  and  O_20
REMARK   11  A    between atoms: O_20  and  C_21
REMARK   12  A    between atoms: C_24  and  O_25
REMARK   13  A    between atoms: O_25  and  C_26
REMARK   14  A    between atoms: C_30  and  C_31
REMARK                            x       y       z     vdW  Elec       q    Type
REMARK                         _______ _______ _______ _____ _____    ______ ____
ROOT
ATOM      1  N   UNL     1       0.773   9.969  19.516  0.00  0.00    +0.000 N 
ATOM      2  C   UNL     1       1.038  11.285  19.846  0.00  0.00    +0.000 A 
ATOM      3  C   UNL     1      -0.188  11.492  20.520  0.00  0.00    +0.000 A 
ATOM      4  C   UNL     1      -0.994  11.393  19.398  0.00  0.00    +0.000 A 
ATOM      5  C   UNL     1      -2.239  11.964  19.135  0.00  0.00    +0.000 A 
ATOM      6  C   UNL     1      -2.915  11.552  18.025  0.00  0.00    +0.000 A 
ATOM      7  C   UNL     1      -2.377  10.534  17.231  0.00  0.00    +0.000 A 
ATOM      8  C   UNL     1      -3.043  10.437  15.875  0.00  0.00    +0.000 C 
ATOM      9  C   UNL     1      -1.206   9.764  17.637  0.00  0.00    +0.000 A 
ATOM     10  C   UNL     1      -0.490  10.193  18.796  0.00  0.00    +0.000 A 
ENDROOT
BRANCH   2  11
ATOM     11  C   UNL     1       1.848  11.990  18.842  0.00  0.00    +0.000 C 
ATOM     12  O   UNL     1       2.182  13.156  18.906  0.00  0.00    +0.000 OA
BRANCH  11  13
ATOM     13  O   UNL     1       2.266  11.182  17.844  0.00  0.00    +0.000 OA
ATOM     14  H   UNL     1       1.752  11.340  17.037  0.00  0.00    +0.000 HD
ENDBRANCH  11  13
ENDBRANCH   2  11
BRANCH   1  15
ATOM     15  C   UNL     1       1.543   8.894  20.251  0.00  0.00    +0.000 C 
BRANCH  15  19
ATOM     16  C   UNL     1       2.951   5.109  18.047  0.00  0.00    +0.000 A 
ATOM     17  C   UNL     1       2.321   5.097  19.302  0.00  0.00    +0.000 A 
ATOM     18  C   UNL     1       1.928   6.292  19.983  0.00  0.00    +0.000 A 
ATOM     19  C   UNL     1       2.151   7.609  19.463  0.00  0.00    +0.000 A 
ATOM     20  C   UNL     1       2.794   7.575  18.205  0.00  0.00    +0.000 A 
ATOM     21  C   UNL     1       3.215   6.368  17.528  0.00  0.00    +0.000 A 
BRANCH  16  23
ATOM     22  C   UNL     1       3.740   2.688  17.943  0.00  0.00    +0.000 C 
ATOM     23  C   UNL     1       3.299   3.822  17.388  0.00  0.00    +0.000 C 
ENDBRANCH  16  23
ENDBRANCH  15  19
ENDBRANCH   1  15
BRANCH   3  24
ATOM     24  C   UNL     1      -0.925  10.872  21.711  0.00  0.00    +0.000 C 
BRANCH  24  25
ATOM     25  N   UNL     1      -0.771  11.636  22.907  0.00  0.00    +0.000 NA
ATOM     26  H   UNL     1      -0.271  12.496  22.710  0.00  0.00    +0.000 HD
BRANCH  25  27
ATOM     27  C   UNL     1      -2.088  11.966  23.414  0.00  0.00    +0.000 C 
BRANCH  27  28
ATOM     28  C   UNL     1      -2.757  13.052  22.638  0.00  0.00    +0.000 A 
ATOM     29  C   UNL     1      -4.059  12.842  22.154  0.00  0.00    +0.000 A 
ATOM     30  C   UNL     1      -4.677  13.761  21.322  0.00  0.00    +0.000 A 
ATOM     31  C   UNL     1      -3.985  14.911  20.979  0.00  0.00    +0.000 A 
ATOM     32  C   UNL     1      -2.695  15.137  21.475  0.00  0.00    +0.000 A 
ATOM     33  C   UNL     1      -2.075  14.224  22.342  0.00  0.00    +0.000 A 
BRANCH  30  34
ATOM     34  O   UNL     1      -5.942  13.414  20.950  0.00  0.00    +0.000 OA
ATOM     35  C   UNL     1      -6.142  12.039  20.663  0.00  0.00    +0.000 C 
ENDBRANCH  30  34
BRANCH  33  36
ATOM     36  O   UNL     1      -0.803  14.578  22.704  0.00  0.00    +0.000 OA
ATOM     37  C   UNL     1      -0.530  15.946  22.997  0.00  0.00    +0.000 C 
ENDBRANCH  33  36
ENDBRANCH  27  28
ENDBRANCH  25  27
ENDBRANCH  24  25
ENDBRANCH   3  24
TORSDOF 11
ENDMDL
MODEL 5
REMARK VINA RESULT:      -7.3      1.081      2.380
REMARK  Name = 
REMARK  14 active torsions:
REMARK  status: ('A' for Active; 'I' for Inactive)
REMARK    1  A    between atoms: C_2  and  C_3
REMARK    2  A    between atoms: C_6  and  C_7
REMARK    3  A    between atoms: C_7  and  N_8
REMARK    4  A    between atoms: C_9  and  C_10
REMARK    5  A    between atoms: C_10  and  O_12
REMARK    6  A    between atoms: C_13  and  C_14
REMARK    7  A    between atoms: C_14  and  N_15
REMARK    8  A    between atoms: N_15  and  C_16
REMARK    9  A    between atoms: C_16  and  C_17
REMARK   10  A    between atoms: C_19  and  O_20
REMARK   11  A    between atoms: O_20  and  C_21
REMARK   12  A    between atoms: C_24  and  O_25
REMARK   13  A    between atoms: O_25  and  C_26
REMARK   14  A    between atoms: C_30  and  C_31
REMARK                            x       y       z     vdW  Elec       q    Type
REMARK                         _______ _______ _______ _____ _____    ______ ____
ROOT
ATOM      1  N   UNL     1       0.491  11.688  20.061  0.00  0.00    +0.000 N 
ATOM      2  C   UNL     1       0.580  10.407  20.574  0.00  0.00    +0.000 A 
ATOM      3  C   UNL     1       0.554   9.766  19.315  0.00  0.00    +0.000 A 
ATOM      4  C   UNL     1      -0.750  10.108  19.000  0.00  0.00    +0.000 A 
ATOM      5  C   UNL     1      -1.676   9.455  18.186  0.00  0.00    +0.000 A 
ATOM      6  C   UNL     1      -2.838  10.104  17.884  0.00  0.00    +0.000 A 
ATOM      7  C   UNL     1      -3.032  11.412  18.338  0.00  0.00    +0.000 A 
ATOM      8  C   UNL     1      -4.476  11.858  18.233  0.00  0.00    +0.000 C 
ATOM      9  C   UNL     1      -1.969  12.185  18.971  0.00  0.00    +0.000 A 
ATOM     10  C   UNL     1      -0.752  11.511  19.295  0.00  0.00    +0.000 A 
ENDROOT
BRANCH   2  11
ATOM     11  C   UNL     1      -0.084  10.250  21.877  0.00  0.00    +0.000 C 
ATOM     12  O   UNL     1      -0.375  11.159  22.628  0.00  0.00    +0.000 OA
BRANCH  11  13
ATOM     13  O   UNL     1      -0.421   8.969  22.143  0.00  0.00    +0.000 OA
ATOM     14  H   UNL     1      -1.303   8.767  21.794  0.00  0.00    +0.000 HD
ENDBRANCH  11  13
ENDBRANCH   2  11
BRANCH   1  15
ATOM     15  C   UNL     1       1.729  12.556  20.126  0.00  0.00    +0.000 C 
BRANCH  15  19
ATOM     16  C   UNL     1       1.960  16.571  17.894  0.00  0.00    +0.000 A 
ATOM     17  C   UNL     1       0.814  16.110  18.562  0.00  0.00    +0.000 A 
ATOM     18  C   UNL     1       0.757  14.839  19.215  0.00  0.00    +0.000 A 
ATOM     19  C   UNL     1       1.850  13.912  19.239  0.00  0.00    +0.000 A 
ATOM     20  C   UNL     1       2.978  14.412  18.549  0.00  0.00    +0.000 A 
ATOM     21  C   UNL     1       3.027  15.685  17.866  0.00  0.00    +0.000 A 
BRANCH  16  23
ATOM     22  C   UNL     1       0.971  18.522  16.584  0.00  0.00    +0.000 C 
ATOM     23  C   UNL     1       1.951  17.920  17.266  0.00  0.00    +0.000 C 
ENDBRANCH  16  23
ENDBRANCH  15  19
ENDBRANCH   1  15
BRANCH   3  24
ATOM     24  C   UNL     1       1.392   9.793  18.033  0.00  0.00    +0.000 C 
BRANCH  24  25
ATOM     25  N   UNL     1       1.792   8.488  17.615  0.00  0.00    +0.000 NA
ATOM     26  H   UNL     1       1.756   8.418  16.604  0.00  0.00    +0.000 HD
BRANCH  25  27
ATOM     27  C   UNL     1       3.156   8.262  18.051  0.00  0.00    +0.000 C 
BRANCH  27  28
ATOM     28  C   UNL     1       3.680   6.921  17.660  0.00  0.00    +0.000 A 
ATOM     29  C   UNL     1       4.745   6.844  16.747  0.00  0.00    +0.000 A 
ATOM     30  C   UNL     1       5.185   5.627  16.251  0.00  0.00    +0.000 A 
ATOM     31  C   UNL     1       4.556   4.471  16.685  0.00  0.00    +0.000 A 
ATOM     32  C   UNL     1       3.508   4.538  17.612  0.00  0.00    +0.000 A 
ATOM     33  C   UNL     1       3.078   5.766  18.140  0.00  0.00    +0.000 A 
BRANCH  30  34
ATOM     34  O   UNL     1       6.233   5.723  15.385  0.00  0.00    +0.000 OA
ATOM     35  C   UNL     1       6.317   4.697  14.408  0.00  0.00    +0.000 C 
ENDBRANCH  30  34
BRANCH  33  36
ATOM     36  O   UNL     1       2.020   5.658  19.003  0.00  0.00    +0.000 OA
ATOM     37  C   UNL     1       2.279   5.317  20.363  0.00  0.00    +0.000 C 
ENDBRANCH  33  36
ENDBRANCH  27  28
ENDBRANCH  25  27
ENDBRANCH  24  25
ENDBRANCH   3  24
TORSDOF 11
ENDMDL
MODEL 6
REMARK VINA RESULT:      -7.3      3.234      9.003
REMARK  Name = 
REMARK  14 active torsions:
REMARK  status: ('A' for Active; 'I' for Inactive)
REMARK    1  A    between atoms: C_2  and  C_3
REMARK    2  A    between atoms: C_6  and  C_7
REMARK    3  A    between atoms: C_7  and  N_8
REMARK    4  A    between atoms: C_9  and  C_10
REMARK    5  A    between atoms: C_10  and  O_12
REMARK    6  A    between atoms: C_13  and  C_14
REMARK    7  A    between atoms: C_14  and  N_15
REMARK    8  A    between atoms: N_15  and  C_16
REMARK    9  A    between atoms: C_16  and  C_17
REMARK   10  A    between atoms: C_19  and  O_20
REMARK   11  A    between atoms: O_20  and  C_21
REMARK   12  A    between atoms: C_24  and  O_25
REMARK   13  A    between atoms: O_25  and  C_26
REMARK   14  A    between atoms: C_30  and  C_31
REMARK                            x       y       z     vdW  Elec       q    Type
REMARK                         _______ _______ _______ _____ _____    ______ ____
ROOT
ATOM      1  N   UNL     1       0.907  10.158  19.681  0.00  0.00    +0.000 N 
ATOM      2  C   UNL     1       1.058  11.483  20.044  0.00  0.00    +0.000 A 
ATOM      3  C   UNL     1      -0.195  11.578  20.692  0.00  0.00    +0.000 A 
ATOM      4  C   UNL     1      -0.965  11.438  19.550  0.00  0.00    +0.000 A 
ATOM      5  C   UNL     1      -2.247  11.913  19.269  0.00  0.00    +0.000 A 
ATOM      6  C   UNL     1      -2.862  11.472  18.134  0.00  0.00    +0.000 A 
ATOM      7  C   UNL     1      -2.227  10.518  17.334  0.00  0.00    +0.000 A 
ATOM      8  C   UNL     1      -2.853  10.397  15.961  0.00  0.00    +0.000 C 
ATOM      9  C   UNL     1      -1.007   9.835  17.753  0.00  0.00    +0.000 A 
ATOM     10  C   UNL     1      -0.354  10.295  18.936  0.00  0.00    +0.000 A 
ENDROOT
BRANCH   2  11
ATOM     11  C   UNL     1       1.831  12.273  19.073  0.00  0.00    +0.000 C 
ATOM     12  O   UNL     1       2.410  11.821  18.107  0.00  0.00    +0.000 OA
BRANCH  11  13
ATOM     13  O   UNL     1       1.779  13.601  19.319  0.00  0.00    +0.000 OA
ATOM     14  H   UNL     1       1.047  13.810  19.918  0.00  0.00    +0.000 HD
ENDBRANCH  11  13
ENDBRANCH   2  11
BRANCH   1  15
ATOM     15  C   UNL     1       1.745   9.132  20.413  0.00  0.00    +0.000 C 
BRANCH  15  19
ATOM     16  C   UNL     1       2.078   4.841  18.790  0.00  0.00    +0.000 A 
ATOM     17  C   UNL     1       1.732   5.154  20.115  0.00  0.00    +0.000 A 
ATOM     18  C   UNL     1       1.674   6.497  20.603  0.00  0.00    +0.000 A 
ATOM     19  C   UNL     1       1.975   7.645  19.800  0.00  0.00    +0.000 A 
ATOM     20  C   UNL     1       2.325   7.285  18.479  0.00  0.00    +0.000 A 
ATOM     21  C   UNL     1       2.410   5.926  17.992  0.00  0.00    +0.000 A 
BRANCH  16  23
ATOM     22  C   UNL     1       1.299   2.414  18.748  0.00  0.00    +0.000 C 
ATOM     23  C   UNL     1       2.084   3.420  18.348  0.00  0.00    +0.000 C 
ENDBRANCH  16  23
ENDBRANCH  15  19
ENDBRANCH   1  15
BRANCH   3  24
ATOM     24  C   UNL     1      -0.906  10.874  21.853  0.00  0.00    +0.000 C 
BRANCH  24  25
ATOM     25  N   UNL     1      -0.838  11.621  23.067  0.00  0.00    +0.000 NA
ATOM     26  H   UNL     1       0.059  11.477  23.517  0.00  0.00    +0.000 HD
BRANCH  25  27
ATOM     27  C   UNL     1      -0.980  13.029  22.750  0.00  0.00    +0.000 C 
BRANCH  27  28
ATOM     28  C   UNL     1      -2.403  13.476  22.707  0.00  0.00    +0.000 A 
ATOM     29  C   UNL     1      -3.369  12.753  23.427  0.00  0.00    +0.000 A 
ATOM     30  C   UNL     1      -4.718  13.046  23.320  0.00  0.00    +0.000 A 
ATOM     31  C   UNL     1      -5.105  14.084  22.489  0.00  0.00    +0.000 A 
ATOM     32  C   UNL     1      -4.147  14.824  21.784  0.00  0.00    +0.000 A 
ATOM     33  C   UNL     1      -2.776  14.551  21.912  0.00  0.00    +0.000 A 
BRANCH  30  34
ATOM     34  O   UNL     1      -5.523  12.260  24.091  0.00  0.00    +0.000 OA
ATOM     35  C   UNL     1      -6.916  12.496  23.963  0.00  0.00    +0.000 C 
ENDBRANCH  30  34
BRANCH  33  36
ATOM     36  O   UNL     1      -1.978  15.341  21.127  0.00  0.00    +0.000 OA
ATOM     37  C   UNL     1      -2.393  16.678  20.856  0.00  0.00    +0.000 C 
ENDBRANCH  33  36
ENDBRANCH  27  28
ENDBRANCH  25  27
ENDBRANCH  24  25
ENDBRANCH   3  24
TORSDOF 11
ENDMDL
MODEL 7
REMARK VINA RESULT:      -7.3      3.195      8.912
REMARK  Name = 
REMARK  14 active torsions:
REMARK  status: ('A' for Active; 'I' for Inactive)
REMARK    1  A    between atoms: C_2  and  C_3
REMARK    2  A    between atoms: C_6  and  C_7
REMARK    3  A    between atoms: C_7  and  N_8
REMARK    4  A    between atoms: C_9  and  C_10
REMARK    5  A    between atoms: C_10  and  O_12
REMARK    6  A    between atoms: C_13  and  C_14
REMARK    7  A    between atoms: C_14  and  N_15
REMARK    8  A    between atoms: N_15  and  C_16
REMARK    9  A    between atoms: C_16  and  C_17
REMARK   10  A    between atoms: C_19  and  O_20
REMARK   11  A    between atoms: O_20  and  C_21
REMARK   12  A    between atoms: C_24  and  O_25
REMARK   13  A    between atoms: O_25  and  C_26
REMARK   14  A    between atoms: C_30  and  C_31
REMARK                            x       y       z     vdW  Elec       q    Type
REMARK                         _______ _______ _______ _____ _____    ______ ____
ROOT
ATOM      1  N   UNL     1       0.730   9.628  19.543  0.00  0.00    +0.000 N 
ATOM      2  C   UNL     1       1.393  10.831  19.384  0.00  0.00    +0.000 A 
ATOM      3  C   UNL     1       0.472  11.582  20.150  0.00  0.00    +0.000 A 
ATOM      4  C   UNL     1      -0.591  11.456  19.271  0.00  0.00    +0.000 A 
ATOM      5  C   UNL     1      -1.677  12.304  19.050  0.00  0.00    +0.000 A 
ATOM      6  C   UNL     1      -2.694  11.855  18.260  0.00  0.00    +0.000 A 
ATOM      7  C   UNL     1      -2.649  10.551  17.757  0.00  0.00    +0.000 A 
ATOM      8  C   UNL     1      -3.641  10.324  16.636  0.00  0.00    +0.000 C 
ATOM      9  C   UNL     1      -1.647   9.582  18.188  0.00  0.00    +0.000 A 
ATOM     10  C   UNL     1      -0.576  10.046  19.011  0.00  0.00    +0.000 A 
ENDROOT
BRANCH   2  11
ATOM     11  C   UNL     1       2.073  10.960  18.086  0.00  0.00    +0.000 C 
ATOM     12  O   UNL     1       2.275  10.049  17.309  0.00  0.00    +0.000 OA
BRANCH  11  13
ATOM     13  O   UNL     1       2.399  12.237  17.790  0.00  0.00    +0.000 OA
ATOM     14  H   UNL     1       1.707  12.651  17.250  0.00  0.00    +0.000 HD
ENDBRANCH  11  13
ENDBRANCH   2  11
BRANCH   1  15
ATOM     15  C   UNL     1       1.365   8.593  20.445  0.00  0.00    +0.000 C 
BRANCH  15  19
ATOM     16  C   UNL     1       2.971   4.626  18.759  0.00  0.00    +0.000 A 
ATOM     17  C   UNL     1       3.069   5.858  18.093  0.00  0.00    +0.000 A 
ATOM     18  C   UNL     1       2.526   7.070  18.623  0.00  0.00    +0.000 A 
ATOM     19  C   UNL     1       1.821   7.143  19.869  0.00  0.00    +0.000 A 
ATOM     20  C   UNL     1       1.738   5.882  20.500  0.00  0.00    +0.000 A 
ATOM     21  C   UNL     1       2.264   4.651  19.952  0.00  0.00    +0.000 A 
BRANCH  16  23
ATOM     22  C   UNL     1       3.043   2.216  17.932  0.00  0.00    +0.000 C 
ATOM     23  C   UNL     1       3.592   3.414  18.158  0.00  0.00    +0.000 C 
ENDBRANCH  16  23
ENDBRANCH  15  19
ENDBRANCH   1  15
BRANCH   3  24
ATOM     24  C   UNL     1      -0.070  11.555  21.582  0.00  0.00    +0.000 C 
BRANCH  24  25
ATOM     25  N   UNL     1      -0.086  12.850  22.184  0.00  0.00    +0.000 NA
ATOM     26  H   UNL     1      -0.167  13.566  21.471  0.00  0.00    +0.000 HD
BRANCH  25  27
ATOM     27  C   UNL     1      -1.235  12.934  23.064  0.00  0.00    +0.000 C 
BRANCH  27  28
ATOM     28  C   UNL     1      -2.458  13.444  22.378  0.00  0.00    +0.000 A 
ATOM     29  C   UNL     1      -3.623  12.657  22.385  0.00  0.00    +0.000 A 
ATOM     30  C   UNL     1      -4.744  13.022  21.658  0.00  0.00    +0.000 A 
ATOM     31  C   UNL     1      -4.703  14.195  20.924  0.00  0.00    +0.000 A 
ATOM     32  C   UNL     1      -3.554  14.996  20.930  0.00  0.00    +0.000 A 
ATOM     33  C   UNL     1      -2.425  14.648  21.688  0.00  0.00    +0.000 A 
BRANCH  30  34
ATOM     34  O   UNL     1      -5.792  12.158  21.779  0.00  0.00    +0.000 OA
ATOM     35  C   UNL     1      -6.834  12.576  22.647  0.00  0.00    +0.000 C 
ENDBRANCH  30  34
BRANCH  33  36
ATOM     36  O   UNL     1      -1.376  15.518  21.553  0.00  0.00    +0.000 OA
ATOM     37  C   UNL     1      -1.316  16.656  22.410  0.00  0.00    +0.000 C 
ENDBRANCH  33  36
ENDBRANCH  27  28
ENDBRANCH  25  27
ENDBRANCH  24  25
ENDBRANCH   3  24
TORSDOF 11
ENDMDL
MODEL 8
REMARK VINA RESULT:      -7.3      1.182      1.547
REMARK  Name = 
REMARK  14 active torsions:
REMARK  status: ('A' for Active; 'I' for Inactive)
REMARK    1  A    between atoms: C_2  and  C_3
REMARK    2  A    between atoms: C_6  and  C_7
REMARK    3  A    between atoms: C_7  and  N_8
REMARK    4  A    between atoms: C_9  and  C_10
REMARK    5  A    between atoms: C_10  and  O_12
REMARK    6  A    between atoms: C_13  and  C_14
REMARK    7  A    between atoms: C_14  and  N_15
REMARK    8  A    between atoms: N_15  and  C_16
REMARK    9  A    between atoms: C_16  and  C_17
REMARK   10  A    between atoms: C_19  and  O_20
REMARK   11  A    between atoms: O_20  and  C_21
REMARK   12  A    between atoms: C_24  and  O_25
REMARK   13  A    between atoms: O_25  and  C_26
REMARK   14  A    between atoms: C_30  and  C_31
REMARK                            x       y       z     vdW  Elec       q    Type
REMARK                         _______ _______ _______ _____ _____    ______ ____
ROOT
ATOM      1  N   UNL     1       0.308  11.676  20.368  0.00  0.00    +0.000 N 
ATOM      2  C   UNL     1       0.440  10.341  20.701  0.00  0.00    +0.000 A 
ATOM      3  C   UNL     1       0.410   9.878  19.366  0.00  0.00    +0.000 A 
ATOM      4  C   UNL     1      -0.908  10.221  19.118  0.00  0.00    +0.000 A 
ATOM      5  C   UNL     1      -1.830   9.659  18.234  0.00  0.00    +0.000 A 
ATOM      6  C   UNL     1      -3.014  10.308  18.039  0.00  0.00    +0.000 A 
ATOM      7  C   UNL     1      -3.236  11.536  18.670  0.00  0.00    +0.000 A 
ATOM      8  C   UNL     1      -4.692  11.950  18.647  0.00  0.00    +0.000 C 
ATOM      9  C   UNL     1      -2.183  12.246  19.390  0.00  0.00    +0.000 A 
ATOM     10  C   UNL     1      -0.943  11.570  19.602  0.00  0.00    +0.000 A 
ENDROOT
BRANCH   2  11
ATOM     11  C   UNL     1      -0.198   9.989  21.978  0.00  0.00    +0.000 C 
ATOM     12  O   UNL     1      -0.656   8.899  22.254  0.00  0.00    +0.000 OA
BRANCH  11  13
ATOM     13  O   UNL     1      -0.163  10.997  22.877  0.00  0.00    +0.000 OA
ATOM     14  H   UNL     1       0.717  11.403  22.903  0.00  0.00    +0.000 HD
ENDBRANCH  11  13
ENDBRANCH   2  11
BRANCH   1  15
ATOM     15  C   UNL     1       1.522  12.564  20.536  0.00  0.00    +0.000 C 
BRANCH  15  19
ATOM     16  C   UNL     1       2.287  16.291  17.951  0.00  0.00    +0.000 A 
ATOM     17  C   UNL     1       1.194  16.151  18.821  0.00  0.00    +0.000 A 
ATOM     18  C   UNL     1       0.959  14.964  19.584  0.00  0.00    +0.000 A 
ATOM     19  C   UNL     1       1.800  13.806  19.525  0.00  0.00    +0.000 A 
ATOM     20  C   UNL     1       2.881  13.986  18.633  0.00  0.00    +0.000 A 
ATOM     21  C   UNL     1       3.105  15.175  17.841  0.00  0.00    +0.000 A 
BRANCH  16  23
ATOM     22  C   UNL     1       1.694  18.137  16.297  0.00  0.00    +0.000 C 
ATOM     23  C   UNL     1       2.483  17.570  17.216  0.00  0.00    +0.000 C 
ENDBRANCH  16  23
ENDBRANCH  15  19
ENDBRANCH   1  15
BRANCH   3  24
ATOM     24  C   UNL     1       1.225  10.103  18.088  0.00  0.00    +0.000 C 
BRANCH  24  25
ATOM     25  N   UNL     1       1.572   8.880  17.439  0.00  0.00    +0.000 NA
ATOM     26  H   UNL     1       1.485   8.981  16.434  0.00  0.00    +0.000 HD
BRANCH  25  27
ATOM     27  C   UNL     1       2.951   8.565  17.760  0.00  0.00    +0.000 C 
BRANCH  27  28
ATOM     28  C   UNL     1       3.142   7.145  18.177  0.00  0.00    +0.000 A 
ATOM     29  C   UNL     1       2.465   6.670  19.313  0.00  0.00    +0.000 A 
ATOM     30  C   UNL     1       2.705   5.403  19.819  0.00  0.00    +0.000 A 
ATOM     31  C   UNL     1       3.626   4.597  19.172  0.00  0.00    +0.000 A 
ATOM     32  C   UNL     1       4.289   5.054  18.026  0.00  0.00    +0.000 A 
ATOM     33  C   UNL     1       4.029   6.326  17.492  0.00  0.00    +0.000 A 
BRANCH  30  34
ATOM     34  O   UNL     1       1.960   5.091  20.918  0.00  0.00    +0.000 OA
ATOM     35  C   UNL     1       2.067   3.750  21.370  0.00  0.00    +0.000 C 
ENDBRANCH  30  34
BRANCH  33  36
ATOM     36  O   UNL     1       4.788   6.632  16.393  0.00  0.00    +0.000 OA
ATOM     37  C   UNL     1       5.561   5.599  15.786  0.00  0.00    +0.000 C 
ENDBRANCH  33  36
ENDBRANCH  27  28
ENDBRANCH  25  27
ENDBRANCH  24  25
ENDBRANCH   3  24
TORSDOF 11
ENDMDL
MODEL 9
REMARK VINA RESULT:      -7.3      3.276      8.952
REMARK  Name = 
REMARK  14 active torsions:
REMARK  status: ('A' for Active; 'I' for Inactive)
REMARK    1  A    between atoms: C_2  and  C_3
REMARK    2  A    between atoms: C_6  and  C_7
REMARK    3  A    between atoms: C_7  and  N_8
REMARK    4  A    between atoms: C_9  and  C_10
REMARK    5  A    between atoms: C_10  and  O_12
REMARK    6  A    between atoms: C_13  and  C_14
REMARK    7  A    between atoms: C_14  and  N_15
REMARK    8  A    between atoms: N_15  and  C_16
REMARK    9  A    between atoms: C_16  and  C_17
REMARK   10  A    between atoms: C_19  and  O_20
REMARK   11  A    between atoms: O_20  and  C_21
REMARK   12  A    between atoms: C_24  and  O_25
REMARK   13  A    between atoms: O_25  and  C_26
REMARK   14  A    between atoms: C_30  and  C_31
REMARK                            x       y       z     vdW  Elec       q    Type
REMARK                         _______ _______ _______ _____ _____    ______ ____
ROOT
ATOM      1  N   UNL     1       0.663   9.995  19.506  0.00  0.00    +0.000 N 
ATOM      2  C   UNL     1       0.942  11.280  19.934  0.00  0.00    +0.000 A 
ATOM      3  C   UNL     1      -0.279  11.449  20.625  0.00  0.00    +0.000 A 
ATOM      4  C   UNL     1      -1.089  11.442  19.502  0.00  0.00    +0.000 A 
ATOM      5  C   UNL     1      -2.329  12.044  19.287  0.00  0.00    +0.000 A 
ATOM      6  C   UNL     1      -3.012  11.724  18.151  0.00  0.00    +0.000 A 
ATOM      7  C   UNL     1      -2.487  10.763  17.281  0.00  0.00    +0.000 A 
ATOM      8  C   UNL     1      -3.158  10.775  15.924  0.00  0.00    +0.000 C 
ATOM      9  C   UNL     1      -1.323   9.952  17.624  0.00  0.00    +0.000 A 
ATOM     10  C   UNL     1      -0.600  10.285  18.809  0.00  0.00    +0.000 A 
ENDROOT
BRANCH   2  11
ATOM     11  C   UNL     1       1.758  12.050  18.983  0.00  0.00    +0.000 C 
ATOM     12  O   UNL     1       2.408  11.576  18.074  0.00  0.00    +0.000 OA
BRANCH  11  13
ATOM     13  O   UNL     1       1.659  13.385  19.169  0.00  0.00    +0.000 OA
ATOM     14  H   UNL     1       1.937  13.864  18.372  0.00  0.00    +0.000 HD
ENDBRANCH  11  13
ENDBRANCH   2  11
BRANCH   1  15
ATOM     15  C   UNL     1       1.423   8.860  20.156  0.00  0.00    +0.000 C 
BRANCH  15  19
ATOM     16  C   UNL     1       3.874   5.942  17.579  0.00  0.00    +0.000 A 
ATOM     17  C   UNL     1       3.551   7.251  17.189  0.00  0.00    +0.000 A 
ATOM     18  C   UNL     1       2.754   8.125  17.993  0.00  0.00    +0.000 A 
ATOM     19  C   UNL     1       2.198   7.747  19.259  0.00  0.00    +0.000 A 
ATOM     20  C   UNL     1       2.540   6.421  19.608  0.00  0.00    +0.000 A 
ATOM     21  C   UNL     1       3.324   5.529  18.784  0.00  0.00    +0.000 A 
BRANCH  16  23
ATOM     22  C   UNL     1       5.532   5.488  15.697  0.00  0.00    +0.000 C 
ATOM     23  C   UNL     1       4.737   5.105  16.702  0.00  0.00    +0.000 C 
ENDBRANCH  16  23
ENDBRANCH  15  19
ENDBRANCH   1  15
BRANCH   3  24
ATOM     24  C   UNL     1      -1.019  10.748  21.768  0.00  0.00    +0.000 C 
BRANCH  24  25
ATOM     25  N   UNL     1      -0.960  11.484  22.990  0.00  0.00    +0.000 NA
ATOM     26  H   UNL     1      -0.424  12.336  22.859  0.00  0.00    +0.000 HD
BRANCH  25  27
ATOM     27  C   UNL     1      -2.311  11.837  23.380  0.00  0.00    +0.000 C 
BRANCH  27  28
ATOM     28  C   UNL     1      -2.764  13.137  22.804  0.00  0.00    +0.000 A 
ATOM     29  C   UNL     1      -1.913  14.253  22.883  0.00  0.00    +0.000 A 
ATOM     30  C   UNL     1      -2.333  15.510  22.481  0.00  0.00    +0.000 A 
ATOM     31  C   UNL     1      -3.617  15.650  21.983  0.00  0.00    +0.000 A 
ATOM     32  C   UNL     1      -4.464  14.539  21.880  0.00  0.00    +0.000 A 
ATOM     33  C   UNL     1      -4.034  13.257  22.258  0.00  0.00    +0.000 A 
BRANCH  30  34
ATOM     34  O   UNL     1      -1.386  16.482  22.612  0.00  0.00    +0.000 OA
ATOM     35  C   UNL     1      -1.292  17.079  23.896  0.00  0.00    +0.000 C 
ENDBRANCH  30  34
BRANCH  33  36
ATOM     36  O   UNL     1      -4.995  12.290  22.130  0.00  0.00    +0.000 OA
ATOM     37  C   UNL     1      -5.883  12.350  21.016  0.00  0.00    +0.000 C 
ENDBRANCH  33  36
ENDBRANCH  27  28
ENDBRANCH  25  27
ENDBRANCH  24  25
ENDBRANCH   3  24
TORSDOF 11
ENDMDL
