MODEL 1
REMARK VINA RESULT:      -8.3      0.000      0.000
REMARK  Name = 
REMARK  6 active torsions:
REMARK  status: ('A' for Active; 'I' for Inactive)
REMARK    1  A    between atoms: C_2  and  C_10
REMARK    2  A    between atoms: N_3  and  C_4
REMARK    3  A    between atoms: C_10  and  C_11
REMARK    4  A    between atoms: C_10  and  N_16
REMARK    5  A    between atoms: N_16  and  C_24
REMARK    6  A    between atoms: C_17  and  C_19
REMARK                            x       y       z     vdW  Elec       q    Type
REMARK                         _______ _______ _______ _____ _____    ______ ____
ROOT
ATOM      1  C   UNL     1       3.379   6.015  19.205  0.00  0.00    +0.000 C 
ENDROOT
BRANCH   1   2
ATOM      2  C   UNL     1       2.399   4.993  19.737  0.00  0.00    +0.000 A 
ATOM      3  C   UNL     1       1.304   4.357  19.179  0.00  0.00    +0.000 A 
ATOM      4  C   UNL     1       0.747   3.557  20.193  0.00  0.00    +0.000 A 
ATOM      5  C   UNL     1       1.527   3.753  21.309  0.00  0.00    +0.000 A 
ATOM      6  O   UNL     1       2.542   4.616  21.041  0.00  0.00    +0.000 OA
ENDBRANCH   1   2
BRANCH   1   8
ATOM      7  O   UNL     1       2.086   7.702  17.876  0.00  0.00    +0.000 OA
ATOM      8  C   UNL     1       2.400   7.271  18.981  0.00  0.00    +0.000 C 
ATOM      9  N   UNL     1       1.834   7.754  20.158  0.00  0.00    +0.000 N 
ATOM     10  H   UNL     1       2.109   7.284  21.010  0.00  0.00    +0.000 HD
BRANCH   9  11
ATOM     11  C   UNL     1       0.618   8.581  20.295  0.00  0.00    +0.000 C 
ATOM     12  C   UNL     1      -0.237   8.406  21.563  0.00  0.00    +0.000 C 
ATOM     13  C   UNL     1      -0.176   9.515  22.618  0.00  0.00    +0.000 C 
ATOM     14  C   UNL     1      -0.048  10.922  22.053  0.00  0.00    +0.000 C 
ATOM     15  C   UNL     1       1.072  11.018  21.032  0.00  0.00    +0.000 C 
ATOM     16  C   UNL     1       0.881  10.039  19.884  0.00  0.00    +0.000 C 
ENDBRANCH   9  11
ENDBRANCH   1   8
BRANCH   1  17
ATOM     17  N   UNL     1       4.193   5.343  18.137  0.00  0.00    +0.000 N 
ATOM     18  C   UNL     1       5.081   6.158  17.403  0.00  0.00    +0.000 C 
ATOM     19  O   UNL     1       5.290   7.326  17.723  0.00  0.00    +0.000 OA
BRANCH  18  20
ATOM     20  C   UNL     1       5.825   5.602  16.254  0.00  0.00    +0.000 A 
ATOM     21  C   UNL     1       5.215   4.824  15.273  0.00  0.00    +0.000 A 
ATOM     22  S   UNL     1       6.400   4.399  14.113  0.00  0.00    +0.000 S 
ATOM     23  N   UNL     1       7.620   5.182  14.941  0.00  0.00    +0.000 NA
ATOM     24  N   UNL     1       7.202   5.736  16.065  0.00  0.00    +0.000 NA
ENDBRANCH  18  20
BRANCH  17  25
ATOM     25  C   UNL     1       4.417   3.869  18.197  0.00  0.00    +0.000 C 
ATOM     26  C   UNL     1       4.658   3.331  19.616  0.00  0.00    +0.000 C 
ATOM     27  C   UNL     1       4.640   1.813  19.442  0.00  0.00    +0.000 C 
ATOM     28  C   UNL     1       3.727   1.540  18.251  0.00  0.00    +0.000 C 
ATOM     29  C   UNL     1       3.340   2.906  17.684  0.00  0.00    +0.000 C 
ENDBRANCH  17  25
ENDBRANCH   1  17
TORSDOF 6
ENDMDL
MODEL 2
REMARK VINA RESULT:      -7.5      3.369      8.046
REMARK  Name = 
REMARK  6 active torsions:
REMARK  status: ('A' for Active; 'I' for Inactive)
REMARK    1  A    between atoms: C_2  and  C_10
REMARK    2  A    between atoms: N_3  and  C_4
REMARK    3  A    between atoms: C_10  and  C_11
REMARK    4  A    between atoms: C_10  and  N_16
REMARK    5  A    between atoms: N_16  and  C_24
REMARK    6  A    between atoms: C_17  and  C_19
REMARK                            x       y       z     vdW  Elec       q    Type
REMARK                         _______ _______ _______ _____ _____    ______ ____
ROOT
ATOM      1  C   UNL     1       5.435   4.307  16.571  0.00  0.00    +0.000 C 
ENDROOT
BRANCH   1   2
ATOM      2  C   UNL     1       6.426   5.198  17.287  0.00  0.00    +0.000 A 
ATOM      3  C   UNL     1       6.884   6.481  17.049  0.00  0.00    +0.000 A 
ATOM      4  C   UNL     1       7.858   6.747  18.027  0.00  0.00    +0.000 A 
ATOM      5  C   UNL     1       7.944   5.613  18.801  0.00  0.00    +0.000 A 
ATOM      6  O   UNL     1       7.069   4.668  18.368  0.00  0.00    +0.000 OA
ENDBRANCH   1   2
BRANCH   1   8
ATOM      7  O   UNL     1       5.932   6.022  14.813  0.00  0.00    +0.000 OA
ATOM      8  C   UNL     1       5.544   4.888  15.077  0.00  0.00    +0.000 C 
ATOM      9  N   UNL     1       5.277   3.943  14.089  0.00  0.00    +0.000 N 
ATOM     10  H   UNL     1       5.030   3.018  14.414  0.00  0.00    +0.000 HD
BRANCH   9  11
ATOM     11  C   UNL     1       5.675   3.993  12.668  0.00  0.00    +0.000 C 
ATOM     12  C   UNL     1       7.176   3.920  12.333  0.00  0.00    +0.000 C 
ATOM     13  C   UNL     1       7.707   2.611  11.741  0.00  0.00    +0.000 C 
ATOM     14  C   UNL     1       6.748   1.909  10.792  0.00  0.00    +0.000 C 
ATOM     15  C   UNL     1       5.364   1.761  11.401  0.00  0.00    +0.000 C 
ATOM     16  C   UNL     1       4.771   3.103  11.799  0.00  0.00    +0.000 C 
ENDBRANCH   9  11
ENDBRANCH   1   8
BRANCH   1  17
ATOM     17  N   UNL     1       4.185   4.268  17.402  0.00  0.00    +0.000 N 
ATOM     18  C   UNL     1       3.826   3.023  17.960  0.00  0.00    +0.000 C 
ATOM     19  O   UNL     1       4.579   2.053  17.896  0.00  0.00    +0.000 OA
BRANCH  18  20
ATOM     20  C   UNL     1       2.547   2.871  18.685  0.00  0.00    +0.000 A 
ATOM     21  C   UNL     1       2.471   2.874  20.075  0.00  0.00    +0.000 A 
ATOM     22  S   UNL     1       0.826   2.701  20.520  0.00  0.00    +0.000 S 
ATOM     23  N   UNL     1       0.317   2.585  18.935  0.00  0.00    +0.000 NA
ATOM     24  N   UNL     1       1.314   2.647  18.071  0.00  0.00    +0.000 NA
ENDBRANCH  18  20
BRANCH  17  25
ATOM     25  C   UNL     1       3.659   5.529  18.004  0.00  0.00    +0.000 C 
ATOM     26  C   UNL     1       2.193   5.825  17.651  0.00  0.00    +0.000 C 
ATOM     27  C   UNL     1       1.833   7.015  18.539  0.00  0.00    +0.000 C 
ATOM     28  C   UNL     1       2.713   6.891  19.781  0.00  0.00    +0.000 C 
ATOM     29  C   UNL     1       3.649   5.709  19.527  0.00  0.00    +0.000 C 
ENDBRANCH  17  25
ENDBRANCH   1  17
TORSDOF 6
ENDMDL
MODEL 3
REMARK VINA RESULT:      -7.3      0.795      1.024
REMARK  Name = 
REMARK  6 active torsions:
REMARK  status: ('A' for Active; 'I' for Inactive)
REMARK    1  A    between atoms: C_2  and  C_10
REMARK    2  A    between atoms: N_3  and  C_4
REMARK    3  A    between atoms: C_10  and  C_11
REMARK    4  A    between atoms: C_10  and  N_16
REMARK    5  A    between atoms: N_16  and  C_24
REMARK    6  A    between atoms: C_17  and  C_19
REMARK                            x       y       z     vdW  Elec       q    Type
REMARK                         _______ _______ _______ _____ _____    ______ ____
ROOT
ATOM      1  C   UNL     1       3.461   6.263  19.221  0.00  0.00    +0.000 C 
ENDROOT
BRANCH   1   2
ATOM      2  C   UNL     1       2.696   5.224  20.011  0.00  0.00    +0.000 A 
ATOM      3  C   UNL     1       3.074   4.300  20.969  0.00  0.00    +0.000 A 
ATOM      4  C   UNL     1       1.922   3.560  21.288  0.00  0.00    +0.000 A 
ATOM      5  C   UNL     1       0.911   4.067  20.506  0.00  0.00    +0.000 A 
ATOM      6  O   UNL     1       1.366   5.087  19.733  0.00  0.00    +0.000 OA
ENDBRANCH   1   2
BRANCH   1   8
ATOM      7  O   UNL     1       1.873   7.751  17.976  0.00  0.00    +0.000 OA
ATOM      8  C   UNL     1       2.333   7.396  19.058  0.00  0.00    +0.000 C 
ATOM      9  N   UNL     1       1.827   7.860  20.270  0.00  0.00    +0.000 N 
ATOM     10  H   UNL     1       2.230   7.454  21.104  0.00  0.00    +0.000 HD
BRANCH   9  11
ATOM     11  C   UNL     1       0.545   8.556  20.500  0.00  0.00    +0.000 C 
ATOM     12  C   UNL     1      -0.197   8.287  21.821  0.00  0.00    +0.000 C 
ATOM     13  C   UNL     1      -0.177   9.391  22.883  0.00  0.00    +0.000 C 
ATOM     14  C   UNL     1      -0.234  10.806  22.328  0.00  0.00    +0.000 C 
ATOM     15  C   UNL     1       0.796  11.023  21.234  0.00  0.00    +0.000 C 
ATOM     16  C   UNL     1       0.628  10.035  20.089  0.00  0.00    +0.000 C 
ENDBRANCH   9  11
ENDBRANCH   1   8
BRANCH   1  17
ATOM     17  N   UNL     1       4.150   5.550  18.093  0.00  0.00    +0.000 N 
ATOM     18  C   UNL     1       5.441   6.001  17.747  0.00  0.00    +0.000 C 
ATOM     19  O   UNL     1       6.034   6.832  18.432  0.00  0.00    +0.000 OA
BRANCH  18  20
ATOM     20  C   UNL     1       6.136   5.438  16.570  0.00  0.00    +0.000 A 
ATOM     21  C   UNL     1       5.570   5.435  15.298  0.00  0.00    +0.000 A 
ATOM     22  S   UNL     1       6.691   4.725  14.215  0.00  0.00    +0.000 S 
ATOM     23  N   UNL     1       7.802   4.423  15.424  0.00  0.00    +0.000 NA
ATOM     24  N   UNL     1       7.379   4.804  16.616  0.00  0.00    +0.000 NA
ENDBRANCH  18  20
BRANCH  17  25
ATOM     25  C   UNL     1       3.721   4.170  17.720  0.00  0.00    +0.000 C 
ATOM     26  C   UNL     1       4.170   3.087  18.713  0.00  0.00    +0.000 C 
ATOM     27  C   UNL     1       3.442   1.829  18.240  0.00  0.00    +0.000 C 
ATOM     28  C   UNL     1       2.157   2.316  17.575  0.00  0.00    +0.000 C 
ATOM     29  C   UNL     1       2.231   3.843  17.563  0.00  0.00    +0.000 C 
ENDBRANCH  17  25
ENDBRANCH   1  17
TORSDOF 6
ENDMDL
MODEL 4
REMARK VINA RESULT:      -7.3      1.987      3.449
REMARK  Name = 
REMARK  6 active torsions:
REMARK  status: ('A' for Active; 'I' for Inactive)
REMARK    1  A    between atoms: C_2  and  C_10
REMARK    2  A    between atoms: N_3  and  C_4
REMARK    3  A    between atoms: C_10  and  C_11
REMARK    4  A    between atoms: C_10  and  N_16
REMARK    5  A    between atoms: N_16  and  C_24
REMARK    6  A    between atoms: C_17  and  C_19
REMARK                            x       y       z     vdW  Elec       q    Type
REMARK                         _______ _______ _______ _____ _____    ______ ____
ROOT
ATOM      1  C   UNL     1       4.608   5.044  18.378  0.00  0.00    +0.000 C 
ENDROOT
BRANCH   1   2
ATOM      2  C   UNL     1       4.440   3.572  18.679  0.00  0.00    +0.000 A 
ATOM      3  C   UNL     1       3.820   2.535  18.005  0.00  0.00    +0.000 A 
ATOM      4  C   UNL     1       3.939   1.397  18.821  0.00  0.00    +0.000 A 
ATOM      5  C   UNL     1       4.617   1.802  19.947  0.00  0.00    +0.000 A 
ATOM      6  O   UNL     1       4.938   3.121  19.868  0.00  0.00    +0.000 OA
ENDBRANCH   1   2
BRANCH   1   8
ATOM      7  O   UNL     1       2.121   4.728  18.374  0.00  0.00    +0.000 OA
ATOM      8  C   UNL     1       3.070   5.503  18.291  0.00  0.00    +0.000 C 
ATOM      9  N   UNL     1       2.901   6.884  18.237  0.00  0.00    +0.000 N 
ATOM     10  H   UNL     1       3.748   7.436  18.240  0.00  0.00    +0.000 HD
BRANCH   9  11
ATOM     11  C   UNL     1       1.683   7.653  18.564  0.00  0.00    +0.000 C 
ATOM     12  C   UNL     1       1.371   7.917  20.048  0.00  0.00    +0.000 C 
ATOM     13  C   UNL     1       1.598   9.337  20.578  0.00  0.00    +0.000 C 
ATOM     14  C   UNL     1       1.267  10.444  19.589  0.00  0.00    +0.000 C 
ATOM     15  C   UNL     1       1.923  10.207  18.240  0.00  0.00    +0.000 C 
ATOM     16  C   UNL     1       1.521   8.869  17.638  0.00  0.00    +0.000 C 
ENDBRANCH   9  11
ENDBRANCH   1   8
BRANCH   1  17
ATOM     17  N   UNL     1       5.617   5.163  17.273  0.00  0.00    +0.000 N 
ATOM     18  C   UNL     1       5.194   4.793  15.978  0.00  0.00    +0.000 C 
ATOM     19  O   UNL     1       4.017   4.533  15.740  0.00  0.00    +0.000 OA
BRANCH  18  20
ATOM     20  C   UNL     1       6.159   4.762  14.860  0.00  0.00    +0.000 A 
ATOM     21  C   UNL     1       5.994   3.933  13.753  0.00  0.00    +0.000 A 
ATOM     22  S   UNL     1       7.299   4.208  12.679  0.00  0.00    +0.000 S 
ATOM     23  N   UNL     1       8.017   5.320  13.696  0.00  0.00    +0.000 NA
ATOM     24  N   UNL     1       7.348   5.492  14.821  0.00  0.00    +0.000 NA
ENDBRANCH  18  20
BRANCH  17  25
ATOM     25  C   UNL     1       6.790   6.072  17.438  0.00  0.00    +0.000 C 
ATOM     26  C   UNL     1       6.454   7.562  17.268  0.00  0.00    +0.000 C 
ATOM     27  C   UNL     1       7.736   8.279  17.690  0.00  0.00    +0.000 C 
ATOM     28  C   UNL     1       8.411   7.363  18.707  0.00  0.00    +0.000 C 
ATOM     29  C   UNL     1       7.574   6.084  18.755  0.00  0.00    +0.000 C 
ENDBRANCH  17  25
ENDBRANCH   1  17
TORSDOF 6
ENDMDL
MODEL 5
REMARK VINA RESULT:      -7.3      5.984      8.208
REMARK  Name = 
REMARK  6 active torsions:
REMARK  status: ('A' for Active; 'I' for Inactive)
REMARK    1  A    between atoms: C_2  and  C_10
REMARK    2  A    between atoms: N_3  and  C_4
REMARK    3  A    between atoms: C_10  and  C_11
REMARK    4  A    between atoms: C_10  and  N_16
REMARK    5  A    between atoms: N_16  and  C_24
REMARK    6  A    between atoms: C_17  and  C_19
REMARK                            x       y       z     vdW  Elec       q    Type
REMARK                         _______ _______ _______ _____ _____    ______ ____
ROOT
ATOM      1  C   UNL     1      -1.881  11.218  19.456  0.00  0.00    +0.000 C 
ENDROOT
BRANCH   1   2
ATOM      2  C   UNL     1      -2.364  10.814  18.081  0.00  0.00    +0.000 A 
ATOM      3  C   UNL     1      -3.015   9.691  17.602  0.00  0.00    +0.000 A 
ATOM      4  C   UNL     1      -3.140   9.863  16.212  0.00  0.00    +0.000 A 
ATOM      5  C   UNL     1      -2.556  11.074  15.921  0.00  0.00    +0.000 A 
ATOM      6  O   UNL     1      -2.090  11.667  17.052  0.00  0.00    +0.000 OA
ENDBRANCH   1   2
BRANCH   1   8
ATOM      7  O   UNL     1      -4.029  12.483  19.196  0.00  0.00    +0.000 OA
ATOM      8  C   UNL     1      -3.064  12.209  19.905  0.00  0.00    +0.000 C 
ATOM      9  N   UNL     1      -2.963  12.638  21.226  0.00  0.00    +0.000 N 
ATOM     10  H   UNL     1      -2.163  12.301  21.743  0.00  0.00    +0.000 HD
BRANCH   9  11
ATOM     11  C   UNL     1      -4.040  13.186  22.076  0.00  0.00    +0.000 C 
ATOM     12  C   UNL     1      -4.088  12.752  23.552  0.00  0.00    +0.000 C 
ATOM     13  C   UNL     1      -3.652  13.775  24.606  0.00  0.00    +0.000 C 
ATOM     14  C   UNL     1      -4.034  15.213  24.290  0.00  0.00    +0.000 C 
ATOM     15  C   UNL     1      -3.624  15.607  22.882  0.00  0.00    +0.000 C 
ATOM     16  C   UNL     1      -4.236  14.691  21.833  0.00  0.00    +0.000 C 
ENDBRANCH   9  11
ENDBRANCH   1   8
BRANCH   1  17
ATOM     17  N   UNL     1      -0.432  11.591  19.330  0.00  0.00    +0.000 N 
ATOM     18  C   UNL     1      -0.117  12.964  19.402  0.00  0.00    +0.000 C 
ATOM     19  O   UNL     1      -0.965  13.800  19.705  0.00  0.00    +0.000 OA
BRANCH  18  20
ATOM     20  C   UNL     1       1.267  13.425  19.162  0.00  0.00    +0.000 A 
ATOM     21  C   UNL     1       1.992  14.141  20.112  0.00  0.00    +0.000 A 
ATOM     22  S   UNL     1       3.545  14.463  19.467  0.00  0.00    +0.000 S 
ATOM     23  N   UNL     1       3.194  13.721  18.014  0.00  0.00    +0.000 NA
ATOM     24  N   UNL     1       1.959  13.255  17.962  0.00  0.00    +0.000 NA
ENDBRANCH  18  20
BRANCH  17  25
ATOM     25  C   UNL     1       0.621  10.573  19.620  0.00  0.00    +0.000 C 
ATOM     26  C   UNL     1       0.209   9.531  20.671  0.00  0.00    +0.000 C 
ATOM     27  C   UNL     1       1.338   8.501  20.630  0.00  0.00    +0.000 C 
ATOM     28  C   UNL     1       1.888   8.541  19.207  0.00  0.00    +0.000 C 
ATOM     29  C   UNL     1       1.156   9.678  18.495  0.00  0.00    +0.000 C 
ENDBRANCH  17  25
ENDBRANCH   1  17
TORSDOF 6
ENDMDL
MODEL 6
REMARK VINA RESULT:      -7.1      8.199     11.124
REMARK  Name = 
REMARK  6 active torsions:
REMARK  status: ('A' for Active; 'I' for Inactive)
REMARK    1  A    between atoms: C_2  and  C_10
REMARK    2  A    between atoms: N_3  and  C_4
REMARK    3  A    between atoms: C_10  and  C_11
REMARK    4  A    between atoms: C_10  and  N_16
REMARK    5  A    between atoms: N_16  and  C_24
REMARK    6  A    between atoms: C_17  and  C_19
REMARK                            x       y       z     vdW  Elec       q    Type
REMARK                         _______ _______ _______ _____ _____    ______ ____
ROOT
ATOM      1  C   UNL     1      -2.849  14.303  20.572  0.00  0.00    +0.000 C 
ENDROOT
BRANCH   1   2
ATOM      2  C   UNL     1      -3.510  14.563  21.907  0.00  0.00    +0.000 A 
ATOM      3  C   UNL     1      -3.148  14.276  23.211  0.00  0.00    +0.000 A 
ATOM      4  C   UNL     1      -4.208  14.708  24.026  0.00  0.00    +0.000 A 
ATOM      5  C   UNL     1      -5.158  15.227  23.177  0.00  0.00    +0.000 A 
ATOM      6  O   UNL     1      -4.740  15.156  21.886  0.00  0.00    +0.000 OA
ENDBRANCH   1   2
BRANCH   1   8
ATOM      7  O   UNL     1      -4.160  12.209  20.993  0.00  0.00    +0.000 OA
ATOM      8  C   UNL     1      -3.383  12.819  20.263  0.00  0.00    +0.000 C 
ATOM      9  N   UNL     1      -2.983  12.328  19.023  0.00  0.00    +0.000 N 
ATOM     10  H   UNL     1      -2.396  12.938  18.471  0.00  0.00    +0.000 HD
BRANCH   9  11
ATOM     11  C   UNL     1      -3.600  11.229  18.252  0.00  0.00    +0.000 C 
ATOM     12  C   UNL     1      -4.324  11.583  16.941  0.00  0.00    +0.000 C 
ATOM     13  C   UNL     1      -3.629  11.218  15.626  0.00  0.00    +0.000 C 
ATOM     14  C   UNL     1      -2.852   9.910  15.661  0.00  0.00    +0.000 C 
ATOM     15  C   UNL     1      -1.921   9.842  16.858  0.00  0.00    +0.000 C 
ATOM     16  C   UNL     1      -2.669  10.008  18.172  0.00  0.00    +0.000 C 
ENDBRANCH   9  11
ENDBRANCH   1   8
BRANCH   1  17
ATOM     17  N   UNL     1      -1.407  14.701  20.701  0.00  0.00    +0.000 N 
ATOM     18  C   UNL     1      -0.491  13.684  21.043  0.00  0.00    +0.000 C 
ATOM     19  O   UNL     1      -0.832  12.504  21.084  0.00  0.00    +0.000 OA
BRANCH  18  20
ATOM     20  C   UNL     1       0.924  14.015  21.312  0.00  0.00    +0.000 A 
ATOM     21  C   UNL     1       1.966  13.551  20.512  0.00  0.00    +0.000 A 
ATOM     22  S   UNL     1       3.435  14.170  21.136  0.00  0.00    +0.000 S 
ATOM     23  N   UNL     1       2.674  14.946  22.403  0.00  0.00    +0.000 NA
ATOM     24  N   UNL     1       1.367  14.756  22.409  0.00  0.00    +0.000 NA
ENDBRANCH  18  20
BRANCH  17  25
ATOM     25  C   UNL     1      -0.919  15.941  20.027  0.00  0.00    +0.000 C 
ATOM     26  C   UNL     1      -0.387  15.711  18.604  0.00  0.00    +0.000 C 
ATOM     27  C   UNL     1      -0.161  17.121  18.062  0.00  0.00    +0.000 C 
ATOM     28  C   UNL     1      -1.173  18.011  18.780  0.00  0.00    +0.000 C 
ATOM     29  C   UNL     1      -1.872  17.123  19.810  0.00  0.00    +0.000 C 
ENDBRANCH  17  25
ENDBRANCH   1  17
TORSDOF 6
ENDMDL
MODEL 7
REMARK VINA RESULT:      -7.1      6.284      9.430
REMARK  Name = 
REMARK  6 active torsions:
REMARK  status: ('A' for Active; 'I' for Inactive)
REMARK    1  A    between atoms: C_2  and  C_10
REMARK    2  A    between atoms: N_3  and  C_4
REMARK    3  A    between atoms: C_10  and  C_11
REMARK    4  A    between atoms: C_10  and  N_16
REMARK    5  A    between atoms: N_16  and  C_24
REMARK    6  A    between atoms: C_17  and  C_19
REMARK                            x       y       z     vdW  Elec       q    Type
REMARK                         _______ _______ _______ _____ _____    ______ ____
ROOT
ATOM      1  C   UNL     1      -0.110  11.328  19.452  0.00  0.00    +0.000 C 
ENDROOT
BRANCH   1   2
ATOM      2  C   UNL     1       0.194  10.036  20.177  0.00  0.00    +0.000 A 
ATOM      3  C   UNL     1      -0.372   9.415  21.277  0.00  0.00    +0.000 A 
ATOM      4  C   UNL     1       0.391   8.260  21.522  0.00  0.00    +0.000 A 
ATOM      5  C   UNL     1       1.379   8.243  20.566  0.00  0.00    +0.000 A 
ATOM      6  O   UNL     1       1.263   9.312  19.734  0.00  0.00    +0.000 OA
ENDBRANCH   1   2
BRANCH   1   8
ATOM      7  O   UNL     1       1.490  12.100  21.220  0.00  0.00    +0.000 OA
ATOM      8  C   UNL     1       0.976  12.304  20.124  0.00  0.00    +0.000 C 
ATOM      9  N   UNL     1       1.381  13.345  19.293  0.00  0.00    +0.000 N 
ATOM     10  H   UNL     1       0.943  13.384  18.382  0.00  0.00    +0.000 HD
BRANCH   9  11
ATOM     11  C   UNL     1       2.615  14.151  19.400  0.00  0.00    +0.000 C 
ATOM     12  C   UNL     1       3.549  14.210  18.178  0.00  0.00    +0.000 C 
ATOM     13  C   UNL     1       3.572  15.509  17.366  0.00  0.00    +0.000 C 
ATOM     14  C   UNL     1       3.426  16.777  18.193  0.00  0.00    +0.000 C 
ATOM     15  C   UNL     1       2.243  16.697  19.141  0.00  0.00    +0.000 C 
ATOM     16  C   UNL     1       2.345  15.504  20.079  0.00  0.00    +0.000 C 
ENDBRANCH   9  11
ENDBRANCH   1   8
BRANCH   1  17
ATOM     17  N   UNL     1      -1.598  11.523  19.488  0.00  0.00    +0.000 N 
ATOM     18  C   UNL     1      -2.097  12.467  20.411  0.00  0.00    +0.000 C 
ATOM     19  O   UNL     1      -1.342  13.201  21.045  0.00  0.00    +0.000 OA
BRANCH  18  20
ATOM     20  C   UNL     1      -3.554  12.628  20.598  0.00  0.00    +0.000 A 
ATOM     21  C   UNL     1      -4.143  12.695  21.859  0.00  0.00    +0.000 A 
ATOM     22  S   UNL     1      -5.829  12.907  21.650  0.00  0.00    +0.000 S 
ATOM     23  N   UNL     1      -5.720  12.855  19.985  0.00  0.00    +0.000 NA
ATOM     24  N   UNL     1      -4.484  12.664  19.559  0.00  0.00    +0.000 NA
ENDBRANCH  18  20
BRANCH  17  25
ATOM     25  C   UNL     1      -2.423  11.135  18.306  0.00  0.00    +0.000 C 
ATOM     26  C   UNL     1      -1.940  11.743  16.981  0.00  0.00    +0.000 C 
ATOM     27  C   UNL     1      -2.788  11.040  15.922  0.00  0.00    +0.000 C 
ATOM     28  C   UNL     1      -3.126   9.669  16.500  0.00  0.00    +0.000 C 
ATOM     29  C   UNL     1      -2.577   9.657  17.927  0.00  0.00    +0.000 C 
ENDBRANCH  17  25
ENDBRANCH   1  17
TORSDOF 6
ENDMDL
MODEL 8
REMARK VINA RESULT:      -7.1      7.884     10.390
REMARK  Name = 
REMARK  6 active torsions:
REMARK  status: ('A' for Active; 'I' for Inactive)
REMARK    1  A    between atoms: C_2  and  C_10
REMARK    2  A    between atoms: N_3  and  C_4
REMARK    3  A    between atoms: C_10  and  C_11
REMARK    4  A    between atoms: C_10  and  N_16
REMARK    5  A    between atoms: N_16  and  C_24
REMARK    6  A    between atoms: C_17  and  C_19
REMARK                            x       y       z     vdW  Elec       q    Type
REMARK                         _______ _______ _______ _____ _____    ______ ____
ROOT
ATOM      1  C   UNL     1      -1.346  12.539  19.487  0.00  0.00    +0.000 C 
ENDROOT
BRANCH   1   2
ATOM      2  C   UNL     1      -0.799  11.533  20.475  0.00  0.00    +0.000 A 
ATOM      3  C   UNL     1       0.162  10.541  20.379  0.00  0.00    +0.000 A 
ATOM      4  C   UNL     1       0.186   9.885  21.621  0.00  0.00    +0.000 A 
ATOM      5  C   UNL     1      -0.761  10.505  22.402  0.00  0.00    +0.000 A 
ATOM      6  O   UNL     1      -1.359  11.518  21.720  0.00  0.00    +0.000 OA
ENDBRANCH   1   2
BRANCH   1   8
ATOM      7  O   UNL     1      -0.320  13.976  21.266  0.00  0.00    +0.000 OA
ATOM      8  C   UNL     1      -0.855  13.912  20.163  0.00  0.00    +0.000 C 
ATOM      9  N   UNL     1      -0.976  15.020  19.328  0.00  0.00    +0.000 N 
ATOM     10  H   UNL     1      -1.369  14.847  18.413  0.00  0.00    +0.000 HD
BRANCH   9  11
ATOM     11  C   UNL     1      -0.267  16.311  19.442  0.00  0.00    +0.000 C 
ATOM     12  C   UNL     1       1.262  16.314  19.273  0.00  0.00    +0.000 C 
ATOM     13  C   UNL     1       1.830  16.882  17.969  0.00  0.00    +0.000 C 
ATOM     14  C   UNL     1       1.066  18.072  17.409  0.00  0.00    +0.000 C 
ATOM     15  C   UNL     1      -0.425  17.795  17.330  0.00  0.00    +0.000 C 
ATOM     16  C   UNL     1      -1.008  17.427  18.686  0.00  0.00    +0.000 C 
ENDBRANCH   9  11
ENDBRANCH   1   8
BRANCH   1  17
ATOM     17  N   UNL     1      -2.774  12.165  19.211  0.00  0.00    +0.000 N 
ATOM     18  C   UNL     1      -3.769  12.892  19.898  0.00  0.00    +0.000 C 
ATOM     19  O   UNL     1      -3.488  13.882  20.570  0.00  0.00    +0.000 OA
BRANCH  18  20
ATOM     20  C   UNL     1      -5.190  12.505  19.779  0.00  0.00    +0.000 A 
ATOM     21  C   UNL     1      -5.876  11.854  20.802  0.00  0.00    +0.000 A 
ATOM     22  S   UNL     1      -7.491  11.605  20.289  0.00  0.00    +0.000 S 
ATOM     23  N   UNL     1      -7.215  12.291  18.792  0.00  0.00    +0.000 NA
ATOM     24  N   UNL     1      -5.965  12.685  18.632  0.00  0.00    +0.000 NA
ENDBRANCH  18  20
BRANCH  17  25
ATOM     25  C   UNL     1      -3.118  11.446  17.949  0.00  0.00    +0.000 C 
ATOM     26  C   UNL     1      -2.115  11.672  16.808  0.00  0.00    +0.000 C 
ATOM     27  C   UNL     1      -2.556  10.685  15.728  0.00  0.00    +0.000 C 
ATOM     28  C   UNL     1      -3.210   9.521  16.469  0.00  0.00    +0.000 C 
ATOM     29  C   UNL     1      -3.248   9.918  17.945  0.00  0.00    +0.000 C 
ENDBRANCH  17  25
ENDBRANCH   1  17
TORSDOF 6
ENDMDL
MODEL 9
REMARK VINA RESULT:      -7.0      7.240     10.127
REMARK  Name = 
REMARK  6 active torsions:
REMARK  status: ('A' for Active; 'I' for Inactive)
REMARK    1  A    between atoms: C_2  and  C_10
REMARK    2  A    between atoms: N_3  and  C_4
REMARK    3  A    between atoms: C_10  and  C_11
REMARK    4  A    between atoms: C_10  and  N_16
REMARK    5  A    between atoms: N_16  and  C_24
REMARK    6  A    between atoms: C_17  and  C_19
REMARK                            x       y       z     vdW  Elec       q    Type
REMARK                         _______ _______ _______ _____ _____    ______ ____
ROOT
ATOM      1  C   UNL     1      -0.696  11.873  20.065  0.00  0.00    +0.000 C 
ENDROOT
BRANCH   1   2
ATOM      2  C   UNL     1      -0.528  10.722  21.032  0.00  0.00    +0.000 A 
ATOM      3  C   UNL     1      -0.749  10.592  22.392  0.00  0.00    +0.000 A 
ATOM      4  C   UNL     1      -0.344   9.292  22.741  0.00  0.00    +0.000 A 
ATOM      5  C   UNL     1       0.105   8.705  21.581  0.00  0.00    +0.000 A 
ATOM      6  O   UNL     1      -0.013   9.561  20.532  0.00  0.00    +0.000 OA
ENDBRANCH   1   2
BRANCH   1   8
ATOM      7  O   UNL     1       1.163  12.635  21.564  0.00  0.00    +0.000 OA
ATOM      8  C   UNL     1       0.402  12.898  20.637  0.00  0.00    +0.000 C 
ATOM      9  N   UNL     1       0.501  14.078  19.903  0.00  0.00    +0.000 N 
ATOM     10  H   UNL     1      -0.129  14.167  19.118  0.00  0.00    +0.000 HD
BRANCH   9  11
ATOM     11  C   UNL     1       1.635  15.024  19.874  0.00  0.00    +0.000 C 
ATOM     12  C   UNL     1       2.912  14.599  19.128  0.00  0.00    +0.000 C 
ATOM     13  C   UNL     1       3.197  15.259  17.775  0.00  0.00    +0.000 C 
ATOM     14  C   UNL     1       2.793  16.723  17.687  0.00  0.00    +0.000 C 
ATOM     15  C   UNL     1       1.368  16.943  18.161  0.00  0.00    +0.000 C 
ATOM     16  C   UNL     1       1.162  16.458  19.589  0.00  0.00    +0.000 C 
ENDBRANCH   9  11
ENDBRANCH   1   8
BRANCH   1  17
ATOM     17  N   UNL     1      -2.167  12.148  19.946  0.00  0.00    +0.000 N 
ATOM     18  C   UNL     1      -2.737  13.005  20.911  0.00  0.00    +0.000 C 
ATOM     19  O   UNL     1      -2.039  13.616  21.716  0.00  0.00    +0.000 OA
BRANCH  18  20
ATOM     20  C   UNL     1      -4.198  13.227  20.940  0.00  0.00    +0.000 A 
ATOM     21  C   UNL     1      -4.788  14.389  20.449  0.00  0.00    +0.000 A 
ATOM     22  S   UNL     1      -6.484  14.250  20.640  0.00  0.00    +0.000 S 
ATOM     23  N   UNL     1      -6.368  12.754  21.372  0.00  0.00    +0.000 NA
ATOM     24  N   UNL     1      -5.120  12.346  21.509  0.00  0.00    +0.000 NA
ENDBRANCH  18  20
BRANCH  17  25
ATOM     25  C   UNL     1      -2.852  11.948  18.635  0.00  0.00    +0.000 C 
ATOM     26  C   UNL     1      -1.901  11.591  17.482  0.00  0.00    +0.000 C 
ATOM     27  C   UNL     1      -2.838  11.230  16.330  0.00  0.00    +0.000 C 
ATOM     28  C   UNL     1      -4.109  10.689  16.979  0.00  0.00    +0.000 C 
ATOM     29  C   UNL     1      -3.930  10.868  18.487  0.00  0.00    +0.000 C 
ENDBRANCH  17  25
ENDBRANCH   1  17
TORSDOF 6
ENDMDL
