MODEL 1
REMARK VINA RESULT:      -6.5      0.000      0.000
REMARK  Name = 
REMARK  11 active torsions:
REMARK  status: ('A' for Active; 'I' for Inactive)
REMARK    1  A    between atoms: C_1  and  O_2
REMARK    2  A    between atoms: O_2  and  C_3
REMARK    3  A    between atoms: C_7  and  C_8
REMARK    4  A    between atoms: C_8  and  C_10
REMARK    5  A    between atoms: C_10  and  C_11
REMARK    6  A    between atoms: C_10  and  C_12
REMARK    7  A    between atoms: C_10  and  C_13
REMARK    8  A    between atoms: C_14  and  C_15
REMARK    9  A    between atoms: C_15  and  O_16
REMARK   10  A    between atoms: O_16  and  C_17
REMARK   11  A    between atoms: C_17  and  C_18
REMARK                            x       y       z     vdW  Elec       q    Type
REMARK                         _______ _______ _______ _____ _____    ______ ____
ROOT
ATOM      1  C   UNL     1       5.532   4.229  16.168  0.00  0.00    +0.000 C 
ATOM      2  C   UNL     1       4.560   3.304  16.975  0.00  0.00    +0.000 C 
ATOM      3  O   UNL     1       3.784   2.426  16.731  0.00  0.00    +0.000 OA
ATOM      4  N   UNL     1       4.823   4.018  18.136  0.00  0.00    +0.000 N 
ATOM      5  C   UNL     1       3.853   4.977  18.446  0.00  0.00    +0.000 C 
ATOM      6  C   UNL     1       4.050   6.311  18.204  0.00  0.00    +0.000 C 
ATOM      7  C   UNL     1       5.399   6.950  17.953  0.00  0.00    +0.000 C 
ATOM      8  S   UNL     1       6.740   5.860  18.235  0.00  0.00    +0.000 S 
ATOM      9  O   UNL     1       6.885   5.719  19.674  0.00  0.00    +0.000 OA
ATOM     10  O   UNL     1       7.860   6.354  17.455  0.00  0.00    +0.000 OA
ATOM     11  C   UNL     1       6.178   4.355  17.559  0.00  0.00    +0.000 C 
ENDROOT
BRANCH   1  13
ATOM     12  C   UNL     1       5.817   3.954  13.788  0.00  0.00    +0.000 C 
ATOM     13  O   UNL     1       6.204   3.532  15.096  0.00  0.00    +0.000 OA
ENDBRANCH   1  13
BRANCH   5  14
ATOM     14  C   UNL     1       2.454   4.382  18.774  0.00  0.00    +0.000 C 
ATOM     15  O   UNL     1       1.571   4.451  17.910  0.00  0.00    +0.000 OA
BRANCH  14  16
ATOM     16  C   UNL     1       2.119   3.712  20.160  0.00  0.00    +0.000 C 
ATOM     17  C   UNL     1       3.098   2.642  20.670  0.00  0.00    +0.000 C 
ATOM     18  C   UNL     1       2.071   4.824  21.232  0.00  0.00    +0.000 C 
ATOM     19  C   UNL     1       0.690   3.125  20.111  0.00  0.00    +0.000 C 
ENDBRANCH  14  16
ENDBRANCH   5  14
BRANCH   6  20
ATOM     20  C   UNL     1       2.921   7.311  17.941  0.00  0.00    +0.000 C 
BRANCH  20  21
ATOM     21  O   UNL     1       2.239   7.724  19.155  0.00  0.00    +0.000 OA
BRANCH  21  22
ATOM     22  C   UNL     1       1.570   8.914  19.120  0.00  0.00    +0.000 C 
ATOM     23  C   UNL     1       1.793   9.631  17.824  0.00  0.00    +0.000 C 
ATOM     24  O   UNL     1       0.881   9.356  20.032  0.00  0.00    +0.000 OA
ENDBRANCH  21  22
ENDBRANCH  20  21
ENDBRANCH   6  20
TORSDOF 6
ENDMDL
MODEL 2
REMARK VINA RESULT:      -6.4      1.300      1.666
REMARK  Name = 
REMARK  11 active torsions:
REMARK  status: ('A' for Active; 'I' for Inactive)
REMARK    1  A    between atoms: C_1  and  O_2
REMARK    2  A    between atoms: O_2  and  C_3
REMARK    3  A    between atoms: C_7  and  C_8
REMARK    4  A    between atoms: C_8  and  C_10
REMARK    5  A    between atoms: C_10  and  C_11
REMARK    6  A    between atoms: C_10  and  C_12
REMARK    7  A    between atoms: C_10  and  C_13
REMARK    8  A    between atoms: C_14  and  C_15
REMARK    9  A    between atoms: C_15  and  O_16
REMARK   10  A    between atoms: O_16  and  C_17
REMARK   11  A    between atoms: C_17  and  C_18
REMARK                            x       y       z     vdW  Elec       q    Type
REMARK                         _______ _______ _______ _____ _____    ______ ____
ROOT
ATOM      1  C   UNL     1       5.023   4.507  16.024  0.00  0.00    +0.000 C 
ATOM      2  C   UNL     1       4.659   3.329  16.988  0.00  0.00    +0.000 C 
ATOM      3  O   UNL     1       4.035   2.309  16.926  0.00  0.00    +0.000 OA
ATOM      4  N   UNL     1       5.224   4.010  18.056  0.00  0.00    +0.000 N 
ATOM      5  C   UNL     1       4.297   4.689  18.853  0.00  0.00    +0.000 C 
ATOM      6  C   UNL     1       4.118   6.044  18.762  0.00  0.00    +0.000 C 
ATOM      7  C   UNL     1       5.101   7.000  18.118  0.00  0.00    +0.000 C 
ATOM      8  S   UNL     1       6.624   6.244  17.701  0.00  0.00    +0.000 S 
ATOM      9  O   UNL     1       7.361   6.051  18.938  0.00  0.00    +0.000 OA
ATOM     10  O   UNL     1       7.215   7.039  16.640  0.00  0.00    +0.000 OA
ATOM     11  C   UNL     1       6.139   4.695  17.068  0.00  0.00    +0.000 C 
ENDROOT
BRANCH   1  13
ATOM     12  C   UNL     1       6.626   4.427  14.222  0.00  0.00    +0.000 C 
ATOM     13  O   UNL     1       5.326   4.059  14.684  0.00  0.00    +0.000 OA
ENDBRANCH   1  13
BRANCH   5  14
ATOM     14  C   UNL     1       3.293   3.759  19.592  0.00  0.00    +0.000 C 
ATOM     15  O   UNL     1       3.703   3.105  20.558  0.00  0.00    +0.000 OA
BRANCH  14  16
ATOM     16  C   UNL     1       1.788   3.611  19.148  0.00  0.00    +0.000 C 
ATOM     17  C   UNL     1       1.404   4.203  17.782  0.00  0.00    +0.000 C 
ATOM     18  C   UNL     1       1.449   2.104  19.096  0.00  0.00    +0.000 C 
ATOM     19  C   UNL     1       0.872   4.202  20.245  0.00  0.00    +0.000 C 
ENDBRANCH  14  16
ENDBRANCH   5  14
BRANCH   6  20
ATOM     20  C   UNL     1       2.809   6.762  19.101  0.00  0.00    +0.000 C 
BRANCH  20  21
ATOM     21  O   UNL     1       2.280   7.527  17.986  0.00  0.00    +0.000 OA
BRANCH  21  22
ATOM     22  C   UNL     1       1.915   8.820  18.233  0.00  0.00    +0.000 C 
ATOM     23  C   UNL     1       1.291   8.963  19.587  0.00  0.00    +0.000 C 
ATOM     24  O   UNL     1       2.063   9.750  17.450  0.00  0.00    +0.000 OA
ENDBRANCH  21  22
ENDBRANCH  20  21
ENDBRANCH   6  20
TORSDOF 6
ENDMDL
MODEL 3
REMARK VINA RESULT:      -6.4      0.514      1.020
REMARK  Name = 
REMARK  11 active torsions:
REMARK  status: ('A' for Active; 'I' for Inactive)
REMARK    1  A    between atoms: C_1  and  O_2
REMARK    2  A    between atoms: O_2  and  C_3
REMARK    3  A    between atoms: C_7  and  C_8
REMARK    4  A    between atoms: C_8  and  C_10
REMARK    5  A    between atoms: C_10  and  C_11
REMARK    6  A    between atoms: C_10  and  C_12
REMARK    7  A    between atoms: C_10  and  C_13
REMARK    8  A    between atoms: C_14  and  C_15
REMARK    9  A    between atoms: C_15  and  O_16
REMARK   10  A    between atoms: O_16  and  C_17
REMARK   11  A    between atoms: C_17  and  C_18
REMARK                            x       y       z     vdW  Elec       q    Type
REMARK                         _______ _______ _______ _____ _____    ______ ____
ROOT
ATOM      1  C   UNL     1       5.244   4.562  15.732  0.00  0.00    +0.000 C 
ATOM      2  C   UNL     1       4.363   3.593  16.590  0.00  0.00    +0.000 C 
ATOM      3  O   UNL     1       3.567   2.723  16.386  0.00  0.00    +0.000 OA
ATOM      4  N   UNL     1       4.742   4.254  17.750  0.00  0.00    +0.000 N 
ATOM      5  C   UNL     1       3.807   5.191  18.202  0.00  0.00    +0.000 C 
ATOM      6  C   UNL     1       3.975   6.536  18.005  0.00  0.00    +0.000 C 
ATOM      7  C   UNL     1       5.291   7.195  17.646  0.00  0.00    +0.000 C 
ATOM      8  S   UNL     1       6.655   6.103  17.739  0.00  0.00    +0.000 S 
ATOM      9  O   UNL     1       6.947   5.896  19.147  0.00  0.00    +0.000 OA
ATOM     10  O   UNL     1       7.688   6.640  16.872  0.00  0.00    +0.000 OA
ATOM     11  C   UNL     1       6.030   4.627  17.054  0.00  0.00    +0.000 C 
ENDROOT
BRANCH   1  13
ATOM     12  C   UNL     1       6.870   4.644  13.951  0.00  0.00    +0.000 C 
ATOM     13  O   UNL     1       5.804   3.920  14.565  0.00  0.00    +0.000 OA
ENDBRANCH   1  13
BRANCH   5  14
ATOM     14  C   UNL     1       2.450   4.572  18.643  0.00  0.00    +0.000 C 
ATOM     15  O   UNL     1       1.496   4.635  17.859  0.00  0.00    +0.000 OA
BRANCH  14  16
ATOM     16  C   UNL     1       2.245   3.886  20.047  0.00  0.00    +0.000 C 
ATOM     17  C   UNL     1       2.169   4.815  21.270  0.00  0.00    +0.000 C 
ATOM     18  C   UNL     1       0.921   3.091  20.004  0.00  0.00    +0.000 C 
ATOM     19  C   UNL     1       3.354   2.831  20.266  0.00  0.00    +0.000 C 
ENDBRANCH  14  16
ENDBRANCH   5  14
BRANCH   6  20
ATOM     20  C   UNL     1       2.823   7.540  17.905  0.00  0.00    +0.000 C 
BRANCH  20  21
ATOM     21  O   UNL     1       2.188   7.797  19.186  0.00  0.00    +0.000 OA
BRANCH  21  22
ATOM     22  C   UNL     1       1.431   8.929  19.291  0.00  0.00    +0.000 C 
ATOM     23  C   UNL     1       1.133   9.515  17.945  0.00  0.00    +0.000 C 
ATOM     24  O   UNL     1       1.049   9.419  20.346  0.00  0.00    +0.000 OA
ENDBRANCH  21  22
ENDBRANCH  20  21
ENDBRANCH   6  20
TORSDOF 6
ENDMDL
MODEL 4
REMARK VINA RESULT:      -6.4      1.319      1.554
REMARK  Name = 
REMARK  11 active torsions:
REMARK  status: ('A' for Active; 'I' for Inactive)
REMARK    1  A    between atoms: C_1  and  O_2
REMARK    2  A    between atoms: O_2  and  C_3
REMARK    3  A    between atoms: C_7  and  C_8
REMARK    4  A    between atoms: C_8  and  C_10
REMARK    5  A    between atoms: C_10  and  C_11
REMARK    6  A    between atoms: C_10  and  C_12
REMARK    7  A    between atoms: C_10  and  C_13
REMARK    8  A    between atoms: C_14  and  C_15
REMARK    9  A    between atoms: C_15  and  O_16
REMARK   10  A    between atoms: O_16  and  C_17
REMARK   11  A    between atoms: C_17  and  C_18
REMARK                            x       y       z     vdW  Elec       q    Type
REMARK                         _______ _______ _______ _____ _____    ______ ____
ROOT
ATOM      1  C   UNL     1       6.743   5.189  15.869  0.00  0.00    +0.000 C 
ATOM      2  C   UNL     1       6.000   3.828  16.082  0.00  0.00    +0.000 C 
ATOM      3  O   UNL     1       5.555   2.957  15.393  0.00  0.00    +0.000 OA
ATOM      4  N   UNL     1       5.894   4.084  17.442  0.00  0.00    +0.000 N 
ATOM      5  C   UNL     1       4.652   4.598  17.830  0.00  0.00    +0.000 C 
ATOM      6  C   UNL     1       4.472   5.930  18.098  0.00  0.00    +0.000 C 
ATOM      7  C   UNL     1       5.591   6.910  18.382  0.00  0.00    +0.000 C 
ATOM      8  S   UNL     1       7.149   6.137  18.576  0.00  0.00    +0.000 S 
ATOM      9  O   UNL     1       7.153   5.495  19.879  0.00  0.00    +0.000 OA
ATOM     10  O   UNL     1       8.159   7.137  18.276  0.00  0.00    +0.000 OA
ATOM     11  C   UNL     1       7.148   4.920  17.329  0.00  0.00    +0.000 C 
ENDROOT
BRANCH   1  13
ATOM     12  C   UNL     1       7.155   4.976  13.501  0.00  0.00    +0.000 C 
ATOM     13  O   UNL     1       7.718   5.131  14.804  0.00  0.00    +0.000 OA
ENDBRANCH   1  13
BRANCH   5  14
ATOM     14  C   UNL     1       3.465   3.617  17.619  0.00  0.00    +0.000 C 
ATOM     15  O   UNL     1       2.763   3.755  16.610  0.00  0.00    +0.000 OA
BRANCH  14  16
ATOM     16  C   UNL     1       3.117   2.472  18.644  0.00  0.00    +0.000 C 
ATOM     17  C   UNL     1       3.850   1.132  18.465  0.00  0.00    +0.000 C 
ATOM     18  C   UNL     1       3.452   2.980  20.064  0.00  0.00    +0.000 C 
ATOM     19  C   UNL     1       1.590   2.231  18.641  0.00  0.00    +0.000 C 
ENDBRANCH  14  16
ENDBRANCH   5  14
BRANCH   6  20
ATOM     20  C   UNL     1       3.138   6.664  17.938  0.00  0.00    +0.000 C 
BRANCH  20  21
ATOM     21  O   UNL     1       2.513   6.980  19.211  0.00  0.00    +0.000 OA
BRANCH  21  22
ATOM     22  C   UNL     1       1.885   8.188  19.315  0.00  0.00    +0.000 C 
ATOM     23  C   UNL     1       1.876   8.915  18.005  0.00  0.00    +0.000 C 
ATOM     24  O   UNL     1       1.399   8.637  20.345  0.00  0.00    +0.000 OA
ENDBRANCH  21  22
ENDBRANCH  20  21
ENDBRANCH   6  20
TORSDOF 6
ENDMDL
MODEL 5
REMARK VINA RESULT:      -6.3      0.630      1.171
REMARK  Name = 
REMARK  11 active torsions:
REMARK  status: ('A' for Active; 'I' for Inactive)
REMARK    1  A    between atoms: C_1  and  O_2
REMARK    2  A    between atoms: O_2  and  C_3
REMARK    3  A    between atoms: C_7  and  C_8
REMARK    4  A    between atoms: C_8  and  C_10
REMARK    5  A    between atoms: C_10  and  C_11
REMARK    6  A    between atoms: C_10  and  C_12
REMARK    7  A    between atoms: C_10  and  C_13
REMARK    8  A    between atoms: C_14  and  C_15
REMARK    9  A    between atoms: C_15  and  O_16
REMARK   10  A    between atoms: O_16  and  C_17
REMARK   11  A    between atoms: C_17  and  C_18
REMARK                            x       y       z     vdW  Elec       q    Type
REMARK                         _______ _______ _______ _____ _____    ______ ____
ROOT
ATOM      1  C   UNL     1       5.377   4.317  15.930  0.00  0.00    +0.000 C 
ATOM      2  C   UNL     1       4.414   3.411  16.768  0.00  0.00    +0.000 C 
ATOM      3  O   UNL     1       3.619   2.544  16.550  0.00  0.00    +0.000 OA
ATOM      4  N   UNL     1       4.718   4.128  17.917  0.00  0.00    +0.000 N 
ATOM      5  C   UNL     1       3.772   5.103  18.247  0.00  0.00    +0.000 C 
ATOM      6  C   UNL     1       3.982   6.433  17.992  0.00  0.00    +0.000 C 
ATOM      7  C   UNL     1       5.334   7.050  17.700  0.00  0.00    +0.000 C 
ATOM      8  S   UNL     1       6.665   5.941  17.954  0.00  0.00    +0.000 S 
ATOM      9  O   UNL     1       6.846   5.806  19.389  0.00  0.00    +0.000 OA
ATOM     10  O   UNL     1       7.771   6.414  17.141  0.00  0.00    +0.000 OA
ATOM     11  C   UNL     1       6.063   4.441  17.302  0.00  0.00    +0.000 C 
ENDROOT
BRANCH   1  13
ATOM     12  C   UNL     1       6.742   4.435  13.944  0.00  0.00    +0.000 C 
ATOM     13  O   UNL     1       6.010   3.603  14.844  0.00  0.00    +0.000 OA
ENDBRANCH   1  13
BRANCH   5  14
ATOM     14  C   UNL     1       2.373   4.531  18.615  0.00  0.00    +0.000 C 
ATOM     15  O   UNL     1       1.483   4.562  17.757  0.00  0.00    +0.000 OA
BRANCH  14  16
ATOM     16  C   UNL     1       2.048   3.932  20.036  0.00  0.00    +0.000 C 
ATOM     17  C   UNL     1       0.692   3.226  20.199  0.00  0.00    +0.000 C 
ATOM     18  C   UNL     1       3.139   2.893  20.380  0.00  0.00    +0.000 C 
ATOM     19  C   UNL     1       2.185   5.044  21.102  0.00  0.00    +0.000 C 
ENDBRANCH  14  16
ENDBRANCH   5  14
BRANCH   6  20
ATOM     20  C   UNL     1       2.861   7.448  17.752  0.00  0.00    +0.000 C 
BRANCH  20  21
ATOM     21  O   UNL     1       2.257   7.922  18.985  0.00  0.00    +0.000 OA
BRANCH  21  22
ATOM     22  C   UNL     1       1.481   9.043  18.909  0.00  0.00    +0.000 C 
ATOM     23  C   UNL     1       0.878   9.382  20.238  0.00  0.00    +0.000 C 
ATOM     24  O   UNL     1       1.286   9.691  17.888  0.00  0.00    +0.000 OA
ENDBRANCH  21  22
ENDBRANCH  20  21
ENDBRANCH   6  20
TORSDOF 6
ENDMDL
MODEL 6
REMARK VINA RESULT:      -5.9      2.086      5.056
REMARK  Name = 
REMARK  11 active torsions:
REMARK  status: ('A' for Active; 'I' for Inactive)
REMARK    1  A    between atoms: C_1  and  O_2
REMARK    2  A    between atoms: O_2  and  C_3
REMARK    3  A    between atoms: C_7  and  C_8
REMARK    4  A    between atoms: C_8  and  C_10
REMARK    5  A    between atoms: C_10  and  C_11
REMARK    6  A    between atoms: C_10  and  C_12
REMARK    7  A    between atoms: C_10  and  C_13
REMARK    8  A    between atoms: C_14  and  C_15
REMARK    9  A    between atoms: C_15  and  O_16
REMARK   10  A    between atoms: O_16  and  C_17
REMARK   11  A    between atoms: C_17  and  C_18
REMARK                            x       y       z     vdW  Elec       q    Type
REMARK                         _______ _______ _______ _____ _____    ______ ____
ROOT
ATOM      1  C   UNL     1       2.854   2.958  20.661  0.00  0.00    +0.000 C 
ATOM      2  C   UNL     1       4.383   2.910  20.327  0.00  0.00    +0.000 C 
ATOM      3  O   UNL     1       5.411   2.885  20.939  0.00  0.00    +0.000 OA
ATOM      4  N   UNL     1       4.106   3.075  18.977  0.00  0.00    +0.000 N 
ATOM      5  C   UNL     1       4.248   4.391  18.524  0.00  0.00    +0.000 C 
ATOM      6  C   UNL     1       3.167   5.203  18.308  0.00  0.00    +0.000 C 
ATOM      7  C   UNL     1       1.741   4.716  18.156  0.00  0.00    +0.000 C 
ATOM      8  S   UNL     1       1.618   2.974  18.041  0.00  0.00    +0.000 S 
ATOM      9  O   UNL     1       2.068   2.597  16.712  0.00  0.00    +0.000 OA
ATOM     10  O   UNL     1       0.276   2.615  18.463  0.00  0.00    +0.000 OA
ATOM     11  C   UNL     1       2.770   2.415  19.224  0.00  0.00    +0.000 C 
ENDROOT
BRANCH   1  13
ATOM     12  C   UNL     1       1.169   2.314  22.264  0.00  0.00    +0.000 C 
ATOM     13  O   UNL     1       2.504   2.129  21.791  0.00  0.00    +0.000 OA
ENDBRANCH   1  13
BRANCH   5  14
ATOM     14  C   UNL     1       5.704   4.934  18.598  0.00  0.00    +0.000 C 
ATOM     15  O   UNL     1       6.100   5.403  19.672  0.00  0.00    +0.000 OA
BRANCH  14  16
ATOM     16  C   UNL     1       6.679   4.922  17.360  0.00  0.00    +0.000 C 
ATOM     17  C   UNL     1       6.218   4.141  16.118  0.00  0.00    +0.000 C 
ATOM     18  C   UNL     1       6.905   6.384  16.913  0.00  0.00    +0.000 C 
ATOM     19  C   UNL     1       8.066   4.409  17.809  0.00  0.00    +0.000 C 
ENDBRANCH  14  16
ENDBRANCH   5  14
BRANCH   6  20
ATOM     20  C   UNL     1       3.208   6.731  18.404  0.00  0.00    +0.000 C 
BRANCH  20  21
ATOM     21  O   UNL     1       2.357   7.253  19.458  0.00  0.00    +0.000 OA
BRANCH  21  22
ATOM     22  C   UNL     1       1.761   8.462  19.238  0.00  0.00    +0.000 C 
ATOM     23  C   UNL     1       1.922   8.901  17.815  0.00  0.00    +0.000 C 
ATOM     24  O   UNL     1       1.177   9.120  20.091  0.00  0.00    +0.000 OA
ENDBRANCH  21  22
ENDBRANCH  20  21
ENDBRANCH   6  20
TORSDOF 6
ENDMDL
MODEL 7
REMARK VINA RESULT:      -5.9      1.295      1.750
REMARK  Name = 
REMARK  11 active torsions:
REMARK  status: ('A' for Active; 'I' for Inactive)
REMARK    1  A    between atoms: C_1  and  O_2
REMARK    2  A    between atoms: O_2  and  C_3
REMARK    3  A    between atoms: C_7  and  C_8
REMARK    4  A    between atoms: C_8  and  C_10
REMARK    5  A    between atoms: C_10  and  C_11
REMARK    6  A    between atoms: C_10  and  C_12
REMARK    7  A    between atoms: C_10  and  C_13
REMARK    8  A    between atoms: C_14  and  C_15
REMARK    9  A    between atoms: C_15  and  O_16
REMARK   10  A    between atoms: O_16  and  C_17
REMARK   11  A    between atoms: C_17  and  C_18
REMARK                            x       y       z     vdW  Elec       q    Type
REMARK                         _______ _______ _______ _____ _____    ______ ____
ROOT
ATOM      1  C   UNL     1       6.301   5.042  15.314  0.00  0.00    +0.000 C 
ATOM      2  C   UNL     1       5.752   3.726  15.961  0.00  0.00    +0.000 C 
ATOM      3  O   UNL     1       5.291   2.690  15.578  0.00  0.00    +0.000 OA
ATOM      4  N   UNL     1       5.854   4.289  17.225  0.00  0.00    +0.000 N 
ATOM      5  C   UNL     1       4.649   4.801  17.719  0.00  0.00    +0.000 C 
ATOM      6  C   UNL     1       4.378   6.144  17.715  0.00  0.00    +0.000 C 
ATOM      7  C   UNL     1       5.419   7.232  17.557  0.00  0.00    +0.000 C 
ATOM      8  S   UNL     1       7.061   6.627  17.617  0.00  0.00    +0.000 S 
ATOM      9  O   UNL     1       7.354   6.312  19.005  0.00  0.00    +0.000 OA
ATOM     10  O   UNL     1       7.893   7.589  16.917  0.00  0.00    +0.000 OA
ATOM     11  C   UNL     1       6.974   5.151  16.693  0.00  0.00    +0.000 C 
ENDROOT
BRANCH   1  13
ATOM     12  C   UNL     1       6.409   4.015  13.134  0.00  0.00    +0.000 C 
ATOM     13  O   UNL     1       7.080   4.796  14.123  0.00  0.00    +0.000 OA
ENDBRANCH   1  13
BRANCH   5  14
ATOM     14  C   UNL     1       3.553   3.725  17.960  0.00  0.00    +0.000 C 
ATOM     15  O   UNL     1       2.910   3.316  16.986  0.00  0.00    +0.000 OA
BRANCH  14  16
ATOM     16  C   UNL     1       3.224   3.153  19.391  0.00  0.00    +0.000 C 
ATOM     17  C   UNL     1       2.746   4.160  20.450  0.00  0.00    +0.000 C 
ATOM     18  C   UNL     1       2.108   2.095  19.240  0.00  0.00    +0.000 C 
ATOM     19  C   UNL     1       4.453   2.383  19.926  0.00  0.00    +0.000 C 
ENDBRANCH  14  16
ENDBRANCH   5  14
BRANCH   6  20
ATOM     20  C   UNL     1       2.966   6.735  17.654  0.00  0.00    +0.000 C 
BRANCH  20  21
ATOM     21  O   UNL     1       2.961   8.186  17.697  0.00  0.00    +0.000 OA
BRANCH  21  22
ATOM     22  C   UNL     1       1.937   8.787  18.372  0.00  0.00    +0.000 C 
ATOM     23  C   UNL     1       1.765   8.200  19.740  0.00  0.00    +0.000 C 
ATOM     24  O   UNL     1       1.233   9.683  17.923  0.00  0.00    +0.000 OA
ENDBRANCH  21  22
ENDBRANCH  20  21
ENDBRANCH   6  20
TORSDOF 6
ENDMDL
MODEL 8
REMARK VINA RESULT:      -5.9      1.527      2.195
REMARK  Name = 
REMARK  11 active torsions:
REMARK  status: ('A' for Active; 'I' for Inactive)
REMARK    1  A    between atoms: C_1  and  O_2
REMARK    2  A    between atoms: O_2  and  C_3
REMARK    3  A    between atoms: C_7  and  C_8
REMARK    4  A    between atoms: C_8  and  C_10
REMARK    5  A    between atoms: C_10  and  C_11
REMARK    6  A    between atoms: C_10  and  C_12
REMARK    7  A    between atoms: C_10  and  C_13
REMARK    8  A    between atoms: C_14  and  C_15
REMARK    9  A    between atoms: C_15  and  O_16
REMARK   10  A    between atoms: O_16  and  C_17
REMARK   11  A    between atoms: C_17  and  C_18
REMARK                            x       y       z     vdW  Elec       q    Type
REMARK                         _______ _______ _______ _____ _____    ______ ____
ROOT
ATOM      1  C   UNL     1       6.474   5.204  15.284  0.00  0.00    +0.000 C 
ATOM      2  C   UNL     1       5.939   3.807  15.746  0.00  0.00    +0.000 C 
ATOM      3  O   UNL     1       5.536   2.809  15.224  0.00  0.00    +0.000 OA
ATOM      4  N   UNL     1       5.955   4.224  17.070  0.00  0.00    +0.000 N 
ATOM      5  C   UNL     1       4.709   4.641  17.550  0.00  0.00    +0.000 C 
ATOM      6  C   UNL     1       4.390   5.967  17.683  0.00  0.00    +0.000 C 
ATOM      7  C   UNL     1       5.399   7.096  17.707  0.00  0.00    +0.000 C 
ATOM      8  S   UNL     1       7.055   6.537  17.790  0.00  0.00    +0.000 S 
ATOM      9  O   UNL     1       7.287   6.074  19.148  0.00  0.00    +0.000 OA
ATOM     10  O   UNL     1       7.888   7.597  17.251  0.00  0.00    +0.000 OA
ATOM     11  C   UNL     1       7.070   5.175  16.702  0.00  0.00    +0.000 C 
ENDROOT
BRANCH   1  13
ATOM     12  C   UNL     1       6.729   4.446  13.008  0.00  0.00    +0.000 C 
ATOM     13  O   UNL     1       7.323   5.119  14.118  0.00  0.00    +0.000 OA
ENDBRANCH   1  13
BRANCH   5  14
ATOM     14  C   UNL     1       3.640   3.512  17.606  0.00  0.00    +0.000 C 
ATOM     15  O   UNL     1       2.792   3.464  16.708  0.00  0.00    +0.000 OA
BRANCH  14  16
ATOM     16  C   UNL     1       3.592   2.445  18.765  0.00  0.00    +0.000 C 
ATOM     17  C   UNL     1       4.403   2.758  20.033  0.00  0.00    +0.000 C 
ATOM     18  C   UNL     1       2.120   2.278  19.203  0.00  0.00    +0.000 C 
ATOM     19  C   UNL     1       4.016   1.067  18.207  0.00  0.00    +0.000 C 
ENDBRANCH  14  16
ENDBRANCH   5  14
BRANCH   6  20
ATOM     20  C   UNL     1       2.963   6.518  17.610  0.00  0.00    +0.000 C 
BRANCH  20  21
ATOM     21  O   UNL     1       2.081   5.930  18.603  0.00  0.00    +0.000 OA
BRANCH  21  22
ATOM     22  C   UNL     1       2.096   6.479  19.853  0.00  0.00    +0.000 C 
ATOM     23  C   UNL     1       1.982   5.427  20.914  0.00  0.00    +0.000 C 
ATOM     24  O   UNL     1       2.178   7.678  20.090  0.00  0.00    +0.000 OA
ENDBRANCH  21  22
ENDBRANCH  20  21
ENDBRANCH   6  20
TORSDOF 6
ENDMDL
MODEL 9
REMARK VINA RESULT:      -5.9      1.064      1.130
REMARK  Name = 
REMARK  11 active torsions:
REMARK  status: ('A' for Active; 'I' for Inactive)
REMARK    1  A    between atoms: C_1  and  O_2
REMARK    2  A    between atoms: O_2  and  C_3
REMARK    3  A    between atoms: C_7  and  C_8
REMARK    4  A    between atoms: C_8  and  C_10
REMARK    5  A    between atoms: C_10  and  C_11
REMARK    6  A    between atoms: C_10  and  C_12
REMARK    7  A    between atoms: C_10  and  C_13
REMARK    8  A    between atoms: C_14  and  C_15
REMARK    9  A    between atoms: C_15  and  O_16
REMARK   10  A    between atoms: O_16  and  C_17
REMARK   11  A    between atoms: C_17  and  C_18
REMARK                            x       y       z     vdW  Elec       q    Type
REMARK                         _______ _______ _______ _____ _____    ______ ____
ROOT
ATOM      1  C   UNL     1       4.894   4.631  15.836  0.00  0.00    +0.000 C 
ATOM      2  C   UNL     1       4.204   3.562  16.748  0.00  0.00    +0.000 C 
ATOM      3  O   UNL     1       3.454   2.641  16.602  0.00  0.00    +0.000 OA
ATOM      4  N   UNL     1       4.683   4.201  17.882  0.00  0.00    +0.000 N 
ATOM      5  C   UNL     1       3.751   5.041  18.499  0.00  0.00    +0.000 C 
ATOM      6  C   UNL     1       3.795   6.403  18.352  0.00  0.00    +0.000 C 
ATOM      7  C   UNL     1       5.001   7.177  17.863  0.00  0.00    +0.000 C 
ATOM      8  S   UNL     1       6.441   6.192  17.723  0.00  0.00    +0.000 S 
ATOM      9  O   UNL     1       6.929   5.949  19.070  0.00  0.00    +0.000 OA
ATOM     10  O   UNL     1       7.310   6.845  16.761  0.00  0.00    +0.000 OA
ATOM     11  C   UNL     1       5.839   4.702  17.048  0.00  0.00    +0.000 C 
ENDROOT
BRANCH   1  13
ATOM     12  C   UNL     1       6.706   4.363  14.266  0.00  0.00    +0.000 C 
ATOM     13  O   UNL     1       5.340   4.085  14.575  0.00  0.00    +0.000 OA
ENDBRANCH   1  13
BRANCH   5  14
ATOM     14  C   UNL     1       2.512   4.300  19.076  0.00  0.00    +0.000 C 
ATOM     15  O   UNL     1       1.390   4.637  18.679  0.00  0.00    +0.000 OA
BRANCH  14  16
ATOM     16  C   UNL     1       2.633   3.154  20.151  0.00  0.00    +0.000 C 
ATOM     17  C   UNL     1       4.037   2.581  20.403  0.00  0.00    +0.000 C 
ATOM     18  C   UNL     1       2.125   3.707  21.502  0.00  0.00    +0.000 C 
ATOM     19  C   UNL     1       1.664   2.007  19.784  0.00  0.00    +0.000 C 
ENDBRANCH  14  16
ENDBRANCH   5  14
BRANCH   6  20
ATOM     20  C   UNL     1       2.570   7.317  18.452  0.00  0.00    +0.000 C 
BRANCH  20  21
ATOM     21  O   UNL     1       2.629   8.440  17.534  0.00  0.00    +0.000 OA
BRANCH  21  22
ATOM     22  C   UNL     1       2.104   9.626  17.964  0.00  0.00    +0.000 C 
ATOM     23  C   UNL     1       1.049   9.411  19.006  0.00  0.00    +0.000 C 
ATOM     24  O   UNL     1       2.436  10.729  17.549  0.00  0.00    +0.000 OA
ENDBRANCH  21  22
ENDBRANCH  20  21
ENDBRANCH   6  20
TORSDOF 6
ENDMDL
