MODEL 1
REMARK VINA RESULT:      -7.0      0.000      0.000
REMARK  Name = 
REMARK  3 active torsions:
REMARK  status: ('A' for Active; 'I' for Inactive)
REMARK    1  A    between atoms: C_2  and  C_3
REMARK    2  A    between atoms: C_3  and  N_4
REMARK    3  A    between atoms: N_9  and  N_10
REMARK                            x       y       z     vdW  Elec       q    Type
REMARK                         _______ _______ _______ _____ _____    ______ ____
ROOT
ATOM      1  N   UNL     1       3.466   5.486  18.878  0.00  0.00    +0.000 N 
ATOM      2  C   UNL     1       2.594   4.356  18.977  0.00  0.00    +0.000 A 
ATOM      3  C   UNL     1       1.429   4.359  19.773  0.00  0.00    +0.000 A 
ATOM      4  C   UNL     1       0.644   3.206  19.948  0.00  0.00    +0.000 A 
ATOM      5  C   UNL     1       0.998   2.022  19.317  0.00  0.00    +0.000 A 
ATOM      6  C   UNL     1       2.105   2.004  18.482  0.00  0.00    +0.000 A 
ATOM      7  C   UNL     1       2.892   3.155  18.292  0.00  0.00    +0.000 A 
ATOM      8  S   UNL     1       4.214   2.995  17.113  0.00  0.00    +0.000 S 
ATOM      9  C   UNL     1       5.080   4.537  17.269  0.00  0.00    +0.000 A 
ATOM     10  C   UNL     1       6.201   4.704  16.431  0.00  0.00    +0.000 A 
ATOM     11  C   UNL     1       6.968   5.858  16.489  0.00  0.00    +0.000 A 
ATOM     12  C   UNL     1       6.670   6.825  17.430  0.00  0.00    +0.000 A 
ATOM     13 CL   UNL     1       7.609   8.261  17.524  0.00  0.00    +0.000 Cl
ATOM     14  C   UNL     1       5.580   6.657  18.286  0.00  0.00    +0.000 A 
ATOM     15  C   UNL     1       4.708   5.551  18.168  0.00  0.00    +0.000 A 
ENDROOT
BRANCH   1  18
ATOM     16  O   UNL     1       1.902   7.576  17.792  0.00  0.00    +0.000 OA
ATOM     17  C   UNL     1       2.275   7.614  18.967  0.00  0.00    +0.000 C 
ATOM     18  N   UNL     1       3.074   6.646  19.579  0.00  0.00    +0.000 N 
ATOM     19  H   UNL     1       3.300   6.670  20.563  0.00  0.00    +0.000 HD
BRANCH  17  20
ATOM     20  C   UNL     1       1.944   8.788  19.905  0.00  0.00    +0.000 C 
BRANCH  20  21
ATOM     21  N   UNL     1       0.796   9.560  19.395  0.00  0.00    +0.000 NA
ATOM     22  C   UNL     1       1.168  10.909  18.960  0.00  0.00    +0.000 C 
ATOM     23  C   UNL     1       1.075  11.748  20.219  0.00  0.00    +0.000 C 
ATOM     24  C   UNL     1      -0.127  11.164  20.937  0.00  0.00    +0.000 C 
ATOM     25  C   UNL     1      -0.246   9.737  20.423  0.00  0.00    +0.000 C 
ENDBRANCH  20  21
ENDBRANCH  17  20
ENDBRANCH   1  18
TORSDOF 3
ENDMDL
MODEL 2
REMARK VINA RESULT:      -6.8      2.496      6.002
REMARK  Name = 
REMARK  3 active torsions:
REMARK  status: ('A' for Active; 'I' for Inactive)
REMARK    1  A    between atoms: C_2  and  C_3
REMARK    2  A    between atoms: C_3  and  N_4
REMARK    3  A    between atoms: N_9  and  N_10
REMARK                            x       y       z     vdW  Elec       q    Type
REMARK                         _______ _______ _______ _____ _____    ______ ____
ROOT
ATOM      1  N   UNL     1       3.179   5.665  18.142  0.00  0.00    +0.000 N 
ATOM      2  C   UNL     1       3.138   4.285  18.523  0.00  0.00    +0.000 A 
ATOM      3  C   UNL     1       3.809   3.275  17.801  0.00  0.00    +0.000 A 
ATOM      4  C   UNL     1       3.669   1.914  18.122  0.00  0.00    +0.000 A 
ATOM      5  C   UNL     1       2.863   1.530  19.186  0.00  0.00    +0.000 A 
ATOM      6  C   UNL     1       2.238   2.505  19.949  0.00  0.00    +0.000 A 
ATOM      7  C   UNL     1       2.380   3.872  19.642  0.00  0.00    +0.000 A 
ATOM      8  S   UNL     1       1.600   4.997  20.777  0.00  0.00    +0.000 S 
ATOM      9  C   UNL     1       1.823   6.574  19.992  0.00  0.00    +0.000 A 
ATOM     10  C   UNL     1       1.298   7.687  20.682  0.00  0.00    +0.000 A 
ATOM     11  C   UNL     1       1.390   8.964  20.149  0.00  0.00    +0.000 A 
ATOM     12  C   UNL     1       1.941   9.136  18.893  0.00  0.00    +0.000 A 
ATOM     13 CL   UNL     1       2.061  10.708  18.209  0.00  0.00    +0.000 Cl
ATOM     14  C   UNL     1       2.436   8.038  18.188  0.00  0.00    +0.000 A 
ATOM     15  C   UNL     1       2.468   6.745  18.756  0.00  0.00    +0.000 A 
ENDROOT
BRANCH   1  18
ATOM     16  O   UNL     1       5.915   6.367  18.267  0.00  0.00    +0.000 OA
ATOM     17  C   UNL     1       5.333   6.293  17.182  0.00  0.00    +0.000 C 
ATOM     18  N   UNL     1       3.980   5.986  17.025  0.00  0.00    +0.000 N 
ATOM     19  H   UNL     1       3.552   5.859  16.120  0.00  0.00    +0.000 HD
BRANCH  17  20
ATOM     20  C   UNL     1       6.031   6.594  15.844  0.00  0.00    +0.000 C 
BRANCH  20  21
ATOM     21  N   UNL     1       7.061   5.580  15.550  0.00  0.00    +0.000 NA
ATOM     22  C   UNL     1       7.152   5.263  14.123  0.00  0.00    +0.000 C 
ATOM     23  C   UNL     1       6.125   4.168  13.915  0.00  0.00    +0.000 C 
ATOM     24  C   UNL     1       6.230   3.349  15.188  0.00  0.00    +0.000 C 
ATOM     25  C   UNL     1       6.786   4.304  16.234  0.00  0.00    +0.000 C 
ENDBRANCH  20  21
ENDBRANCH  17  20
ENDBRANCH   1  18
TORSDOF 3
ENDMDL
MODEL 3
REMARK VINA RESULT:      -6.7      2.708      6.632
REMARK  Name = 
REMARK  3 active torsions:
REMARK  status: ('A' for Active; 'I' for Inactive)
REMARK    1  A    between atoms: C_2  and  C_3
REMARK    2  A    between atoms: C_3  and  N_4
REMARK    3  A    between atoms: N_9  and  N_10
REMARK                            x       y       z     vdW  Elec       q    Type
REMARK                         _______ _______ _______ _____ _____    ______ ____
ROOT
ATOM      1  N   UNL     1       2.825   6.634  18.437  0.00  0.00    +0.000 N 
ATOM      2  C   UNL     1       2.216   7.907  18.674  0.00  0.00    +0.000 A 
ATOM      3  C   UNL     1       2.296   8.974  17.753  0.00  0.00    +0.000 A 
ATOM      4  C   UNL     1       1.789  10.251  18.049  0.00  0.00    +0.000 A 
ATOM      5  C   UNL     1       1.174  10.489  19.270  0.00  0.00    +0.000 A 
ATOM      6  C   UNL     1       1.028   9.444  20.171  0.00  0.00    +0.000 A 
ATOM      7  C   UNL     1       1.524   8.159  19.881  0.00  0.00    +0.000 A 
ATOM      8  S   UNL     1       1.168   6.908  21.094  0.00  0.00    +0.000 S 
ATOM      9  C   UNL     1       2.080   5.505  20.501  0.00  0.00    +0.000 A 
ATOM     10  C   UNL     1       1.980   4.331  21.277  0.00  0.00    +0.000 A 
ATOM     11  C   UNL     1       2.674   3.183  20.924  0.00  0.00    +0.000 A 
ATOM     12  C   UNL     1       3.527   3.213  19.837  0.00  0.00    +0.000 A 
ATOM     13 CL   UNL     1       4.400   1.805  19.383  0.00  0.00    +0.000 Cl
ATOM     14  C   UNL     1       3.656   4.378  19.079  0.00  0.00    +0.000 A 
ATOM     15  C   UNL     1       2.871   5.524  19.341  0.00  0.00    +0.000 A 
ENDROOT
BRANCH   1  18
ATOM     16  O   UNL     1       5.526   7.294  17.928  0.00  0.00    +0.000 OA
ATOM     17  C   UNL     1       4.823   6.797  17.046  0.00  0.00    +0.000 C 
ATOM     18  N   UNL     1       3.474   6.468  17.195  0.00  0.00    +0.000 N 
ATOM     19  H   UNL     1       2.947   5.993  16.477  0.00  0.00    +0.000 HD
BRANCH  17  20
ATOM     20  C   UNL     1       5.345   6.525  15.624  0.00  0.00    +0.000 C 
BRANCH  20  21
ATOM     21  N   UNL     1       6.514   5.627  15.656  0.00  0.00    +0.000 NA
ATOM     22  C   UNL     1       6.899   5.150  14.326  0.00  0.00    +0.000 C 
ATOM     23  C   UNL     1       6.051   3.913  14.111  0.00  0.00    +0.000 C 
ATOM     24  C   UNL     1       6.008   3.278  15.488  0.00  0.00    +0.000 C 
ATOM     25  C   UNL     1       6.256   4.420  16.462  0.00  0.00    +0.000 C 
ENDBRANCH  20  21
ENDBRANCH  17  20
ENDBRANCH   1  18
TORSDOF 3
ENDMDL
MODEL 4
REMARK VINA RESULT:      -6.2      8.516     11.160
REMARK  Name = 
REMARK  3 active torsions:
REMARK  status: ('A' for Active; 'I' for Inactive)
REMARK    1  A    between atoms: C_2  and  C_3
REMARK    2  A    between atoms: C_3  and  N_4
REMARK    3  A    between atoms: N_9  and  N_10
REMARK                            x       y       z     vdW  Elec       q    Type
REMARK                         _______ _______ _______ _____ _____    ______ ____
ROOT
ATOM      1  N   UNL     1       9.359  14.868  17.865  0.00  0.00    +0.000 N 
ATOM      2  C   UNL     1      10.073  16.108  17.883  0.00  0.00    +0.000 A 
ATOM      3  C   UNL     1       9.477  17.336  17.524  0.00  0.00    +0.000 A 
ATOM      4  C   UNL     1      10.220  18.526  17.440  0.00  0.00    +0.000 A 
ATOM      5  C   UNL     1      11.578  18.520  17.727  0.00  0.00    +0.000 A 
ATOM      6  C   UNL     1      12.179  17.340  18.139  0.00  0.00    +0.000 A 
ATOM      7  C   UNL     1      11.442  16.144  18.236  0.00  0.00    +0.000 A 
ATOM      8  S   UNL     1      12.333  14.744  18.875  0.00  0.00    +0.000 S 
ATOM      9  C   UNL     1      11.175  13.412  18.686  0.00  0.00    +0.000 A 
ATOM     10  C   UNL     1      11.614  12.145  19.124  0.00  0.00    +0.000 A 
ATOM     11  C   UNL     1      10.802  11.027  18.997  0.00  0.00    +0.000 A 
ATOM     12  C   UNL     1       9.577  11.146  18.370  0.00  0.00    +0.000 A 
ATOM     13 CL   UNL     1       8.557   9.775  18.197  0.00  0.00    +0.000 Cl
ATOM     14  C   UNL     1       9.146  12.389  17.904  0.00  0.00    +0.000 A 
ATOM     15  C   UNL     1       9.895  13.566  18.128  0.00  0.00    +0.000 A 
ENDROOT
BRANCH   1  18
ATOM     16  O   UNL     1       7.228  14.900  19.722  0.00  0.00    +0.000 OA
ATOM     17  C   UNL     1       7.009  14.974  18.511  0.00  0.00    +0.000 C 
ATOM     18  N   UNL     1       7.992  14.933  17.521  0.00  0.00    +0.000 N 
ATOM     19  H   UNL     1       7.786  15.071  16.542  0.00  0.00    +0.000 HD
BRANCH  17  20
ATOM     20  C   UNL     1       5.587  15.064  17.930  0.00  0.00    +0.000 C 
BRANCH  20  21
ATOM     21  N   UNL     1       4.647  15.614  18.924  0.00  0.00    +0.000 NA
ATOM     22  C   UNL     1       3.874  14.575  19.609  0.00  0.00    +0.000 C 
ATOM     23  C   UNL     1       2.674  14.348  18.713  0.00  0.00    +0.000 C 
ATOM     24  C   UNL     1       2.352  15.741  18.204  0.00  0.00    +0.000 C 
ATOM     25  C   UNL     1       3.658  16.515  18.304  0.00  0.00    +0.000 C 
ENDBRANCH  20  21
ENDBRANCH  17  20
ENDBRANCH   1  18
TORSDOF 3
ENDMDL
MODEL 5
REMARK VINA RESULT:      -6.2      1.230      1.506
REMARK  Name = 
REMARK  3 active torsions:
REMARK  status: ('A' for Active; 'I' for Inactive)
REMARK    1  A    between atoms: C_2  and  C_3
REMARK    2  A    between atoms: C_3  and  N_4
REMARK    3  A    between atoms: N_9  and  N_10
REMARK                            x       y       z     vdW  Elec       q    Type
REMARK                         _______ _______ _______ _____ _____    ______ ____
ROOT
ATOM      1  N   UNL     1       3.598   5.643  17.934  0.00  0.00    +0.000 N 
ATOM      2  C   UNL     1       2.834   4.461  18.196  0.00  0.00    +0.000 A 
ATOM      3  C   UNL     1       1.423   4.452  18.208  0.00  0.00    +0.000 A 
ATOM      4  C   UNL     1       0.689   3.311  18.576  0.00  0.00    +0.000 A 
ATOM      5  C   UNL     1       1.351   2.143  18.929  0.00  0.00    +0.000 A 
ATOM      6  C   UNL     1       2.736   2.104  18.870  0.00  0.00    +0.000 A 
ATOM      7  C   UNL     1       3.480   3.238  18.493  0.00  0.00    +0.000 A 
ATOM      8  S   UNL     1       5.238   2.996  18.368  0.00  0.00    +0.000 S 
ATOM      9  C   UNL     1       5.847   4.635  18.064  0.00  0.00    +0.000 A 
ATOM     10  C   UNL     1       7.244   4.756  17.911  0.00  0.00    +0.000 A 
ATOM     11  C   UNL     1       7.833   5.994  17.698  0.00  0.00    +0.000 A 
ATOM     12  C   UNL     1       7.046   7.130  17.706  0.00  0.00    +0.000 A 
ATOM     13 CL   UNL     1       7.753   8.675  17.450  0.00  0.00    +0.000 Cl
ATOM     14  C   UNL     1       5.666   7.025  17.887  0.00  0.00    +0.000 A 
ATOM     15  C   UNL     1       5.024   5.770  17.983  0.00  0.00    +0.000 A 
ENDROOT
BRANCH   1  18
ATOM     16  O   UNL     1       2.462   7.386  19.848  0.00  0.00    +0.000 OA
ATOM     17  C   UNL     1       2.367   7.627  18.642  0.00  0.00    +0.000 C 
ATOM     18  N   UNL     1       2.867   6.809  17.626  0.00  0.00    +0.000 N 
ATOM     19  H   UNL     1       2.837   7.072  16.652  0.00  0.00    +0.000 HD
BRANCH  17  20
ATOM     20  C   UNL     1       1.618   8.856  18.098  0.00  0.00    +0.000 C 
BRANCH  20  21
ATOM     21  N   UNL     1       1.356   9.830  19.174  0.00  0.00    +0.000 NA
ATOM     22  C   UNL     1       0.054   9.629  19.815  0.00  0.00    +0.000 C 
ATOM     23  C   UNL     1      -0.911  10.428  18.962  0.00  0.00    +0.000 C 
ATOM     24  C   UNL     1      -0.101  11.651  18.575  0.00  0.00    +0.000 C 
ATOM     25  C   UNL     1       1.353  11.215  18.670  0.00  0.00    +0.000 C 
ENDBRANCH  20  21
ENDBRANCH  17  20
ENDBRANCH   1  18
TORSDOF 3
ENDMDL
MODEL 6
REMARK VINA RESULT:      -6.0      4.702      7.677
REMARK  Name = 
REMARK  3 active torsions:
REMARK  status: ('A' for Active; 'I' for Inactive)
REMARK    1  A    between atoms: C_2  and  C_3
REMARK    2  A    between atoms: C_3  and  N_4
REMARK    3  A    between atoms: N_9  and  N_10
REMARK                            x       y       z     vdW  Elec       q    Type
REMARK                         _______ _______ _______ _____ _____    ______ ____
ROOT
ATOM      1  N   UNL     1       0.690  10.852  19.662  0.00  0.00    +0.000 N 
ATOM      2  C   UNL     1       1.412   9.686  19.249  0.00  0.00    +0.000 A 
ATOM      3  C   UNL     1       2.166   9.640  18.057  0.00  0.00    +0.000 A 
ATOM      4  C   UNL     1       2.777   8.456  17.609  0.00  0.00    +0.000 A 
ATOM      5  C   UNL     1       2.659   7.289  18.352  0.00  0.00    +0.000 A 
ATOM      6  C   UNL     1       1.973   7.319  19.557  0.00  0.00    +0.000 A 
ATOM      7  C   UNL     1       1.366   8.502  20.020  0.00  0.00    +0.000 A 
ATOM      8  S   UNL     1       0.613   8.400  21.628  0.00  0.00    +0.000 S 
ATOM      9  C   UNL     1      -0.188   9.975  21.795  0.00  0.00    +0.000 A 
ATOM     10  C   UNL     1      -0.880  10.190  23.005  0.00  0.00    +0.000 A 
ATOM     11  C   UNL     1      -1.567  11.374  23.232  0.00  0.00    +0.000 A 
ATOM     12  C   UNL     1      -1.631  12.323  22.231  0.00  0.00    +0.000 A 
ATOM     13 CL   UNL     1      -2.480  13.796  22.486  0.00  0.00    +0.000 Cl
ATOM     14  C   UNL     1      -0.975  12.108  21.017  0.00  0.00    +0.000 A 
ATOM     15  C   UNL     1      -0.167  10.969  20.803  0.00  0.00    +0.000 A 
ENDROOT
BRANCH   1  18
ATOM     16  O   UNL     1       2.418  13.029  20.174  0.00  0.00    +0.000 OA
ATOM     17  C   UNL     1       1.717  13.007  19.160  0.00  0.00    +0.000 C 
ATOM     18  N   UNL     1       0.813  11.992  18.841  0.00  0.00    +0.000 N 
ATOM     19  H   UNL     1       0.309  11.967  17.966  0.00  0.00    +0.000 HD
BRANCH  17  20
ATOM     20  C   UNL     1       1.712  14.150  18.129  0.00  0.00    +0.000 C 
BRANCH  20  21
ATOM     21  N   UNL     1       2.702  15.183  18.487  0.00  0.00    +0.000 NA
ATOM     22  C   UNL     1       2.087  16.376  19.075  0.00  0.00    +0.000 C 
ATOM     23  C   UNL     1       1.729  17.240  17.883  0.00  0.00    +0.000 C 
ATOM     24  C   UNL     1       2.885  17.010  16.927  0.00  0.00    +0.000 C 
ATOM     25  C   UNL     1       3.454  15.652  17.309  0.00  0.00    +0.000 C 
ENDBRANCH  20  21
ENDBRANCH  17  20
ENDBRANCH   1  18
TORSDOF 3
ENDMDL
MODEL 7
REMARK VINA RESULT:      -6.0      3.034      6.610
REMARK  Name = 
REMARK  3 active torsions:
REMARK  status: ('A' for Active; 'I' for Inactive)
REMARK    1  A    between atoms: C_2  and  C_3
REMARK    2  A    between atoms: C_3  and  N_4
REMARK    3  A    between atoms: N_9  and  N_10
REMARK                            x       y       z     vdW  Elec       q    Type
REMARK                         _______ _______ _______ _____ _____    ______ ____
ROOT
ATOM      1  N   UNL     1       2.643   6.718  19.741  0.00  0.00    +0.000 N 
ATOM      2  C   UNL     1       3.414   6.528  18.550  0.00  0.00    +0.000 A 
ATOM      3  C   UNL     1       4.228   5.395  18.341  0.00  0.00    +0.000 A 
ATOM      4  C   UNL     1       5.064   5.276  17.217  0.00  0.00    +0.000 A 
ATOM      5  C   UNL     1       5.095   6.285  16.264  0.00  0.00    +0.000 A 
ATOM      6  C   UNL     1       4.262   7.384  16.413  0.00  0.00    +0.000 A 
ATOM      7  C   UNL     1       3.413   7.508  17.530  0.00  0.00    +0.000 A 
ATOM      8  S   UNL     1       2.336   8.923  17.522  0.00  0.00    +0.000 S 
ATOM      9  C   UNL     1       1.572   8.854  19.123  0.00  0.00    +0.000 A 
ATOM     10  C   UNL     1       0.639   9.873  19.407  0.00  0.00    +0.000 A 
ATOM     11  C   UNL     1       0.003   9.933  20.638  0.00  0.00    +0.000 A 
ATOM     12  C   UNL     1       0.341   9.023  21.621  0.00  0.00    +0.000 A 
ATOM     13 CL   UNL     1      -0.430   9.081  23.156  0.00  0.00    +0.000 Cl
ATOM     14  C   UNL     1       1.285   8.028  21.362  0.00  0.00    +0.000 A 
ATOM     15  C   UNL     1       1.858   7.866  20.081  0.00  0.00    +0.000 A 
ENDROOT
BRANCH   1  18
ATOM     16  O   UNL     1       0.774   4.604  19.910  0.00  0.00    +0.000 OA
ATOM     17  C   UNL     1       1.735   4.657  20.681  0.00  0.00    +0.000 C 
ATOM     18  N   UNL     1       2.689   5.677  20.692  0.00  0.00    +0.000 N 
ATOM     19  H   UNL     1       3.506   5.652  21.286  0.00  0.00    +0.000 HD
BRANCH  17  20
ATOM     20  C   UNL     1       1.973   3.611  21.784  0.00  0.00    +0.000 C 
BRANCH  20  21
ATOM     21  N   UNL     1       2.177   2.272  21.203  0.00  0.00    +0.000 NA
ATOM     22  C   UNL     1       3.545   1.779  21.381  0.00  0.00    +0.000 C 
ATOM     23  C   UNL     1       4.299   2.328  20.186  0.00  0.00    +0.000 C 
ATOM     24  C   UNL     1       3.282   2.239  19.064  0.00  0.00    +0.000 C 
ATOM     25  C   UNL     1       1.925   2.260  19.751  0.00  0.00    +0.000 C 
ENDBRANCH  20  21
ENDBRANCH  17  20
ENDBRANCH   1  18
TORSDOF 3
ENDMDL
MODEL 8
REMARK VINA RESULT:      -6.0      2.528      5.825
REMARK  Name = 
REMARK  3 active torsions:
REMARK  status: ('A' for Active; 'I' for Inactive)
REMARK    1  A    between atoms: C_2  and  C_3
REMARK    2  A    between atoms: C_3  and  N_4
REMARK    3  A    between atoms: N_9  and  N_10
REMARK                            x       y       z     vdW  Elec       q    Type
REMARK                         _______ _______ _______ _____ _____    ______ ____
ROOT
ATOM      1  N   UNL     1       2.528   6.719  19.755  0.00  0.00    +0.000 N 
ATOM      2  C   UNL     1       1.663   7.787  20.156  0.00  0.00    +0.000 A 
ATOM      3  C   UNL     1       0.962   7.781  21.381  0.00  0.00    +0.000 A 
ATOM      4  C   UNL     1       0.031   8.781  21.710  0.00  0.00    +0.000 A 
ATOM      5  C   UNL     1      -0.211   9.823  20.825  0.00  0.00    +0.000 A 
ATOM      6  C   UNL     1       0.506   9.887  19.640  0.00  0.00    +0.000 A 
ATOM      7  C   UNL     1       1.448   8.895  19.305  0.00  0.00    +0.000 A 
ATOM      8  S   UNL     1       2.355   9.176  17.801  0.00  0.00    +0.000 S 
ATOM      9  C   UNL     1       3.286   7.676  17.610  0.00  0.00    +0.000 A 
ATOM     10  C   UNL     1       4.124   7.610  16.478  0.00  0.00    +0.000 A 
ATOM     11  C   UNL     1       4.876   6.474  16.214  0.00  0.00    +0.000 A 
ATOM     12  C   UNL     1       4.746   5.369  17.033  0.00  0.00    +0.000 A 
ATOM     13 CL   UNL     1       5.663   3.949  16.723  0.00  0.00    +0.000 Cl
ATOM     14  C   UNL     1       3.896   5.413  18.139  0.00  0.00    +0.000 A 
ATOM     15  C   UNL     1       3.213   6.595  18.504  0.00  0.00    +0.000 A 
ENDROOT
BRANCH   1  18
ATOM     16  O   UNL     1       0.748   4.547  20.071  0.00  0.00    +0.000 OA
ATOM     17  C   UNL     1       1.779   4.618  20.744  0.00  0.00    +0.000 C 
ATOM     18  N   UNL     1       2.699   5.667  20.679  0.00  0.00    +0.000 N 
ATOM     19  H   UNL     1       3.570   5.659  21.189  0.00  0.00    +0.000 HD
BRANCH  17  20
ATOM     20  C   UNL     1       2.155   3.565  21.800  0.00  0.00    +0.000 C 
BRANCH  20  21
ATOM     21  N   UNL     1       2.335   2.239  21.180  0.00  0.00    +0.000 NA
ATOM     22  C   UNL     1       3.716   1.760  21.259  0.00  0.00    +0.000 C 
ATOM     23  C   UNL     1       4.386   2.341  20.030  0.00  0.00    +0.000 C 
ATOM     24  C   UNL     1       3.300   2.263  18.974  0.00  0.00    +0.000 C 
ATOM     25  C   UNL     1       1.990   2.254  19.747  0.00  0.00    +0.000 C 
ENDBRANCH  20  21
ENDBRANCH  17  20
ENDBRANCH   1  18
TORSDOF 3
ENDMDL
MODEL 9
REMARK VINA RESULT:      -6.0      8.855     11.241
REMARK  Name = 
REMARK  3 active torsions:
REMARK  status: ('A' for Active; 'I' for Inactive)
REMARK    1  A    between atoms: C_2  and  C_3
REMARK    2  A    between atoms: C_3  and  N_4
REMARK    3  A    between atoms: N_9  and  N_10
REMARK                            x       y       z     vdW  Elec       q    Type
REMARK                         _______ _______ _______ _____ _____    ______ ____
ROOT
ATOM      1  N   UNL     1       9.235  14.819  17.978  0.00  0.00    +0.000 N 
ATOM      2  C   UNL     1       9.941  16.064  17.966  0.00  0.00    +0.000 A 
ATOM      3  C   UNL     1       9.299  17.302  17.750  0.00  0.00    +0.000 A 
ATOM      4  C   UNL     1      10.020  18.503  17.631  0.00  0.00    +0.000 A 
ATOM      5  C   UNL     1      11.404  18.496  17.741  0.00  0.00    +0.000 A 
ATOM      6  C   UNL     1      12.057  17.303  18.013  0.00  0.00    +0.000 A 
ATOM      7  C   UNL     1      11.343  16.096  18.143  0.00  0.00    +0.000 A 
ATOM      8  S   UNL     1      12.315  14.675  18.592  0.00  0.00    +0.000 S 
ATOM      9  C   UNL     1      11.147  13.342  18.485  0.00  0.00    +0.000 A 
ATOM     10  C   UNL     1      11.642  12.060  18.799  0.00  0.00    +0.000 A 
ATOM     11  C   UNL     1      10.825  10.942  18.721  0.00  0.00    +0.000 A 
ATOM     12  C   UNL     1       9.530  11.079  18.262  0.00  0.00    +0.000 A 
ATOM     13 CL   UNL     1       8.500   9.708  18.152  0.00  0.00    +0.000 Cl
ATOM     14  C   UNL     1       9.037  12.340  17.919  0.00  0.00    +0.000 A 
ATOM     15  C   UNL     1       9.805  13.511  18.104  0.00  0.00    +0.000 A 
ENDROOT
BRANCH   1  18
ATOM     16  O   UNL     1       7.360  14.749  20.093  0.00  0.00    +0.000 OA
ATOM     17  C   UNL     1       6.986  14.875  18.924  0.00  0.00    +0.000 C 
ATOM     18  N   UNL     1       7.835  14.888  17.815  0.00  0.00    +0.000 N 
ATOM     19  H   UNL     1       7.504  15.068  16.879  0.00  0.00    +0.000 HD
BRANCH  17  20
ATOM     20  C   UNL     1       5.501  14.978  18.535  0.00  0.00    +0.000 C 
BRANCH  20  21
ATOM     21  N   UNL     1       5.097  16.387  18.375  0.00  0.00    +0.000 NA
ATOM     22  C   UNL     1       5.497  17.223  19.509  0.00  0.00    +0.000 C 
ATOM     23  C   UNL     1       4.356  17.088  20.496  0.00  0.00    +0.000 C 
ATOM     24  C   UNL     1       3.130  17.035  19.603  0.00  0.00    +0.000 C 
ATOM     25  C   UNL     1       3.635  16.529  18.261  0.00  0.00    +0.000 C 
ENDBRANCH  20  21
ENDBRANCH  17  20
ENDBRANCH   1  18
TORSDOF 3
ENDMDL
