MODEL 1
REMARK VINA RESULT:      -7.9      0.000      0.000
REMARK  Name = 
REMARK  7 active torsions:
REMARK  status: ('A' for Active; 'I' for Inactive)
REMARK    1  A    between atoms: C_1  and  C_2
REMARK    2  A    between atoms: C_2  and  C_3
REMARK    3  A    between atoms: C_3  and  S_4
REMARK    4  A    between atoms: C_3  and  C_11
REMARK    5  A    between atoms: S_4  and  C_5
REMARK    6  A    between atoms: N_9  and  C_10
REMARK    7  A    between atoms: C_17  and  C_18
REMARK                            x       y       z     vdW  Elec       q    Type
REMARK                         _______ _______ _______ _____ _____    ______ ____
ROOT
ATOM      1  C   UNL     1       2.491   5.061  20.015  0.00  0.00    +0.000 C 
ATOM      2  O   UNL     1       1.814   5.030  21.043  0.00  0.00    +0.000 OA
ATOM      3  N   UNL     1       2.659   6.177  19.217  0.00  0.00    +0.000 N 
ATOM      4  C   UNL     1       2.080   7.404  19.456  0.00  0.00    +0.000 A 
ATOM      5  N   UNL     1       2.062   8.390  18.586  0.00  0.00    +0.000 NA
ATOM      6  N   UNL     1       1.382   9.501  19.074  0.00  0.00    +0.000 NA
ATOM      7  C   UNL     1       0.920   9.310  20.297  0.00  0.00    +0.000 A 
ATOM      8  S   UNL     1       1.390   7.803  20.960  0.00  0.00    +0.000 S 
ATOM      9  H   UNL     1       3.072   6.073  18.299  0.00  0.00    +0.000 HD
ENDROOT
BRANCH   7  10
ATOM     10  C   UNL     1       0.141  10.271  21.094  0.00  0.00    +0.000 A 
ATOM     11  C   UNL     1      -0.123  11.579  20.639  0.00  0.00    +0.000 A 
ATOM     12  C   UNL     1      -0.890  12.466  21.399  0.00  0.00    +0.000 A 
ATOM     13  C   UNL     1      -1.397  12.060  22.630  0.00  0.00    +0.000 A 
ATOM     14 CL   UNL     1      -2.352  13.145  23.560  0.00  0.00    +0.000 Cl
ATOM     15  C   UNL     1      -1.133  10.778  23.108  0.00  0.00    +0.000 A 
ATOM     16  C   UNL     1      -0.363   9.892  22.346  0.00  0.00    +0.000 A 
ENDBRANCH   7  10
BRANCH   1  17
ATOM     17  C   UNL     1       3.336   3.838  19.625  0.00  0.00    +0.000 C 
BRANCH  17  19
ATOM     18  C   UNL     1       1.388   2.425  18.641  0.00  0.00    +0.000 C 
ATOM     19  C   UNL     1       2.460   2.570  19.705  0.00  0.00    +0.000 C 
ENDBRANCH  17  19
BRANCH  17  20
ATOM     20  S   UNL     1       4.245   4.052  18.050  0.00  0.00    +0.000 S 
BRANCH  20  21
ATOM     21  C   UNL     1       5.770   4.664  18.572  0.00  0.00    +0.000 A 
ATOM     22  N   UNL     1       6.087   5.026  19.794  0.00  0.00    +0.000 NA
ATOM     23  N   UNL     1       7.397   5.443  19.779  0.00  0.00    +0.000 NA
ATOM     24  C   UNL     1       7.840   5.316  18.550  0.00  0.00    +0.000 A 
ATOM     25  N   UNL     1       6.854   4.812  17.757  0.00  0.00    +0.000 N 
ATOM     26  C   UNL     1       6.978   4.512  16.356  0.00  0.00    +0.000 C 
ENDBRANCH  20  21
ENDBRANCH  17  20
ENDBRANCH   1  17
TORSDOF 5
ENDMDL
MODEL 2
REMARK VINA RESULT:      -7.7      2.264      2.798
REMARK  Name = 
REMARK  7 active torsions:
REMARK  status: ('A' for Active; 'I' for Inactive)
REMARK    1  A    between atoms: C_1  and  C_2
REMARK    2  A    between atoms: C_2  and  C_3
REMARK    3  A    between atoms: C_3  and  S_4
REMARK    4  A    between atoms: C_3  and  C_11
REMARK    5  A    between atoms: S_4  and  C_5
REMARK    6  A    between atoms: N_9  and  C_10
REMARK    7  A    between atoms: C_17  and  C_18
REMARK                            x       y       z     vdW  Elec       q    Type
REMARK                         _______ _______ _______ _____ _____    ______ ____
ROOT
ATOM      1  C   UNL     1       2.381   6.515  19.730  0.00  0.00    +0.000 C 
ATOM      2  O   UNL     1       2.522   7.119  18.666  0.00  0.00    +0.000 OA
ATOM      3  N   UNL     1       1.856   7.066  20.884  0.00  0.00    +0.000 N 
ATOM      4  C   UNL     1       1.432   8.372  21.004  0.00  0.00    +0.000 A 
ATOM      5  N   UNL     1       1.143   8.948  22.151  0.00  0.00    +0.000 NA
ATOM      6  N   UNL     1       0.775  10.279  21.985  0.00  0.00    +0.000 NA
ATOM      7  C   UNL     1       0.793  10.651  20.717  0.00  0.00    +0.000 A 
ATOM      8  S   UNL     1       1.151   9.362  19.649  0.00  0.00    +0.000 S 
ATOM      9  H   UNL     1       1.947   6.565  21.759  0.00  0.00    +0.000 HD
ENDROOT
BRANCH   7  10
ATOM     10  C   UNL     1       0.479  11.992  20.199  0.00  0.00    +0.000 A 
ATOM     11  C   UNL     1       0.668  13.155  20.971  0.00  0.00    +0.000 A 
ATOM     12  C   UNL     1       0.391  14.422  20.448  0.00  0.00    +0.000 A 
ATOM     13  C   UNL     1      -0.090  14.541  19.148  0.00  0.00    +0.000 A 
ATOM     14 CL   UNL     1      -0.419  16.098  18.499  0.00  0.00    +0.000 Cl
ATOM     15  C   UNL     1      -0.304  13.403  18.373  0.00  0.00    +0.000 A 
ATOM     16  C   UNL     1      -0.027  12.136  18.899  0.00  0.00    +0.000 A 
ENDBRANCH   7  10
BRANCH   1  17
ATOM     17  C   UNL     1       2.667   5.006  19.790  0.00  0.00    +0.000 C 
BRANCH  17  19
ATOM     18  C   UNL     1       1.839   3.195  21.461  0.00  0.00    +0.000 C 
ATOM     19  C   UNL     1       1.483   4.292  20.475  0.00  0.00    +0.000 C 
ENDBRANCH  17  19
BRANCH  17  20
ATOM     20  S   UNL     1       3.174   4.295  18.180  0.00  0.00    +0.000 S 
BRANCH  20  21
ATOM     21  C   UNL     1       4.891   4.459  18.217  0.00  0.00    +0.000 A 
ATOM     22  N   UNL     1       5.642   4.538  19.291  0.00  0.00    +0.000 NA
ATOM     23  N   UNL     1       6.949   4.649  18.878  0.00  0.00    +0.000 NA
ATOM     24  C   UNL     1       6.953   4.629  17.565  0.00  0.00    +0.000 A 
ATOM     25  N   UNL     1       5.679   4.492  17.104  0.00  0.00    +0.000 N 
ATOM     26  C   UNL     1       5.294   4.404  15.722  0.00  0.00    +0.000 C 
ENDBRANCH  20  21
ENDBRANCH  17  20
ENDBRANCH   1  17
TORSDOF 5
ENDMDL
MODEL 3
REMARK VINA RESULT:      -7.6      0.785      1.220
REMARK  Name = 
REMARK  7 active torsions:
REMARK  status: ('A' for Active; 'I' for Inactive)
REMARK    1  A    between atoms: C_1  and  C_2
REMARK    2  A    between atoms: C_2  and  C_3
REMARK    3  A    between atoms: C_3  and  S_4
REMARK    4  A    between atoms: C_3  and  C_11
REMARK    5  A    between atoms: S_4  and  C_5
REMARK    6  A    between atoms: N_9  and  C_10
REMARK    7  A    between atoms: C_17  and  C_18
REMARK                            x       y       z     vdW  Elec       q    Type
REMARK                         _______ _______ _______ _____ _____    ______ ____
ROOT
ATOM      1  C   UNL     1       2.473   5.493  20.056  0.00  0.00    +0.000 C 
ATOM      2  O   UNL     1       1.693   5.375  21.001  0.00  0.00    +0.000 OA
ATOM      3  N   UNL     1       2.650   6.650  19.320  0.00  0.00    +0.000 N 
ATOM      4  C   UNL     1       1.966   7.827  19.537  0.00  0.00    +0.000 A 
ATOM      5  N   UNL     1       1.974   8.846  18.706  0.00  0.00    +0.000 NA
ATOM      6  N   UNL     1       1.172   9.889  19.155  0.00  0.00    +0.000 NA
ATOM      7  C   UNL     1       0.596   9.617  20.313  0.00  0.00    +0.000 A 
ATOM      8  S   UNL     1       1.094   8.117  20.970  0.00  0.00    +0.000 S 
ATOM      9  H   UNL     1       3.165   6.612  18.450  0.00  0.00    +0.000 HD
ENDROOT
BRANCH   7  10
ATOM     10  C   UNL     1      -0.328  10.492  21.052  0.00  0.00    +0.000 A 
ATOM     11  C   UNL     1      -0.507  10.383  22.446  0.00  0.00    +0.000 A 
ATOM     12  C   UNL     1      -1.368  11.245  23.132  0.00  0.00    +0.000 A 
ATOM     13  C   UNL     1      -2.070  12.220  22.432  0.00  0.00    +0.000 A 
ATOM     14 CL   UNL     1      -3.119  13.289  23.277  0.00  0.00    +0.000 Cl
ATOM     15  C   UNL     1      -1.923  12.334  21.051  0.00  0.00    +0.000 A 
ATOM     16  C   UNL     1      -1.062  11.470  20.366  0.00  0.00    +0.000 A 
ENDBRANCH   7  10
BRANCH   1  17
ATOM     17  C   UNL     1       3.436   4.344  19.718  0.00  0.00    +0.000 C 
BRANCH  17  19
ATOM     18  C   UNL     1       1.926   2.246  19.442  0.00  0.00    +0.000 C 
ATOM     19  C   UNL     1       2.888   3.031  20.315  0.00  0.00    +0.000 C 
ENDBRANCH  17  19
BRANCH  17  20
ATOM     20  S   UNL     1       3.879   4.261  17.942  0.00  0.00    +0.000 S 
BRANCH  20  21
ATOM     21  C   UNL     1       5.591   4.467  17.968  0.00  0.00    +0.000 A 
ATOM     22  N   UNL     1       6.323   4.771  19.016  0.00  0.00    +0.000 NA
ATOM     23  N   UNL     1       7.634   4.828  18.606  0.00  0.00    +0.000 NA
ATOM     24  C   UNL     1       7.661   4.551  17.322  0.00  0.00    +0.000 A 
ATOM     25  N   UNL     1       6.397   4.298  16.881  0.00  0.00    +0.000 N 
ATOM     26  C   UNL     1       6.038   3.933  15.538  0.00  0.00    +0.000 C 
ENDBRANCH  20  21
ENDBRANCH  17  20
ENDBRANCH   1  17
TORSDOF 5
ENDMDL
MODEL 4
REMARK VINA RESULT:      -7.6      1.556      1.650
REMARK  Name = 
REMARK  7 active torsions:
REMARK  status: ('A' for Active; 'I' for Inactive)
REMARK    1  A    between atoms: C_1  and  C_2
REMARK    2  A    between atoms: C_2  and  C_3
REMARK    3  A    between atoms: C_3  and  S_4
REMARK    4  A    between atoms: C_3  and  C_11
REMARK    5  A    between atoms: S_4  and  C_5
REMARK    6  A    between atoms: N_9  and  C_10
REMARK    7  A    between atoms: C_17  and  C_18
REMARK                            x       y       z     vdW  Elec       q    Type
REMARK                         _______ _______ _______ _____ _____    ______ ____
ROOT
ATOM      1  C   UNL     1       2.473   5.380  19.564  0.00  0.00    +0.000 C 
ATOM      2  O   UNL     1       1.693   5.619  20.486  0.00  0.00    +0.000 OA
ATOM      3  N   UNL     1       2.834   6.285  18.583  0.00  0.00    +0.000 N 
ATOM      4  C   UNL     1       2.356   7.575  18.496  0.00  0.00    +0.000 A 
ATOM      5  N   UNL     1       2.527   8.353  17.449  0.00  0.00    +0.000 NA
ATOM      6  N   UNL     1       1.913   9.589  17.615  0.00  0.00    +0.000 NA
ATOM      7  C   UNL     1       1.310   9.698  18.786  0.00  0.00    +0.000 A 
ATOM      8  S   UNL     1       1.557   8.335  19.792  0.00  0.00    +0.000 S 
ATOM      9  H   UNL     1       3.328   5.957  17.762  0.00  0.00    +0.000 HD
ENDROOT
BRANCH   7  10
ATOM     10  C   UNL     1       0.551  10.862  19.270  0.00  0.00    +0.000 A 
ATOM     11  C   UNL     1       1.106  11.796  20.167  0.00  0.00    +0.000 A 
ATOM     12  C   UNL     1       0.377  12.911  20.591  0.00  0.00    +0.000 A 
ATOM     13  C   UNL     1      -0.922  13.101  20.130  0.00  0.00    +0.000 A 
ATOM     14 CL   UNL     1      -1.816  14.479  20.640  0.00  0.00    +0.000 Cl
ATOM     15  C   UNL     1      -1.499  12.180  19.257  0.00  0.00    +0.000 A 
ATOM     16  C   UNL     1      -0.767  11.064  18.836  0.00  0.00    +0.000 A 
ENDBRANCH   7  10
BRANCH   1  17
ATOM     17  C   UNL     1       3.229   4.042  19.536  0.00  0.00    +0.000 C 
BRANCH  17  19
ATOM     18  C   UNL     1       1.205   2.657  18.673  0.00  0.00    +0.000 C 
ATOM     19  C   UNL     1       2.229   2.889  19.768  0.00  0.00    +0.000 C 
ENDBRANCH  17  19
BRANCH  17  20
ATOM     20  S   UNL     1       4.309   3.845  18.070  0.00  0.00    +0.000 S 
BRANCH  20  21
ATOM     21  C   UNL     1       5.784   4.575  18.585  0.00  0.00    +0.000 A 
ATOM     22  N   UNL     1       6.082   4.949  19.808  0.00  0.00    +0.000 NA
ATOM     23  N   UNL     1       7.353   5.472  19.786  0.00  0.00    +0.000 NA
ATOM     24  C   UNL     1       7.793   5.394  18.551  0.00  0.00    +0.000 A 
ATOM     25  N   UNL     1       6.844   4.818  17.762  0.00  0.00    +0.000 N 
ATOM     26  C   UNL     1       6.979   4.543  16.357  0.00  0.00    +0.000 C 
ENDBRANCH  20  21
ENDBRANCH  17  20
ENDBRANCH   1  17
TORSDOF 5
ENDMDL
MODEL 5
REMARK VINA RESULT:      -7.5      1.979      3.481
REMARK  Name = 
REMARK  7 active torsions:
REMARK  status: ('A' for Active; 'I' for Inactive)
REMARK    1  A    between atoms: C_1  and  C_2
REMARK    2  A    between atoms: C_2  and  C_3
REMARK    3  A    between atoms: C_3  and  S_4
REMARK    4  A    between atoms: C_3  and  C_11
REMARK    5  A    between atoms: S_4  and  C_5
REMARK    6  A    between atoms: N_9  and  C_10
REMARK    7  A    between atoms: C_17  and  C_18
REMARK                            x       y       z     vdW  Elec       q    Type
REMARK                         _______ _______ _______ _____ _____    ______ ____
ROOT
ATOM      1  C   UNL     1       3.786   6.112  18.525  0.00  0.00    +0.000 C 
ATOM      2  O   UNL     1       3.415   5.848  19.670  0.00  0.00    +0.000 OA
ATOM      3  N   UNL     1       3.364   7.206  17.794  0.00  0.00    +0.000 N 
ATOM      4  C   UNL     1       2.460   8.145  18.242  0.00  0.00    +0.000 A 
ATOM      5  N   UNL     1       1.899   9.051  17.472  0.00  0.00    +0.000 NA
ATOM      6  N   UNL     1       1.001   9.847  18.175  0.00  0.00    +0.000 NA
ATOM      7  C   UNL     1       0.927   9.513  19.452  0.00  0.00    +0.000 A 
ATOM      8  S   UNL     1       2.035   8.282  19.885  0.00  0.00    +0.000 S 
ATOM      9  H   UNL     1       3.567   7.249  16.803  0.00  0.00    +0.000 HD
ENDROOT
BRANCH   7  10
ATOM     10  C   UNL     1       0.062  10.136  20.466  0.00  0.00    +0.000 A 
ATOM     11  C   UNL     1       0.007   9.666  21.794  0.00  0.00    +0.000 A 
ATOM     12  C   UNL     1      -0.800  10.292  22.748  0.00  0.00    +0.000 A 
ATOM     13  C   UNL     1      -1.571  11.391  22.385  0.00  0.00    +0.000 A 
ATOM     14 CL   UNL     1      -2.554  12.171  23.561  0.00  0.00    +0.000 Cl
ATOM     15  C   UNL     1      -1.547  11.862  21.073  0.00  0.00    +0.000 A 
ATOM     16  C   UNL     1      -0.740  11.232  20.119  0.00  0.00    +0.000 A 
ENDBRANCH   7  10
BRANCH   1  17
ATOM     17  C   UNL     1       4.895   5.271  17.873  0.00  0.00    +0.000 C 
BRANCH  17  19
ATOM     18  C   UNL     1       7.250   5.581  18.929  0.00  0.00    +0.000 C 
ATOM     19  C   UNL     1       5.918   4.856  18.952  0.00  0.00    +0.000 C 
ENDBRANCH  17  19
BRANCH  17  20
ATOM     20  S   UNL     1       4.258   3.898  16.842  0.00  0.00    +0.000 S 
BRANCH  20  21
ATOM     21  C   UNL     1       2.846   3.403  17.699  0.00  0.00    +0.000 A 
ATOM     22  N   UNL     1       1.605   3.703  17.392  0.00  0.00    +0.000 NA
ATOM     23  N   UNL     1       0.789   3.103  18.322  0.00  0.00    +0.000 NA
ATOM     24  C   UNL     1       1.559   2.451  19.163  0.00  0.00    +0.000 A 
ATOM     25  N   UNL     1       2.863   2.597  18.799  0.00  0.00    +0.000 N 
ATOM     26  C   UNL     1       3.989   2.004  19.466  0.00  0.00    +0.000 C 
ENDBRANCH  20  21
ENDBRANCH  17  20
ENDBRANCH   1  17
TORSDOF 5
ENDMDL
MODEL 6
REMARK VINA RESULT:      -7.5      0.889      1.317
REMARK  Name = 
REMARK  7 active torsions:
REMARK  status: ('A' for Active; 'I' for Inactive)
REMARK    1  A    between atoms: C_1  and  C_2
REMARK    2  A    between atoms: C_2  and  C_3
REMARK    3  A    between atoms: C_3  and  S_4
REMARK    4  A    between atoms: C_3  and  C_11
REMARK    5  A    between atoms: S_4  and  C_5
REMARK    6  A    between atoms: N_9  and  C_10
REMARK    7  A    between atoms: C_17  and  C_18
REMARK                            x       y       z     vdW  Elec       q    Type
REMARK                         _______ _______ _______ _____ _____    ______ ____
ROOT
ATOM      1  C   UNL     1       2.933   4.909  19.751  0.00  0.00    +0.000 C 
ATOM      2  O   UNL     1       2.266   4.786  20.779  0.00  0.00    +0.000 OA
ATOM      3  N   UNL     1       3.007   6.061  18.992  0.00  0.00    +0.000 N 
ATOM      4  C   UNL     1       2.330   7.228  19.276  0.00  0.00    +0.000 A 
ATOM      5  N   UNL     1       2.227   8.240  18.441  0.00  0.00    +0.000 NA
ATOM      6  N   UNL     1       1.461   9.273  18.969  0.00  0.00    +0.000 NA
ATOM      7  C   UNL     1       1.023   9.002  20.186  0.00  0.00    +0.000 A 
ATOM      8  S   UNL     1       1.617   7.517  20.794  0.00  0.00    +0.000 S 
ATOM      9  H   UNL     1       3.422   6.024  18.070  0.00  0.00    +0.000 HD
ENDROOT
BRANCH   7  10
ATOM     10  C   UNL     1       0.171   9.868  21.017  0.00  0.00    +0.000 A 
ATOM     11  C   UNL     1      -0.170   9.531  22.343  0.00  0.00    +0.000 A 
ATOM     12  C   UNL     1      -0.956  10.383  23.124  0.00  0.00    +0.000 A 
ATOM     13  C   UNL     1      -1.420  11.580  22.587  0.00  0.00    +0.000 A 
ATOM     14 CL   UNL     1      -2.375  12.635  23.551  0.00  0.00    +0.000 Cl
ATOM     15  C   UNL     1      -1.110  11.925  21.272  0.00  0.00    +0.000 A 
ATOM     16  C   UNL     1      -0.325  11.069  20.491  0.00  0.00    +0.000 A 
ENDBRANCH   7  10
BRANCH   1  17
ATOM     17  C   UNL     1       3.873   3.773  19.317  0.00  0.00    +0.000 C 
BRANCH  17  19
ATOM     18  C   UNL     1       1.968   2.190  18.529  0.00  0.00    +0.000 C 
ATOM     19  C   UNL     1       3.140   2.423  19.464  0.00  0.00    +0.000 C 
ENDBRANCH  17  19
BRANCH  17  20
ATOM     20  S   UNL     1       4.653   4.056  17.683  0.00  0.00    +0.000 S 
BRANCH  20  21
ATOM     21  C   UNL     1       6.074   4.944  18.090  0.00  0.00    +0.000 A 
ATOM     22  N   UNL     1       7.056   4.532  18.858  0.00  0.00    +0.000 NA
ATOM     23  N   UNL     1       7.992   5.537  18.914  0.00  0.00    +0.000 NA
ATOM     24  C   UNL     1       7.554   6.529  18.172  0.00  0.00    +0.000 A 
ATOM     25  N   UNL     1       6.356   6.192  17.619  0.00  0.00    +0.000 N 
ATOM     26  C   UNL     1       5.586   7.016  16.727  0.00  0.00    +0.000 C 
ENDBRANCH  20  21
ENDBRANCH  17  20
ENDBRANCH   1  17
TORSDOF 5
ENDMDL
MODEL 7
REMARK VINA RESULT:      -7.3      1.991      3.325
REMARK  Name = 
REMARK  7 active torsions:
REMARK  status: ('A' for Active; 'I' for Inactive)
REMARK    1  A    between atoms: C_1  and  C_2
REMARK    2  A    between atoms: C_2  and  C_3
REMARK    3  A    between atoms: C_3  and  S_4
REMARK    4  A    between atoms: C_3  and  C_11
REMARK    5  A    between atoms: S_4  and  C_5
REMARK    6  A    between atoms: N_9  and  C_10
REMARK    7  A    between atoms: C_17  and  C_18
REMARK                            x       y       z     vdW  Elec       q    Type
REMARK                         _______ _______ _______ _____ _____    ______ ____
ROOT
ATOM      1  C   UNL     1       3.564   6.245  18.584  0.00  0.00    +0.000 C 
ATOM      2  O   UNL     1       3.186   5.992  19.728  0.00  0.00    +0.000 OA
ATOM      3  N   UNL     1       3.167   7.345  17.848  0.00  0.00    +0.000 N 
ATOM      4  C   UNL     1       2.282   8.304  18.291  0.00  0.00    +0.000 A 
ATOM      5  N   UNL     1       1.741   9.219  17.517  0.00  0.00    +0.000 NA
ATOM      6  N   UNL     1       0.859  10.036  18.216  0.00  0.00    +0.000 NA
ATOM      7  C   UNL     1       0.775   9.708  19.493  0.00  0.00    +0.000 A 
ATOM      8  S   UNL     1       1.857   8.456  19.933  0.00  0.00    +0.000 S 
ATOM      9  H   UNL     1       3.373   7.381  16.858  0.00  0.00    +0.000 HD
ENDROOT
BRANCH   7  10
ATOM     10  C   UNL     1      -0.079  10.352  20.504  0.00  0.00    +0.000 A 
ATOM     11  C   UNL     1      -0.939  11.422  20.184  0.00  0.00    +0.000 A 
ATOM     12  C   UNL     1      -1.763  12.000  21.153  0.00  0.00    +0.000 A 
ATOM     13  C   UNL     1      -1.731  11.523  22.459  0.00  0.00    +0.000 A 
ATOM     14 CL   UNL     1      -2.754  12.223  23.650  0.00  0.00    +0.000 Cl
ATOM     15  C   UNL     1      -0.874  10.478  22.803  0.00  0.00    +0.000 A 
ATOM     16  C   UNL     1      -0.049   9.902  21.831  0.00  0.00    +0.000 A 
ENDBRANCH   7  10
BRANCH   1  17
ATOM     17  C   UNL     1       4.657   5.378  17.937  0.00  0.00    +0.000 C 
BRANCH  17  19
ATOM     18  C   UNL     1       7.165   5.388  18.621  0.00  0.00    +0.000 C 
ATOM     19  C   UNL     1       5.734   5.048  18.992  0.00  0.00    +0.000 C 
ENDBRANCH  17  19
BRANCH  17  20
ATOM     20  S   UNL     1       3.998   3.933  17.026  0.00  0.00    +0.000 S 
BRANCH  20  21
ATOM     21  C   UNL     1       2.730   3.381  18.056  0.00  0.00    +0.000 A 
ATOM     22  N   UNL     1       1.444   3.585  17.886  0.00  0.00    +0.000 NA
ATOM     23  N   UNL     1       0.784   2.971  18.924  0.00  0.00    +0.000 NA
ATOM     24  C   UNL     1       1.688   2.405  19.691  0.00  0.00    +0.000 A 
ATOM     25  N   UNL     1       2.929   2.623  19.173  0.00  0.00    +0.000 N 
ATOM     26  C   UNL     1       4.163   2.133  19.724  0.00  0.00    +0.000 C 
ENDBRANCH  20  21
ENDBRANCH  17  20
ENDBRANCH   1  17
TORSDOF 5
ENDMDL
MODEL 8
REMARK VINA RESULT:      -7.3      2.590      3.638
REMARK  Name = 
REMARK  7 active torsions:
REMARK  status: ('A' for Active; 'I' for Inactive)
REMARK    1  A    between atoms: C_1  and  C_2
REMARK    2  A    between atoms: C_2  and  C_3
REMARK    3  A    between atoms: C_3  and  S_4
REMARK    4  A    between atoms: C_3  and  C_11
REMARK    5  A    between atoms: S_4  and  C_5
REMARK    6  A    between atoms: N_9  and  C_10
REMARK    7  A    between atoms: C_17  and  C_18
REMARK                            x       y       z     vdW  Elec       q    Type
REMARK                         _______ _______ _______ _____ _____    ______ ____
ROOT
ATOM      1  C   UNL     1       1.844   7.769  20.135  0.00  0.00    +0.000 C 
ATOM      2  O   UNL     1       1.638   8.560  19.214  0.00  0.00    +0.000 OA
ATOM      3  N   UNL     1       1.441   7.960  21.443  0.00  0.00    +0.000 N 
ATOM      4  C   UNL     1       0.763   9.071  21.898  0.00  0.00    +0.000 A 
ATOM      5  N   UNL     1       0.578   9.349  23.169  0.00  0.00    +0.000 NA
ATOM      6  N   UNL     1      -0.106  10.547  23.345  0.00  0.00    +0.000 NA
ATOM      7  C   UNL     1      -0.417  11.121  22.196  0.00  0.00    +0.000 A 
ATOM      8  S   UNL     1       0.011  10.171  20.838  0.00  0.00    +0.000 S 
ATOM      9  H   UNL     1       1.809   7.359  22.169  0.00  0.00    +0.000 HD
ENDROOT
BRANCH   7  10
ATOM     10  C   UNL     1      -1.120  12.403  22.025  0.00  0.00    +0.000 A 
ATOM     11  C   UNL     1      -1.342  12.970  20.755  0.00  0.00    +0.000 A 
ATOM     12  C   UNL     1      -2.038  14.174  20.614  0.00  0.00    +0.000 A 
ATOM     13  C   UNL     1      -2.512  14.833  21.744  0.00  0.00    +0.000 A 
ATOM     14 CL   UNL     1      -3.380  16.307  21.572  0.00  0.00    +0.000 Cl
ATOM     15  C   UNL     1      -2.287  14.300  23.012  0.00  0.00    +0.000 A 
ATOM     16  C   UNL     1      -1.589  13.095  23.150  0.00  0.00    +0.000 A 
ENDBRANCH   7  10
BRANCH   1  17
ATOM     17  C   UNL     1       2.471   6.398  19.831  0.00  0.00    +0.000 C 
BRANCH  17  19
ATOM     18  C   UNL     1       2.287   4.311  21.370  0.00  0.00    +0.000 C 
ATOM     19  C   UNL     1       1.589   5.290  20.445  0.00  0.00    +0.000 C 
ENDBRANCH  17  19
BRANCH  17  20
ATOM     20  S   UNL     1       2.890   6.163  18.064  0.00  0.00    +0.000 S 
BRANCH  20  21
ATOM     21  C   UNL     1       2.840   4.449  17.887  0.00  0.00    +0.000 A 
ATOM     22  N   UNL     1       1.857   3.748  17.370  0.00  0.00    +0.000 NA
ATOM     23  N   UNL     1       2.224   2.423  17.409  0.00  0.00    +0.000 NA
ATOM     24  C   UNL     1       3.422   2.359  17.943  0.00  0.00    +0.000 A 
ATOM     25  N   UNL     1       3.858   3.614  18.244  0.00  0.00    +0.000 N 
ATOM     26  C   UNL     1       5.135   3.940  18.817  0.00  0.00    +0.000 C 
ENDBRANCH  20  21
ENDBRANCH  17  20
ENDBRANCH   1  17
TORSDOF 5
ENDMDL
MODEL 9
REMARK VINA RESULT:      -7.3      2.150      2.624
REMARK  Name = 
REMARK  7 active torsions:
REMARK  status: ('A' for Active; 'I' for Inactive)
REMARK    1  A    between atoms: C_1  and  C_2
REMARK    2  A    between atoms: C_2  and  C_3
REMARK    3  A    between atoms: C_3  and  S_4
REMARK    4  A    between atoms: C_3  and  C_11
REMARK    5  A    between atoms: S_4  and  C_5
REMARK    6  A    between atoms: N_9  and  C_10
REMARK    7  A    between atoms: C_17  and  C_18
REMARK                            x       y       z     vdW  Elec       q    Type
REMARK                         _______ _______ _______ _____ _____    ______ ____
ROOT
ATOM      1  C   UNL     1       2.102   7.648  19.794  0.00  0.00    +0.000 C 
ATOM      2  O   UNL     1       1.608   8.317  18.885  0.00  0.00    +0.000 OA
ATOM      3  N   UNL     1       1.870   7.856  21.140  0.00  0.00    +0.000 N 
ATOM      4  C   UNL     1       1.063   8.850  21.650  0.00  0.00    +0.000 A 
ATOM      5  N   UNL     1       1.020   9.181  22.922  0.00  0.00    +0.000 NA
ATOM      6  N   UNL     1       0.147  10.239  23.154  0.00  0.00    +0.000 NA
ATOM      7  C   UNL     1      -0.439  10.659  22.047  0.00  0.00    +0.000 A 
ATOM      8  S   UNL     1      -0.041   9.708  20.680  0.00  0.00    +0.000 S 
ATOM      9  H   UNL     1       2.454   7.389  21.823  0.00  0.00    +0.000 HD
ENDROOT
BRANCH   7  10
ATOM     10  C   UNL     1      -1.398  11.769  21.937  0.00  0.00    +0.000 A 
ATOM     11  C   UNL     1      -1.672  12.402  20.707  0.00  0.00    +0.000 A 
ATOM     12  C   UNL     1      -2.609  13.436  20.621  0.00  0.00    +0.000 A 
ATOM     13  C   UNL     1      -3.277  13.859  21.765  0.00  0.00    +0.000 A 
ATOM     14 CL   UNL     1      -4.439  15.121  21.658  0.00  0.00    +0.000 Cl
ATOM     15  C   UNL     1      -3.008  13.261  22.995  0.00  0.00    +0.000 A 
ATOM     16  C   UNL     1      -2.069  12.227  23.080  0.00  0.00    +0.000 A 
ENDBRANCH   7  10
BRANCH   1  17
ATOM     17  C   UNL     1       2.934   6.401  19.453  0.00  0.00    +0.000 C 
BRANCH  17  19
ATOM     18  C   UNL     1       1.742   4.309  18.473  0.00  0.00    +0.000 C 
ATOM     19  C   UNL     1       2.079   5.139  19.697  0.00  0.00    +0.000 C 
ENDBRANCH  17  19
BRANCH  17  20
ATOM     20  S   UNL     1       3.735   6.486  17.808  0.00  0.00    +0.000 S 
BRANCH  20  21
ATOM     21  C   UNL     1       5.244   5.697  18.080  0.00  0.00    +0.000 A 
ATOM     22  N   UNL     1       5.746   5.357  19.245  0.00  0.00    +0.000 NA
ATOM     23  N   UNL     1       6.956   4.746  19.016  0.00  0.00    +0.000 NA
ATOM     24  C   UNL     1       7.150   4.726  17.717  0.00  0.00    +0.000 A 
ATOM     25  N   UNL     1       6.089   5.299  17.086  0.00  0.00    +0.000 N 
ATOM     26  C   UNL     1       5.934   5.433  15.663  0.00  0.00    +0.000 C 
ENDBRANCH  20  21
ENDBRANCH  17  20
ENDBRANCH   1  17
TORSDOF 5
ENDMDL
