MODEL 1
REMARK VINA RESULT:      -8.9      0.000      0.000
REMARK  Name = 
REMARK  9 active torsions:
REMARK  status: ('A' for Active; 'I' for Inactive)
REMARK    1  A    between atoms: C_1  and  C_2
REMARK    2  A    between atoms: C_3  and  O_4
REMARK    3  A    between atoms: N_9  and  C_10
REMARK    4  A    between atoms: C_10  and  C_11
REMARK    5  A    between atoms: C_11  and  N_12
REMARK    6  A    between atoms: C_13  and  C_15
REMARK    7  A    between atoms: C_20  and  O_21
REMARK    8  A    between atoms: O_21  and  C_22
REMARK    9  A    between atoms: C_22  and  C_23
REMARK                            x       y       z     vdW  Elec       q    Type
REMARK                         _______ _______ _______ _____ _____    ______ ____
ROOT
ATOM      1  C   UNL     1       1.720   8.033  19.483  0.00  0.00    +0.000 A 
ATOM      2  C   UNL     1       1.241   7.964  20.734  0.00  0.00    +0.000 A 
ATOM      3  C   UNL     1       0.513   9.088  21.287  0.00  0.00    +0.000 A 
ATOM      4  C   UNL     1       0.285   9.206  22.653  0.00  0.00    +0.000 A 
ATOM      5  C   UNL     1      -0.411  10.309  23.146  0.00  0.00    +0.000 A 
ATOM      6  C   UNL     1      -0.953  11.260  22.272  0.00  0.00    +0.000 A 
ATOM      7  C   UNL     1      -0.703  11.154  20.903  0.00  0.00    +0.000 A 
ATOM      8  C   UNL     1       0.059  10.087  20.434  0.00  0.00    +0.000 A 
ATOM      9  O   UNL     1       0.435  10.080  19.081  0.00  0.00    +0.000 OA
ATOM     10  C   UNL     1       1.462   9.236  18.661  0.00  0.00    +0.000 A 
ATOM     11  O   UNL     1       2.086   9.456  17.627  0.00  0.00    +0.000 OA
ENDROOT
BRANCH   1  13
ATOM     12  N   UNL     1       3.285   6.228  19.972  0.00  0.00    +0.000 N 
ATOM     13  C   UNL     1       2.531   6.867  19.021  0.00  0.00    +0.000 C 
ATOM     14  O   UNL     1       2.512   6.497  17.848  0.00  0.00    +0.000 OA
ATOM     15  H   UNL     1       3.168   6.493  20.950  0.00  0.00    +0.000 HD
BRANCH  12  16
ATOM     16  C   UNL     1       4.002   4.996  19.675  0.00  0.00    +0.000 C 
BRANCH  16  17
ATOM     17  C   UNL     1       5.471   5.217  19.271  0.00  0.00    +0.000 C 
BRANCH  17  25
ATOM     18  C   UNL     1       7.532   6.592  17.649  0.00  0.00    +0.000 C 
ATOM     19  C   UNL     1       6.687   5.494  17.040  0.00  0.00    +0.000 A 
ATOM     20  C   UNL     1       6.853   5.158  15.735  0.00  0.00    +0.000 A 
ATOM     21  C   UNL     1       5.965   4.122  15.120  0.00  0.00    +0.000 A 
ATOM     22  O   UNL     1       6.070   3.759  13.952  0.00  0.00    +0.000 OA
ATOM     23  C   UNL     1       4.936   3.520  15.990  0.00  0.00    +0.000 A 
ATOM     24  C   UNL     1       4.881   3.916  17.264  0.00  0.00    +0.000 A 
ATOM     25  N   UNL     1       5.705   4.874  17.855  0.00  0.00    +0.000 N 
BRANCH  20  26
ATOM     26  O   UNL     1       7.806   5.718  14.909  0.00  0.00    +0.000 OA
ATOM     27  H   UNL     1       7.331   6.013  14.120  0.00  0.00    +0.000 HD
ENDBRANCH  20  26
ENDBRANCH  17  25
ENDBRANCH  16  17
ENDBRANCH  12  16
ENDBRANCH   1  13
BRANCH   6  28
ATOM     28  O   UNL     1      -1.723  12.326  22.661  0.00  0.00    +0.000 OA
BRANCH  28  29
ATOM     29  C   UNL     1      -2.677  12.762  21.689  0.00  0.00    +0.000 C 
BRANCH  29  30
ATOM     30  C   UNL     1      -4.085  12.731  22.227  0.00  0.00    +0.000 A 
ATOM     31  C   UNL     1      -4.285  12.772  23.615  0.00  0.00    +0.000 A 
ATOM     32  C   UNL     1      -5.576  12.793  24.147  0.00  0.00    +0.000 A 
ATOM     33  C   UNL     1      -6.673  12.774  23.293  0.00  0.00    +0.000 A 
ATOM     34  C   UNL     1      -6.489  12.759  21.911  0.00  0.00    +0.000 A 
ATOM     35  C   UNL     1      -5.198  12.737  21.380  0.00  0.00    +0.000 A 
ENDBRANCH  29  30
ENDBRANCH  28  29
ENDBRANCH   6  28
TORSDOF 8
ENDMDL
MODEL 2
REMARK VINA RESULT:      -8.8      2.747      4.046
REMARK  Name = 
REMARK  9 active torsions:
REMARK  status: ('A' for Active; 'I' for Inactive)
REMARK    1  A    between atoms: C_1  and  C_2
REMARK    2  A    between atoms: C_3  and  O_4
REMARK    3  A    between atoms: N_9  and  C_10
REMARK    4  A    between atoms: C_10  and  C_11
REMARK    5  A    between atoms: C_11  and  N_12
REMARK    6  A    between atoms: C_13  and  C_15
REMARK    7  A    between atoms: C_20  and  O_21
REMARK    8  A    between atoms: O_21  and  C_22
REMARK    9  A    between atoms: C_22  and  C_23
REMARK                            x       y       z     vdW  Elec       q    Type
REMARK                         _______ _______ _______ _____ _____    ______ ____
ROOT
ATOM      1  C   UNL     1       2.767   5.800  19.275  0.00  0.00    +0.000 A 
ATOM      2  C   UNL     1       2.910   6.907  18.530  0.00  0.00    +0.000 A 
ATOM      3  C   UNL     1       2.126   8.085  18.837  0.00  0.00    +0.000 A 
ATOM      4  C   UNL     1       1.986   9.126  17.927  0.00  0.00    +0.000 A 
ATOM      5  C   UNL     1       1.214  10.238  18.259  0.00  0.00    +0.000 A 
ATOM      6  C   UNL     1       0.641  10.356  19.531  0.00  0.00    +0.000 A 
ATOM      7  C   UNL     1       0.761   9.301  20.437  0.00  0.00    +0.000 A 
ATOM      8  C   UNL     1       1.472   8.163  20.062  0.00  0.00    +0.000 A 
ATOM      9  O   UNL     1       1.450   7.050  20.919  0.00  0.00    +0.000 OA
ATOM     10  C   UNL     1       1.847   5.806  20.433  0.00  0.00    +0.000 A 
ATOM     11  O   UNL     1       1.489   4.764  20.977  0.00  0.00    +0.000 OA
ENDROOT
BRANCH   1  13
ATOM     12  N   UNL     1       3.490   4.288  17.503  0.00  0.00    +0.000 N 
ATOM     13  C   UNL     1       3.548   4.604  18.837  0.00  0.00    +0.000 C 
ATOM     14  O   UNL     1       4.215   3.947  19.634  0.00  0.00    +0.000 OA
ATOM     15  H   UNL     1       3.028   4.936  16.865  0.00  0.00    +0.000 HD
BRANCH  12  16
ATOM     16  C   UNL     1       4.320   3.236  16.934  0.00  0.00    +0.000 C 
BRANCH  16  17
ATOM     17  C   UNL     1       5.503   3.763  16.103  0.00  0.00    +0.000 C 
BRANCH  17  25
ATOM     18  C   UNL     1       5.253   6.636  15.428  0.00  0.00    +0.000 C 
ATOM     19  C   UNL     1       6.163   6.192  16.552  0.00  0.00    +0.000 A 
ATOM     20  C   UNL     1       6.892   7.111  17.235  0.00  0.00    +0.000 A 
ATOM     21  C   UNL     1       7.844   6.658  18.298  0.00  0.00    +0.000 A 
ATOM     22  O   UNL     1       8.522   7.435  18.963  0.00  0.00    +0.000 OA
ATOM     23  C   UNL     1       7.938   5.205  18.538  0.00  0.00    +0.000 A 
ATOM     24  C   UNL     1       7.156   4.398  17.817  0.00  0.00    +0.000 A 
ATOM     25  N   UNL     1       6.258   4.803  16.829  0.00  0.00    +0.000 N 
BRANCH  20  26
ATOM     26  O   UNL     1       6.819   8.471  17.016  0.00  0.00    +0.000 OA
ATOM     27  H   UNL     1       6.476   8.577  16.118  0.00  0.00    +0.000 HD
ENDBRANCH  20  26
ENDBRANCH  17  25
ENDBRANCH  16  17
ENDBRANCH  12  16
ENDBRANCH   1  13
BRANCH   6  28
ATOM     28  O   UNL     1      -0.059  11.449  19.973  0.00  0.00    +0.000 OA
BRANCH  28  29
ATOM     29  C   UNL     1      -0.531  12.316  18.939  0.00  0.00    +0.000 C 
BRANCH  29  30
ATOM     30  C   UNL     1      -1.950  11.998  18.539  0.00  0.00    +0.000 A 
ATOM     31  C   UNL     1      -2.186  11.369  17.308  0.00  0.00    +0.000 A 
ATOM     32  C   UNL     1      -3.483  11.016  16.928  0.00  0.00    +0.000 A 
ATOM     33  C   UNL     1      -4.549  11.290  17.777  0.00  0.00    +0.000 A 
ATOM     34  C   UNL     1      -4.325  11.893  19.014  0.00  0.00    +0.000 A 
ATOM     35  C   UNL     1      -3.028  12.246  19.394  0.00  0.00    +0.000 A 
ENDBRANCH  29  30
ENDBRANCH  28  29
ENDBRANCH   6  28
TORSDOF 8
ENDMDL
MODEL 3
REMARK VINA RESULT:      -8.7      0.973      1.063
REMARK  Name = 
REMARK  9 active torsions:
REMARK  status: ('A' for Active; 'I' for Inactive)
REMARK    1  A    between atoms: C_1  and  C_2
REMARK    2  A    between atoms: C_3  and  O_4
REMARK    3  A    between atoms: N_9  and  C_10
REMARK    4  A    between atoms: C_10  and  C_11
REMARK    5  A    between atoms: C_11  and  N_12
REMARK    6  A    between atoms: C_13  and  C_15
REMARK    7  A    between atoms: C_20  and  O_21
REMARK    8  A    between atoms: O_21  and  C_22
REMARK    9  A    between atoms: C_22  and  C_23
REMARK                            x       y       z     vdW  Elec       q    Type
REMARK                         _______ _______ _______ _____ _____    ______ ____
ROOT
ATOM      1  C   UNL     1       1.399   7.696  20.377  0.00  0.00    +0.000 A 
ATOM      2  C   UNL     1       0.712   7.956  21.499  0.00  0.00    +0.000 A 
ATOM      3  C   UNL     1       0.112   9.261  21.688  0.00  0.00    +0.000 A 
ATOM      4  C   UNL     1      -0.318   9.692  22.938  0.00  0.00    +0.000 A 
ATOM      5  C   UNL     1      -0.882  10.959  23.078  0.00  0.00    +0.000 A 
ATOM      6  C   UNL     1      -1.093  11.774  21.958  0.00  0.00    +0.000 A 
ATOM      7  C   UNL     1      -0.640  11.352  20.708  0.00  0.00    +0.000 A 
ATOM      8  C   UNL     1      -0.010  10.115  20.598  0.00  0.00    +0.000 A 
ATOM      9  O   UNL     1       0.581   9.774  19.369  0.00  0.00    +0.000 OA
ATOM     10  C   UNL     1       1.498   8.726  19.320  0.00  0.00    +0.000 A 
ATOM     11  O   UNL     1       2.317   8.637  18.408  0.00  0.00    +0.000 OA
ENDROOT
BRANCH   1  13
ATOM     12  N   UNL     1       3.270   6.307  19.659  0.00  0.00    +0.000 N 
ATOM     13  C   UNL     1       2.058   6.359  20.301  0.00  0.00    +0.000 C 
ATOM     14  O   UNL     1       1.543   5.360  20.800  0.00  0.00    +0.000 OA
ATOM     15  H   UNL     1       3.713   7.181  19.377  0.00  0.00    +0.000 HD
BRANCH  12  16
ATOM     16  C   UNL     1       4.074   5.093  19.648  0.00  0.00    +0.000 C 
BRANCH  16  17
ATOM     17  C   UNL     1       5.534   5.322  19.216  0.00  0.00    +0.000 C 
BRANCH  17  25
ATOM     18  C   UNL     1       7.585   6.642  17.537  0.00  0.00    +0.000 C 
ATOM     19  C   UNL     1       6.728   5.533  16.966  0.00  0.00    +0.000 A 
ATOM     20  C   UNL     1       6.880   5.162  15.669  0.00  0.00    +0.000 A 
ATOM     21  C   UNL     1       5.981   4.114  15.091  0.00  0.00    +0.000 A 
ATOM     22  O   UNL     1       6.072   3.720  13.932  0.00  0.00    +0.000 OA
ATOM     23  C   UNL     1       4.958   3.541  15.986  0.00  0.00    +0.000 A 
ATOM     24  C   UNL     1       4.917   3.971  17.250  0.00  0.00    +0.000 A 
ATOM     25  N   UNL     1       5.751   4.940  17.806  0.00  0.00    +0.000 N 
BRANCH  20  26
ATOM     26  O   UNL     1       7.827   5.694  14.819  0.00  0.00    +0.000 OA
ATOM     27  H   UNL     1       8.525   6.048  15.389  0.00  0.00    +0.000 HD
ENDBRANCH  20  26
ENDBRANCH  17  25
ENDBRANCH  16  17
ENDBRANCH  12  16
ENDBRANCH   1  13
BRANCH   6  28
ATOM     28  O   UNL     1      -1.717  12.995  21.990  0.00  0.00    +0.000 OA
BRANCH  28  29
ATOM     29  C   UNL     1      -2.104  13.437  23.294  0.00  0.00    +0.000 C 
BRANCH  29  30
ATOM     30  C   UNL     1      -3.598  13.383  23.488  0.00  0.00    +0.000 A 
ATOM     31  C   UNL     1      -4.137  12.434  24.369  0.00  0.00    +0.000 A 
ATOM     32  C   UNL     1      -5.512  12.388  24.609  0.00  0.00    +0.000 A 
ATOM     33  C   UNL     1      -6.354  13.290  23.970  0.00  0.00    +0.000 A 
ATOM     34  C   UNL     1      -5.829  14.255  23.111  0.00  0.00    +0.000 A 
ATOM     35  C   UNL     1      -4.454  14.301  22.870  0.00  0.00    +0.000 A 
ENDBRANCH  29  30
ENDBRANCH  28  29
ENDBRANCH   6  28
TORSDOF 8
ENDMDL
MODEL 4
REMARK VINA RESULT:      -8.6      1.510      2.368
REMARK  Name = 
REMARK  9 active torsions:
REMARK  status: ('A' for Active; 'I' for Inactive)
REMARK    1  A    between atoms: C_1  and  C_2
REMARK    2  A    between atoms: C_3  and  O_4
REMARK    3  A    between atoms: N_9  and  C_10
REMARK    4  A    between atoms: C_10  and  C_11
REMARK    5  A    between atoms: C_11  and  N_12
REMARK    6  A    between atoms: C_13  and  C_15
REMARK    7  A    between atoms: C_20  and  O_21
REMARK    8  A    between atoms: O_21  and  C_22
REMARK    9  A    between atoms: C_22  and  C_23
REMARK                            x       y       z     vdW  Elec       q    Type
REMARK                         _______ _______ _______ _____ _____    ______ ____
ROOT
ATOM      1  C   UNL     1       1.883   6.816  19.970  0.00  0.00    +0.000 A 
ATOM      2  C   UNL     1       1.107   7.241  20.978  0.00  0.00    +0.000 A 
ATOM      3  C   UNL     1       0.725   8.636  21.051  0.00  0.00    +0.000 A 
ATOM      4  C   UNL     1       0.212   9.191  22.218  0.00  0.00    +0.000 A 
ATOM      5  C   UNL     1      -0.135  10.542  22.248  0.00  0.00    +0.000 A 
ATOM      6  C   UNL     1      -0.048  11.328  21.093  0.00  0.00    +0.000 A 
ATOM      7  C   UNL     1       0.490  10.777  19.928  0.00  0.00    +0.000 A 
ATOM      8  C   UNL     1       0.903   9.446  19.936  0.00  0.00    +0.000 A 
ATOM      9  O   UNL     1       1.585   8.954  18.811  0.00  0.00    +0.000 OA
ATOM     10  C   UNL     1       2.303   7.764  18.914  0.00  0.00    +0.000 A 
ATOM     11  O   UNL     1       3.208   7.494  18.130  0.00  0.00    +0.000 OA
ENDROOT
BRANCH   1  13
ATOM     12  N   UNL     1       2.445   4.745  18.812  0.00  0.00    +0.000 N 
ATOM     13  C   UNL     1       2.302   5.384  20.018  0.00  0.00    +0.000 C 
ATOM     14  O   UNL     1       2.519   4.814  21.086  0.00  0.00    +0.000 OA
ATOM     15  H   UNL     1       2.378   5.294  17.955  0.00  0.00    +0.000 HD
BRANCH  12  16
ATOM     16  C   UNL     1       2.986   3.396  18.724  0.00  0.00    +0.000 C 
BRANCH  16  17
ATOM     17  C   UNL     1       4.054   3.229  17.628  0.00  0.00    +0.000 C 
BRANCH  17  25
ATOM     18  C   UNL     1       5.522   4.321  15.299  0.00  0.00    +0.000 C 
ATOM     19  C   UNL     1       5.877   4.764  16.702  0.00  0.00    +0.000 A 
ATOM     20  C   UNL     1       6.894   5.642  16.896  0.00  0.00    +0.000 A 
ATOM     21  C   UNL     1       7.286   6.021  18.290  0.00  0.00    +0.000 A 
ATOM     22  O   UNL     1       8.184   6.820  18.538  0.00  0.00    +0.000 OA
ATOM     23  C   UNL     1       6.530   5.396  19.392  0.00  0.00    +0.000 A 
ATOM     24  C   UNL     1       5.537   4.560  19.078  0.00  0.00    +0.000 A 
ATOM     25  N   UNL     1       5.153   4.203  17.785  0.00  0.00    +0.000 N 
BRANCH  20  26
ATOM     26  O   UNL     1       7.613   6.229  15.876  0.00  0.00    +0.000 OA
ATOM     27  H   UNL     1       7.982   7.043  16.246  0.00  0.00    +0.000 HD
ENDBRANCH  20  26
ENDBRANCH  17  25
ENDBRANCH  16  17
ENDBRANCH  12  16
ENDBRANCH   1  13
BRANCH   6  28
ATOM     28  O   UNL     1      -0.447  12.637  21.008  0.00  0.00    +0.000 OA
BRANCH  28  29
ATOM     29  C   UNL     1      -1.399  12.908  19.977  0.00  0.00    +0.000 C 
BRANCH  29  30
ATOM     30  C   UNL     1      -2.818  12.766  20.466  0.00  0.00    +0.000 A 
ATOM     31  C   UNL     1      -3.107  13.051  21.809  0.00  0.00    +0.000 A 
ATOM     32  C   UNL     1      -4.418  12.976  22.285  0.00  0.00    +0.000 A 
ATOM     33  C   UNL     1      -5.445  12.616  21.421  0.00  0.00    +0.000 A 
ATOM     34  C   UNL     1      -5.175  12.354  20.078  0.00  0.00    +0.000 A 
ATOM     35  C   UNL     1      -3.865  12.428  19.602  0.00  0.00    +0.000 A 
ENDBRANCH  29  30
ENDBRANCH  28  29
ENDBRANCH   6  28
TORSDOF 8
ENDMDL
MODEL 5
REMARK VINA RESULT:      -8.6      3.561     11.075
REMARK  Name = 
REMARK  9 active torsions:
REMARK  status: ('A' for Active; 'I' for Inactive)
REMARK    1  A    between atoms: C_1  and  C_2
REMARK    2  A    between atoms: C_3  and  O_4
REMARK    3  A    between atoms: N_9  and  C_10
REMARK    4  A    between atoms: C_10  and  C_11
REMARK    5  A    between atoms: C_11  and  N_12
REMARK    6  A    between atoms: C_13  and  C_15
REMARK    7  A    between atoms: C_20  and  O_21
REMARK    8  A    between atoms: O_21  and  C_22
REMARK    9  A    between atoms: C_22  and  C_23
REMARK                            x       y       z     vdW  Elec       q    Type
REMARK                         _______ _______ _______ _____ _____    ______ ____
ROOT
ATOM      1  C   UNL     1       2.715   5.679  19.425  0.00  0.00    +0.000 A 
ATOM      2  C   UNL     1       3.195   6.413  18.410  0.00  0.00    +0.000 A 
ATOM      3  C   UNL     1       4.171   5.839  17.506  0.00  0.00    +0.000 A 
ATOM      4  C   UNL     1       4.934   6.633  16.657  0.00  0.00    +0.000 A 
ATOM      5  C   UNL     1       5.869   6.040  15.810  0.00  0.00    +0.000 A 
ATOM      6  C   UNL     1       5.993   4.647  15.746  0.00  0.00    +0.000 A 
ATOM      7  C   UNL     1       5.245   3.851  16.615  0.00  0.00    +0.000 A 
ATOM      8  C   UNL     1       4.370   4.463  17.510  0.00  0.00    +0.000 A 
ATOM      9  O   UNL     1       3.744   3.665  18.482  0.00  0.00    +0.000 OA
ATOM     10  C   UNL     1       3.149   4.274  19.586  0.00  0.00    +0.000 A 
ATOM     11  O   UNL     1       2.948   3.653  20.626  0.00  0.00    +0.000 OA
ENDROOT
BRANCH   1  13
ATOM     12  N   UNL     1       2.078   7.677  20.668  0.00  0.00    +0.000 N 
ATOM     13  C   UNL     1       1.781   6.374  20.359  0.00  0.00    +0.000 C 
ATOM     14  O   UNL     1       0.791   5.806  20.816  0.00  0.00    +0.000 OA
ATOM     15  H   UNL     1       2.835   8.140  20.165  0.00  0.00    +0.000 HD
BRANCH  12  16
ATOM     16  C   UNL     1       1.167   8.502  21.450  0.00  0.00    +0.000 C 
BRANCH  16  17
ATOM     17  C   UNL     1       0.171   9.305  20.594  0.00  0.00    +0.000 C 
BRANCH  17  25
ATOM     18  C   UNL     1       1.426   9.608  17.929  0.00  0.00    +0.000 C 
ATOM     19  C   UNL     1       1.349  10.786  18.876  0.00  0.00    +0.000 A 
ATOM     20  C   UNL     1       1.885  11.980  18.514  0.00  0.00    +0.000 A 
ATOM     21  C   UNL     1       1.868  13.121  19.483  0.00  0.00    +0.000 A 
ATOM     22  O   UNL     1       2.321  14.230  19.217  0.00  0.00    +0.000 OA
ATOM     23  C   UNL     1       1.262  12.869  20.804  0.00  0.00    +0.000 A 
ATOM     24  C   UNL     1       0.749  11.658  21.039  0.00  0.00    +0.000 A 
ATOM     25  N   UNL     1       0.749  10.587  20.146  0.00  0.00    +0.000 N 
BRANCH  20  26
ATOM     26  O   UNL     1       2.461  12.227  17.285  0.00  0.00    +0.000 OA
ATOM     27  H   UNL     1       3.193  12.837  17.454  0.00  0.00    +0.000 HD
ENDBRANCH  20  26
ENDBRANCH  17  25
ENDBRANCH  16  17
ENDBRANCH  12  16
ENDBRANCH   1  13
BRANCH   6  28
ATOM     28  O   UNL     1       6.822   3.977  14.883  0.00  0.00    +0.000 OA
BRANCH  28  29
ATOM     29  C   UNL     1       6.875   4.518  13.561  0.00  0.00    +0.000 C 
BRANCH  29  30
ATOM     30  C   UNL     1       6.156   3.644  12.564  0.00  0.00    +0.000 A 
ATOM     31  C   UNL     1       6.842   2.569  11.981  0.00  0.00    +0.000 A 
ATOM     32  C   UNL     1       6.193   1.711  11.090  0.00  0.00    +0.000 A 
ATOM     33  C   UNL     1       4.855   1.924  10.780  0.00  0.00    +0.000 A 
ATOM     34  C   UNL     1       4.154   2.974  11.372  0.00  0.00    +0.000 A 
ATOM     35  C   UNL     1       4.803   3.832  12.261  0.00  0.00    +0.000 A 
ENDBRANCH  29  30
ENDBRANCH  28  29
ENDBRANCH   6  28
TORSDOF 8
ENDMDL
MODEL 6
REMARK VINA RESULT:      -8.6      3.193     11.151
REMARK  Name = 
REMARK  9 active torsions:
REMARK  status: ('A' for Active; 'I' for Inactive)
REMARK    1  A    between atoms: C_1  and  C_2
REMARK    2  A    between atoms: C_3  and  O_4
REMARK    3  A    between atoms: N_9  and  C_10
REMARK    4  A    between atoms: C_10  and  C_11
REMARK    5  A    between atoms: C_11  and  N_12
REMARK    6  A    between atoms: C_13  and  C_15
REMARK    7  A    between atoms: C_20  and  O_21
REMARK    8  A    between atoms: O_21  and  C_22
REMARK    9  A    between atoms: C_22  and  C_23
REMARK                            x       y       z     vdW  Elec       q    Type
REMARK                         _______ _______ _______ _____ _____    ______ ____
ROOT
ATOM      1  C   UNL     1       1.865   8.235  19.395  0.00  0.00    +0.000 A 
ATOM      2  C   UNL     1       2.212   7.018  19.840  0.00  0.00    +0.000 A 
ATOM      3  C   UNL     1       2.987   6.136  18.990  0.00  0.00    +0.000 A 
ATOM      4  C   UNL     1       3.092   4.776  19.255  0.00  0.00    +0.000 A 
ATOM      5  C   UNL     1       3.840   3.961  18.406  0.00  0.00    +0.000 A 
ATOM      6  C   UNL     1       4.552   4.511  17.333  0.00  0.00    +0.000 A 
ATOM      7  C   UNL     1       4.427   5.873  17.053  0.00  0.00    +0.000 A 
ATOM      8  C   UNL     1       3.614   6.660  17.866  0.00  0.00    +0.000 A 
ATOM      9  O   UNL     1       3.372   7.988  17.480  0.00  0.00    +0.000 OA
ATOM     10  C   UNL     1       2.315   8.686  18.060  0.00  0.00    +0.000 A 
ATOM     11  O   UNL     1       1.817   9.664  17.510  0.00  0.00    +0.000 OA
ENDROOT
BRANCH   1  13
ATOM     12  N   UNL     1       0.068   9.856  19.693  0.00  0.00    +0.000 N 
ATOM     13  C   UNL     1       0.994   9.044  20.298  0.00  0.00    +0.000 C 
ATOM     14  O   UNL     1       1.098   8.975  21.522  0.00  0.00    +0.000 OA
ATOM     15  H   UNL     1      -0.065   9.782  18.685  0.00  0.00    +0.000 HD
BRANCH  12  16
ATOM     16  C   UNL     1      -0.931  10.581  20.467  0.00  0.00    +0.000 C 
BRANCH  16  17
ATOM     17  C   UNL     1      -1.496  11.816  19.744  0.00  0.00    +0.000 C 
BRANCH  17  25
ATOM     18  C   UNL     1      -4.404  12.336  19.534  0.00  0.00    +0.000 C 
ATOM     19  C   UNL     1      -3.660  11.677  18.392  0.00  0.00    +0.000 A 
ATOM     20  C   UNL     1      -4.335  11.295  17.277  0.00  0.00    +0.000 A 
ATOM     21  C   UNL     1      -3.607  10.581  16.181  0.00  0.00    +0.000 A 
ATOM     22  O   UNL     1      -4.151  10.222  15.141  0.00  0.00    +0.000 OA
ATOM     23  C   UNL     1      -2.169  10.326  16.388  0.00  0.00    +0.000 A 
ATOM     24  C   UNL     1      -1.609  10.766  17.518  0.00  0.00    +0.000 A 
ATOM     25  N   UNL     1      -2.270  11.439  18.545  0.00  0.00    +0.000 N 
BRANCH  20  26
ATOM     26  O   UNL     1      -5.680  11.523  17.073  0.00  0.00    +0.000 OA
ATOM     27  H   UNL     1      -6.119  10.675  17.234  0.00  0.00    +0.000 HD
ENDBRANCH  20  26
ENDBRANCH  17  25
ENDBRANCH  16  17
ENDBRANCH  12  16
ENDBRANCH   1  13
BRANCH   6  28
ATOM     28  O   UNL     1       5.379   3.801  16.501  0.00  0.00    +0.000 OA
BRANCH  28  29
ATOM     29  C   UNL     1       6.543   4.509  16.065  0.00  0.00    +0.000 C 
BRANCH  29  30
ATOM     30  C   UNL     1       6.737   4.412  14.573  0.00  0.00    +0.000 A 
ATOM     31  C   UNL     1       5.939   3.523  13.839  0.00  0.00    +0.000 A 
ATOM     32  C   UNL     1       6.059   3.442  12.450  0.00  0.00    +0.000 A 
ATOM     33  C   UNL     1       6.977   4.249  11.789  0.00  0.00    +0.000 A 
ATOM     34  C   UNL     1       7.760   5.155  12.504  0.00  0.00    +0.000 A 
ATOM     35  C   UNL     1       7.640   5.236  13.893  0.00  0.00    +0.000 A 
ENDBRANCH  29  30
ENDBRANCH  28  29
ENDBRANCH   6  28
TORSDOF 8
ENDMDL
MODEL 7
REMARK VINA RESULT:      -8.6      3.185      4.898
REMARK  Name = 
REMARK  9 active torsions:
REMARK  status: ('A' for Active; 'I' for Inactive)
REMARK    1  A    between atoms: C_1  and  C_2
REMARK    2  A    between atoms: C_3  and  O_4
REMARK    3  A    between atoms: N_9  and  C_10
REMARK    4  A    between atoms: C_10  and  C_11
REMARK    5  A    between atoms: C_11  and  N_12
REMARK    6  A    between atoms: C_13  and  C_15
REMARK    7  A    between atoms: C_20  and  O_21
REMARK    8  A    between atoms: O_21  and  C_22
REMARK    9  A    between atoms: C_22  and  C_23
REMARK                            x       y       z     vdW  Elec       q    Type
REMARK                         _______ _______ _______ _____ _____    ______ ____
ROOT
ATOM      1  C   UNL     1       2.121   7.148  19.377  0.00  0.00    +0.000 A 
ATOM      2  C   UNL     1       1.374   7.776  20.297  0.00  0.00    +0.000 A 
ATOM      3  C   UNL     1       1.129   9.199  20.174  0.00  0.00    +0.000 A 
ATOM      4  C   UNL     1       0.654   9.951  21.242  0.00  0.00    +0.000 A 
ATOM      5  C   UNL     1       0.440  11.320  21.084  0.00  0.00    +0.000 A 
ATOM      6  C   UNL     1       0.623  11.932  19.837  0.00  0.00    +0.000 A 
ATOM      7  C   UNL     1       1.123  11.181  18.772  0.00  0.00    +0.000 A 
ATOM      8  C   UNL     1       1.403   9.831  18.967  0.00  0.00    +0.000 A 
ATOM      9  O   UNL     1       2.052   9.129  17.937  0.00  0.00    +0.000 OA
ATOM     10  C   UNL     1       2.648   7.901  18.218  0.00  0.00    +0.000 A 
ATOM     11  O   UNL     1       3.536   7.444  17.502  0.00  0.00    +0.000 OA
ENDROOT
BRANCH   1  13
ATOM     12  N   UNL     1       2.480   4.893  18.520  0.00  0.00    +0.000 N 
ATOM     13  C   UNL     1       2.397   5.702  19.625  0.00  0.00    +0.000 C 
ATOM     14  O   UNL     1       2.553   5.265  20.764  0.00  0.00    +0.000 OA
ATOM     15  H   UNL     1       2.471   5.324  17.595  0.00  0.00    +0.000 HD
BRANCH  12  16
ATOM     16  C   UNL     1       2.887   3.499  18.624  0.00  0.00    +0.000 C 
BRANCH  16  17
ATOM     17  C   UNL     1       4.092   3.139  17.738  0.00  0.00    +0.000 C 
BRANCH  17  25
ATOM     18  C   UNL     1       5.483   4.208  15.352  0.00  0.00    +0.000 C 
ATOM     19  C   UNL     1       5.856   4.694  16.736  0.00  0.00    +0.000 A 
ATOM     20  C   UNL     1       6.854   5.602  16.887  0.00  0.00    +0.000 A 
ATOM     21  C   UNL     1       7.265   6.025  18.262  0.00  0.00    +0.000 A 
ATOM     22  O   UNL     1       8.148   6.853  18.471  0.00  0.00    +0.000 OA
ATOM     23  C   UNL     1       6.548   5.410  19.395  0.00  0.00    +0.000 A 
ATOM     24  C   UNL     1       5.570   4.542  19.123  0.00  0.00    +0.000 A 
ATOM     25  N   UNL     1       5.169   4.143  17.848  0.00  0.00    +0.000 N 
BRANCH  20  26
ATOM     26  O   UNL     1       7.536   6.181  15.837  0.00  0.00    +0.000 OA
ATOM     27  H   UNL     1       8.079   6.880  16.228  0.00  0.00    +0.000 HD
ENDBRANCH  20  26
ENDBRANCH  17  25
ENDBRANCH  16  17
ENDBRANCH  12  16
ENDBRANCH   1  13
BRANCH   6  28
ATOM     28  O   UNL     1       0.356  13.250  19.569  0.00  0.00    +0.000 OA
BRANCH  28  29
ATOM     29  C   UNL     1       1.304  14.175  20.108  0.00  0.00    +0.000 C 
BRANCH  29  30
ATOM     30  C   UNL     1       1.879  15.076  19.046  0.00  0.00    +0.000 A 
ATOM     31  C   UNL     1       1.327  16.353  18.862  0.00  0.00    +0.000 A 
ATOM     32  C   UNL     1       1.867  17.231  17.920  0.00  0.00    +0.000 A 
ATOM     33  C   UNL     1       2.960  16.838  17.157  0.00  0.00    +0.000 A 
ATOM     34  C   UNL     1       3.535  15.582  17.347  0.00  0.00    +0.000 A 
ATOM     35  C   UNL     1       2.995  14.703  18.289  0.00  0.00    +0.000 A 
ENDBRANCH  29  30
ENDBRANCH  28  29
ENDBRANCH   6  28
TORSDOF 8
ENDMDL
MODEL 8
REMARK VINA RESULT:      -8.6      0.900      1.277
REMARK  Name = 
REMARK  9 active torsions:
REMARK  status: ('A' for Active; 'I' for Inactive)
REMARK    1  A    between atoms: C_1  and  C_2
REMARK    2  A    between atoms: C_3  and  O_4
REMARK    3  A    between atoms: N_9  and  C_10
REMARK    4  A    between atoms: C_10  and  C_11
REMARK    5  A    between atoms: C_11  and  N_12
REMARK    6  A    between atoms: C_13  and  C_15
REMARK    7  A    between atoms: C_20  and  O_21
REMARK    8  A    between atoms: O_21  and  C_22
REMARK    9  A    between atoms: C_22  and  C_23
REMARK                            x       y       z     vdW  Elec       q    Type
REMARK                         _______ _______ _______ _____ _____    ______ ____
ROOT
ATOM      1  C   UNL     1       1.505   7.678  20.280  0.00  0.00    +0.000 A 
ATOM      2  C   UNL     1       0.755   7.946  21.359  0.00  0.00    +0.000 A 
ATOM      3  C   UNL     1       0.126   9.244  21.492  0.00  0.00    +0.000 A 
ATOM      4  C   UNL     1      -0.377   9.689  22.709  0.00  0.00    +0.000 A 
ATOM      5  C   UNL     1      -0.967  10.950  22.796  0.00  0.00    +0.000 A 
ATOM      6  C   UNL     1      -1.130  11.742  21.652  0.00  0.00    +0.000 A 
ATOM      7  C   UNL     1      -0.604  11.306  20.436  0.00  0.00    +0.000 A 
ATOM      8  C   UNL     1       0.050  10.077  20.382  0.00  0.00    +0.000 A 
ATOM      9  O   UNL     1       0.711   9.725  19.193  0.00  0.00    +0.000 OA
ATOM     10  C   UNL     1       1.645   8.691  19.211  0.00  0.00    +0.000 A 
ATOM     11  O   UNL     1       2.513   8.600  18.346  0.00  0.00    +0.000 OA
ENDROOT
BRANCH   1  13
ATOM     12  N   UNL     1       3.426   6.303  19.673  0.00  0.00    +0.000 N 
ATOM     13  C   UNL     1       2.188   6.350  20.263  0.00  0.00    +0.000 C 
ATOM     14  O   UNL     1       1.668   5.355  20.764  0.00  0.00    +0.000 OA
ATOM     15  H   UNL     1       3.867   7.178  19.388  0.00  0.00    +0.000 HD
BRANCH  12  16
ATOM     16  C   UNL     1       4.249   5.103  19.724  0.00  0.00    +0.000 C 
BRANCH  16  17
ATOM     17  C   UNL     1       5.695   5.324  19.245  0.00  0.00    +0.000 C 
BRANCH  17  25
ATOM     18  C   UNL     1       7.681   6.644  17.489  0.00  0.00    +0.000 C 
ATOM     19  C   UNL     1       6.810   5.528  16.954  0.00  0.00    +0.000 A 
ATOM     20  C   UNL     1       6.918   5.150  15.654  0.00  0.00    +0.000 A 
ATOM     21  C   UNL     1       6.005   4.095  15.113  0.00  0.00    +0.000 A 
ATOM     22  O   UNL     1       6.058   3.695  13.954  0.00  0.00    +0.000 OA
ATOM     23  C   UNL     1       5.016   3.522  16.047  0.00  0.00    +0.000 A 
ATOM     24  C   UNL     1       5.017   3.959  17.309  0.00  0.00    +0.000 A 
ATOM     25  N   UNL     1       5.865   4.935  17.831  0.00  0.00    +0.000 N 
BRANCH  20  26
ATOM     26  O   UNL     1       7.833   5.682  14.769  0.00  0.00    +0.000 OA
ATOM     27  H   UNL     1       7.669   6.635  14.760  0.00  0.00    +0.000 HD
ENDBRANCH  20  26
ENDBRANCH  17  25
ENDBRANCH  16  17
ENDBRANCH  12  16
ENDBRANCH   1  13
BRANCH   6  28
ATOM     28  O   UNL     1      -1.773  12.953  21.628  0.00  0.00    +0.000 OA
BRANCH  28  29
ATOM     29  C   UNL     1      -2.742  13.096  20.586  0.00  0.00    +0.000 C 
BRANCH  29  30
ATOM     30  C   UNL     1      -4.151  12.943  21.100  0.00  0.00    +0.000 A 
ATOM     31  C   UNL     1      -5.152  12.499  20.224  0.00  0.00    +0.000 A 
ATOM     32  C   UNL     1      -6.457  12.300  20.678  0.00  0.00    +0.000 A 
ATOM     33  C   UNL     1      -6.768  12.543  22.010  0.00  0.00    +0.000 A 
ATOM     34  C   UNL     1      -5.777  12.960  22.899  0.00  0.00    +0.000 A 
ATOM     35  C   UNL     1      -4.472  13.160  22.444  0.00  0.00    +0.000 A 
ENDBRANCH  29  30
ENDBRANCH  28  29
ENDBRANCH   6  28
TORSDOF 8
ENDMDL
MODEL 9
REMARK VINA RESULT:      -8.5      3.078     11.599
REMARK  Name = 
REMARK  9 active torsions:
REMARK  status: ('A' for Active; 'I' for Inactive)
REMARK    1  A    between atoms: C_1  and  C_2
REMARK    2  A    between atoms: C_3  and  O_4
REMARK    3  A    between atoms: N_9  and  C_10
REMARK    4  A    between atoms: C_10  and  C_11
REMARK    5  A    between atoms: C_11  and  N_12
REMARK    6  A    between atoms: C_13  and  C_15
REMARK    7  A    between atoms: C_20  and  O_21
REMARK    8  A    between atoms: O_21  and  C_22
REMARK    9  A    between atoms: C_22  and  C_23
REMARK                            x       y       z     vdW  Elec       q    Type
REMARK                         _______ _______ _______ _____ _____    ______ ____
ROOT
ATOM      1  C   UNL     1      -0.154  10.651  21.892  0.00  0.00    +0.000 A 
ATOM      2  C   UNL     1      -0.060  10.762  20.558  0.00  0.00    +0.000 A 
ATOM      3  C   UNL     1       0.759   9.826  19.816  0.00  0.00    +0.000 A 
ATOM      4  C   UNL     1       1.154  10.081  18.508  0.00  0.00    +0.000 A 
ATOM      5  C   UNL     1       1.951   9.157  17.832  0.00  0.00    +0.000 A 
ATOM      6  C   UNL     1       2.292   7.937  18.429  0.00  0.00    +0.000 A 
ATOM      7  C   UNL     1       1.917   7.692  19.751  0.00  0.00    +0.000 A 
ATOM      8  C   UNL     1       1.185   8.658  20.438  0.00  0.00    +0.000 A 
ATOM      9  O   UNL     1       0.952   8.467  21.810  0.00  0.00    +0.000 OA
ATOM     10  C   UNL     1       0.539   9.546  22.590  0.00  0.00    +0.000 A 
ATOM     11  O   UNL     1       0.697   9.552  23.807  0.00  0.00    +0.000 OA
ENDROOT
BRANCH   1  13
ATOM     12  N   UNL     1      -0.577  13.008  22.354  0.00  0.00    +0.000 N 
ATOM     13  C   UNL     1      -0.948  11.708  22.588  0.00  0.00    +0.000 C 
ATOM     14  O   UNL     1      -1.891  11.422  23.323  0.00  0.00    +0.000 OA
ATOM     15  H   UNL     1       0.126  13.197  21.640  0.00  0.00    +0.000 HD
BRANCH  12  16
ATOM     16  C   UNL     1      -1.362  14.126  22.859  0.00  0.00    +0.000 C 
BRANCH  16  17
ATOM     17  C   UNL     1      -2.437  14.621  21.875  0.00  0.00    +0.000 C 
BRANCH  17  25
ATOM     18  C   UNL     1      -3.695  12.586  20.129  0.00  0.00    +0.000 C 
ATOM     19  C   UNL     1      -4.400  13.058  21.382  0.00  0.00    +0.000 A 
ATOM     20  C   UNL     1      -5.628  12.570  21.692  0.00  0.00    +0.000 A 
ATOM     21  C   UNL     1      -6.350  13.094  22.895  0.00  0.00    +0.000 A 
ATOM     22  O   UNL     1      -7.454  12.686  23.241  0.00  0.00    +0.000 OA
ATOM     23  C   UNL     1      -5.668  14.138  23.683  0.00  0.00    +0.000 A 
ATOM     24  C   UNL     1      -4.451  14.526  23.292  0.00  0.00    +0.000 A 
ATOM     25  N   UNL     1      -3.762  14.043  22.180  0.00  0.00    +0.000 N 
BRANCH  20  26
ATOM     26  O   UNL     1      -6.279  11.599  20.961  0.00  0.00    +0.000 OA
ATOM     27  H   UNL     1      -6.975  11.254  21.538  0.00  0.00    +0.000 HD
ENDBRANCH  20  26
ENDBRANCH  17  25
ENDBRANCH  16  17
ENDBRANCH  12  16
ENDBRANCH   1  13
BRANCH   6  28
ATOM     28  O   UNL     1       2.997   6.937  17.810  0.00  0.00    +0.000 OA
BRANCH  28  29
ATOM     29  C   UNL     1       3.835   6.169  18.678  0.00  0.00    +0.000 C 
BRANCH  29  30
ATOM     30  C   UNL     1       5.047   5.631  17.962  0.00  0.00    +0.000 A 
ATOM     31  C   UNL     1       6.239   5.450  18.679  0.00  0.00    +0.000 A 
ATOM     32  C   UNL     1       7.367   4.909  18.059  0.00  0.00    +0.000 A 
ATOM     33  C   UNL     1       7.308   4.545  16.719  0.00  0.00    +0.000 A 
ATOM     34  C   UNL     1       6.123   4.695  16.000  0.00  0.00    +0.000 A 
ATOM     35  C   UNL     1       4.995   5.237  16.620  0.00  0.00    +0.000 A 
ENDBRANCH  29  30
ENDBRANCH  28  29
ENDBRANCH   6  28
TORSDOF 8
ENDMDL
