MODEL 1
REMARK VINA RESULT:      -8.0      0.000      0.000
REMARK  Name = 
REMARK  8 active torsions:
REMARK  status: ('A' for Active; 'I' for Inactive)
REMARK    1  A    between atoms: C_1  and  C_2
REMARK    2  A    between atoms: C_2  and  N_3
REMARK    3  A    between atoms: C_5  and  C_6
REMARK    4  A    between atoms: C_6  and  N_7
REMARK    5  A    between atoms: C_8  and  C_10
REMARK    6  A    between atoms: C_12  and  C_13
REMARK    7  A    between atoms: C_13  and  O_14
REMARK    8  A    between atoms: O_14  and  C_15
REMARK                            x       y       z     vdW  Elec       q    Type
REMARK                         _______ _______ _______ _____ _____    ______ ____
ROOT
ATOM      1  C   UNL     1       7.392   6.433  17.657  0.00  0.00    +0.000 A 
ATOM      2  C   UNL     1       8.181   7.013  18.681  0.00  0.00    +0.000 A 
ATOM      3  C   UNL     1       8.260   8.341  18.347  0.00  0.00    +0.000 A 
ATOM      4  O   UNL     1       7.580   8.551  17.188  0.00  0.00    +0.000 OA
ATOM      5  N   UNL     1       7.020   7.360  16.756  0.00  0.00    +0.000 NA
ENDROOT
BRANCH   1   7
ATOM      6  N   UNL     1       5.681   4.836  17.172  0.00  0.00    +0.000 N 
ATOM      7  C   UNL     1       6.993   5.030  17.550  0.00  0.00    +0.000 C 
ATOM      8  O   UNL     1       7.763   4.113  17.809  0.00  0.00    +0.000 OA
ATOM      9  H   UNL     1       5.141   5.649  16.900  0.00  0.00    +0.000 HD
BRANCH   6  10
ATOM     10  C   UNL     1       5.135   3.514  17.002  0.00  0.00    +0.000 C 
BRANCH  10  13
ATOM     11  N   UNL     1       2.182   3.049  19.108  0.00  0.00    +0.000 N 
ATOM     12  C   UNL     1       3.541   3.015  18.978  0.00  0.00    +0.000 A 
ATOM     13  C   UNL     1       3.822   3.424  17.688  0.00  0.00    +0.000 A 
ATOM     14  C   UNL     1       2.548   3.685  17.134  0.00  0.00    +0.000 A 
ATOM     15  N   UNL     1       1.554   3.464  17.994  0.00  0.00    +0.000 NA
BRANCH  11  17
ATOM     16  C   UNL     1       1.990   3.170  21.565  0.00  0.00    +0.000 C 
ATOM     17  C   UNL     1       1.407   2.645  20.266  0.00  0.00    +0.000 C 
ENDBRANCH  11  17
ENDBRANCH  10  13
ENDBRANCH   6  10
ENDBRANCH   1   7
BRANCH   3  18
ATOM     18  C   UNL     1       8.910   9.519  18.964  0.00  0.00    +0.000 C 
BRANCH  18  19
ATOM     19  O   UNL     1       9.222  10.420  17.904  0.00  0.00    +0.000 OA
BRANCH  19  20
ATOM     20  C   UNL     1       9.988  11.510  18.221  0.00  0.00    +0.000 A 
ATOM     21  C   UNL     1      11.177  11.477  18.957  0.00  0.00    +0.000 A 
ATOM     22  C   UNL     1      11.873  12.663  19.211  0.00  0.00    +0.000 A 
ATOM     23  C   UNL     1      11.382  13.874  18.736  0.00  0.00    +0.000 A 
ATOM     24  F   UNL     1      12.062  15.000  18.981  0.00  0.00    +0.000 F 
ATOM     25  C   UNL     1      10.199  13.930  18.015  0.00  0.00    +0.000 A 
ATOM     26  C   UNL     1       9.511  12.748  17.765  0.00  0.00    +0.000 A 
ATOM     27  F   UNL     1       8.367  12.810  17.065  0.00  0.00    +0.000 F 
ENDBRANCH  19  20
ENDBRANCH  18  19
ENDBRANCH   3  18
TORSDOF 7
ENDMDL
MODEL 2
REMARK VINA RESULT:      -7.8      1.634      1.761
REMARK  Name = 
REMARK  8 active torsions:
REMARK  status: ('A' for Active; 'I' for Inactive)
REMARK    1  A    between atoms: C_1  and  C_2
REMARK    2  A    between atoms: C_2  and  N_3
REMARK    3  A    between atoms: C_5  and  C_6
REMARK    4  A    between atoms: C_6  and  N_7
REMARK    5  A    between atoms: C_8  and  C_10
REMARK    6  A    between atoms: C_12  and  C_13
REMARK    7  A    between atoms: C_13  and  O_14
REMARK    8  A    between atoms: O_14  and  C_15
REMARK                            x       y       z     vdW  Elec       q    Type
REMARK                         _______ _______ _______ _____ _____    ______ ____
ROOT
ATOM      1  C   UNL     1       7.395   6.508  17.596  0.00  0.00    +0.000 A 
ATOM      2  C   UNL     1       7.421   7.855  17.157  0.00  0.00    +0.000 A 
ATOM      3  C   UNL     1       8.204   8.505  18.077  0.00  0.00    +0.000 A 
ATOM      4  O   UNL     1       8.611   7.617  19.023  0.00  0.00    +0.000 OA
ATOM      5  N   UNL     1       8.119   6.358  18.720  0.00  0.00    +0.000 NA
ENDROOT
BRANCH   1   7
ATOM      6  N   UNL     1       5.359   5.312  17.231  0.00  0.00    +0.000 N 
ATOM      7  C   UNL     1       6.706   5.392  16.951  0.00  0.00    +0.000 C 
ATOM      8  O   UNL     1       7.298   4.581  16.248  0.00  0.00    +0.000 OA
ATOM      9  H   UNL     1       4.938   6.071  17.755  0.00  0.00    +0.000 HD
BRANCH   6  10
ATOM     10  C   UNL     1       4.531   4.282  16.659  0.00  0.00    +0.000 C 
BRANCH  10  13
ATOM     11  N   UNL     1       2.962   2.851  19.636  0.00  0.00    +0.000 N 
ATOM     12  C   UNL     1       3.935   3.641  19.094  0.00  0.00    +0.000 A 
ATOM     13  C   UNL     1       3.729   3.636  17.727  0.00  0.00    +0.000 A 
ATOM     14  C   UNL     1       2.594   2.809  17.563  0.00  0.00    +0.000 A 
ATOM     15  N   UNL     1       2.124   2.337  18.718  0.00  0.00    +0.000 NA
BRANCH  11  17
ATOM     16  C   UNL     1       1.382   2.711  21.526  0.00  0.00    +0.000 C 
ATOM     17  C   UNL     1       2.802   2.499  21.035  0.00  0.00    +0.000 C 
ENDBRANCH  11  17
ENDBRANCH  10  13
ENDBRANCH   6  10
ENDBRANCH   1   7
BRANCH   3  18
ATOM     18  C   UNL     1       8.658   9.905  18.234  0.00  0.00    +0.000 C 
BRANCH  18  19
ATOM     19  O   UNL     1       9.449   9.951  19.419  0.00  0.00    +0.000 OA
BRANCH  19  20
ATOM     20  C   UNL     1       9.803  11.192  19.881  0.00  0.00    +0.000 A 
ATOM     21  C   UNL     1       9.264  11.819  21.009  0.00  0.00    +0.000 A 
ATOM     22  C   UNL     1       9.714  13.089  21.381  0.00  0.00    +0.000 A 
ATOM     23  C   UNL     1      10.694  13.729  20.631  0.00  0.00    +0.000 A 
ATOM     24  F   UNL     1      11.120  14.942  21.003  0.00  0.00    +0.000 F 
ATOM     25  C   UNL     1      11.233  13.129  19.502  0.00  0.00    +0.000 A 
ATOM     26  C   UNL     1      10.781  11.866  19.136  0.00  0.00    +0.000 A 
ATOM     27  F   UNL     1      11.308  11.292  18.043  0.00  0.00    +0.000 F 
ENDBRANCH  19  20
ENDBRANCH  18  19
ENDBRANCH   3  18
TORSDOF 7
ENDMDL
MODEL 3
REMARK VINA RESULT:      -7.7      1.536      1.736
REMARK  Name = 
REMARK  8 active torsions:
REMARK  status: ('A' for Active; 'I' for Inactive)
REMARK    1  A    between atoms: C_1  and  C_2
REMARK    2  A    between atoms: C_2  and  N_3
REMARK    3  A    between atoms: C_5  and  C_6
REMARK    4  A    between atoms: C_6  and  N_7
REMARK    5  A    between atoms: C_8  and  C_10
REMARK    6  A    between atoms: C_12  and  C_13
REMARK    7  A    between atoms: C_13  and  O_14
REMARK    8  A    between atoms: O_14  and  C_15
REMARK                            x       y       z     vdW  Elec       q    Type
REMARK                         _______ _______ _______ _____ _____    ______ ____
ROOT
ATOM      1  C   UNL     1       7.275   6.200  17.885  0.00  0.00    +0.000 A 
ATOM      2  C   UNL     1       7.157   7.473  17.275  0.00  0.00    +0.000 A 
ATOM      3  C   UNL     1       7.996   8.283  17.997  0.00  0.00    +0.000 A 
ATOM      4  O   UNL     1       8.571   7.556  18.992  0.00  0.00    +0.000 OA
ATOM      5  N   UNL     1       8.134   6.243  18.919  0.00  0.00    +0.000 NA
ENDROOT
BRANCH   1   7
ATOM      6  N   UNL     1       5.442   5.169  16.749  0.00  0.00    +0.000 N 
ATOM      7  C   UNL     1       6.593   4.971  17.481  0.00  0.00    +0.000 C 
ATOM      8  O   UNL     1       7.006   3.863  17.802  0.00  0.00    +0.000 OA
ATOM      9  H   UNL     1       5.221   6.115  16.461  0.00  0.00    +0.000 HD
BRANCH   6  10
ATOM     10  C   UNL     1       4.664   4.062  16.258  0.00  0.00    +0.000 C 
BRANCH  10  13
ATOM     11  N   UNL     1       2.175   3.568  18.892  0.00  0.00    +0.000 N 
ATOM     12  C   UNL     1       2.810   4.414  18.030  0.00  0.00    +0.000 A 
ATOM     13  C   UNL     1       3.687   3.640  17.293  0.00  0.00    +0.000 A 
ATOM     14  C   UNL     1       3.487   2.335  17.799  0.00  0.00    +0.000 A 
ATOM     15  N   UNL     1       2.567   2.288  18.763  0.00  0.00    +0.000 NA
BRANCH  11  17
ATOM     16  C   UNL     1       1.603   5.180  20.670  0.00  0.00    +0.000 C 
ATOM     17  C   UNL     1       1.207   3.926  19.912  0.00  0.00    +0.000 C 
ENDBRANCH  11  17
ENDBRANCH  10  13
ENDBRANCH   6  10
ENDBRANCH   1   7
BRANCH   3  18
ATOM     18  C   UNL     1       8.368   9.713  17.914  0.00  0.00    +0.000 C 
BRANCH  18  19
ATOM     19  O   UNL     1       9.106  10.017  19.095  0.00  0.00    +0.000 OA
BRANCH  19  20
ATOM     20  C   UNL     1       9.933  11.108  19.047  0.00  0.00    +0.000 A 
ATOM     21  C   UNL     1      10.634  11.543  17.917  0.00  0.00    +0.000 A 
ATOM     22  C   UNL     1      11.444  12.679  17.995  0.00  0.00    +0.000 A 
ATOM     23  C   UNL     1      11.557  13.375  19.193  0.00  0.00    +0.000 A 
ATOM     24  F   UNL     1      12.332  14.464  19.251  0.00  0.00    +0.000 F 
ATOM     25  C   UNL     1      10.880  12.954  20.328  0.00  0.00    +0.000 A 
ATOM     26  C   UNL     1      10.075  11.823  20.245  0.00  0.00    +0.000 A 
ATOM     27  F   UNL     1       9.421  11.422  21.347  0.00  0.00    +0.000 F 
ENDBRANCH  19  20
ENDBRANCH  18  19
ENDBRANCH   3  18
TORSDOF 7
ENDMDL
MODEL 4
REMARK VINA RESULT:      -7.5      6.120      8.927
REMARK  Name = 
REMARK  8 active torsions:
REMARK  status: ('A' for Active; 'I' for Inactive)
REMARK    1  A    between atoms: C_1  and  C_2
REMARK    2  A    between atoms: C_2  and  N_3
REMARK    3  A    between atoms: C_5  and  C_6
REMARK    4  A    between atoms: C_6  and  N_7
REMARK    5  A    between atoms: C_8  and  C_10
REMARK    6  A    between atoms: C_12  and  C_13
REMARK    7  A    between atoms: C_13  and  O_14
REMARK    8  A    between atoms: O_14  and  C_15
REMARK                            x       y       z     vdW  Elec       q    Type
REMARK                         _______ _______ _______ _____ _____    ______ ____
ROOT
ATOM      1  C   UNL     1       5.893   5.306  16.975  0.00  0.00    +0.000 A 
ATOM      2  C   UNL     1       4.692   6.026  16.756  0.00  0.00    +0.000 A 
ATOM      3  C   UNL     1       4.212   6.289  18.014  0.00  0.00    +0.000 A 
ATOM      4  O   UNL     1       5.053   5.748  18.936  0.00  0.00    +0.000 OA
ATOM      5  N   UNL     1       6.119   5.141  18.291  0.00  0.00    +0.000 NA
ENDROOT
BRANCH   1   7
ATOM      6  N   UNL     1       6.287   4.788  14.676  0.00  0.00    +0.000 N 
ATOM      7  C   UNL     1       6.806   4.799  15.953  0.00  0.00    +0.000 C 
ATOM      8  O   UNL     1       7.929   4.390  16.227  0.00  0.00    +0.000 OA
ATOM      9  H   UNL     1       5.382   5.220  14.529  0.00  0.00    +0.000 HD
BRANCH   6  10
ATOM     10  C   UNL     1       7.065   4.337  13.551  0.00  0.00    +0.000 C 
BRANCH  10  13
ATOM     11  N   UNL     1       4.533   2.972  11.291  0.00  0.00    +0.000 N 
ATOM     12  C   UNL     1       4.965   4.003  12.076  0.00  0.00    +0.000 A 
ATOM     13  C   UNL     1       6.188   3.619  12.593  0.00  0.00    +0.000 A 
ATOM     14  C   UNL     1       6.394   2.332  12.043  0.00  0.00    +0.000 A 
ATOM     15  N   UNL     1       5.397   1.941  11.250  0.00  0.00    +0.000 NA
BRANCH  11  17
ATOM     16  C   UNL     1       3.009   4.096   9.710  0.00  0.00    +0.000 C 
ATOM     17  C   UNL     1       3.270   2.883  10.585  0.00  0.00    +0.000 C 
ENDBRANCH  11  17
ENDBRANCH  10  13
ENDBRANCH   6  10
ENDBRANCH   1   7
BRANCH   3  18
ATOM     18  C   UNL     1       3.020   6.998  18.532  0.00  0.00    +0.000 C 
BRANCH  18  19
ATOM     19  O   UNL     1       1.908   6.126  18.343  0.00  0.00    +0.000 OA
BRANCH  19  20
ATOM     20  C   UNL     1       1.891   4.972  19.082  0.00  0.00    +0.000 A 
ATOM     21  C   UNL     1       1.998   3.677  18.563  0.00  0.00    +0.000 A 
ATOM     22  C   UNL     1       1.974   2.578  19.425  0.00  0.00    +0.000 A 
ATOM     23  C   UNL     1       1.840   2.769  20.796  0.00  0.00    +0.000 A 
ATOM     24  F   UNL     1       1.824   1.706  21.609  0.00  0.00    +0.000 F 
ATOM     25  C   UNL     1       1.720   4.043  21.329  0.00  0.00    +0.000 A 
ATOM     26  C   UNL     1       1.745   5.134  20.468  0.00  0.00    +0.000 A 
ATOM     27  F   UNL     1       1.630   6.364  20.992  0.00  0.00    +0.000 F 
ENDBRANCH  19  20
ENDBRANCH  18  19
ENDBRANCH   3  18
TORSDOF 7
ENDMDL
MODEL 5
REMARK VINA RESULT:      -7.5      5.917      8.976
REMARK  Name = 
REMARK  8 active torsions:
REMARK  status: ('A' for Active; 'I' for Inactive)
REMARK    1  A    between atoms: C_1  and  C_2
REMARK    2  A    between atoms: C_2  and  N_3
REMARK    3  A    between atoms: C_5  and  C_6
REMARK    4  A    between atoms: C_6  and  N_7
REMARK    5  A    between atoms: C_8  and  C_10
REMARK    6  A    between atoms: C_12  and  C_13
REMARK    7  A    between atoms: C_13  and  O_14
REMARK    8  A    between atoms: O_14  and  C_15
REMARK                            x       y       z     vdW  Elec       q    Type
REMARK                         _______ _______ _______ _____ _____    ______ ____
ROOT
ATOM      1  C   UNL     1       4.506   6.656  17.846  0.00  0.00    +0.000 A 
ATOM      2  C   UNL     1       4.183   6.020  19.070  0.00  0.00    +0.000 A 
ATOM      3  C   UNL     1       2.900   6.425  19.342  0.00  0.00    +0.000 A 
ATOM      4  O   UNL     1       2.479   7.266  18.360  0.00  0.00    +0.000 OA
ATOM      5  N   UNL     1       3.478   7.405  17.409  0.00  0.00    +0.000 NA
ENDROOT
BRANCH   1   7
ATOM      6  N   UNL     1       6.114   5.251  16.773  0.00  0.00    +0.000 N 
ATOM      7  C   UNL     1       5.763   6.541  17.107  0.00  0.00    +0.000 C 
ATOM      8  O   UNL     1       6.454   7.518  16.841  0.00  0.00    +0.000 OA
ATOM      9  H   UNL     1       5.444   4.514  16.961  0.00  0.00    +0.000 HD
BRANCH   6  10
ATOM     10  C   UNL     1       7.313   4.967  16.028  0.00  0.00    +0.000 C 
BRANCH  10  13
ATOM     11  N   UNL     1       6.124   3.592  12.854  0.00  0.00    +0.000 N 
ATOM     12  C   UNL     1       6.031   3.636  14.215  0.00  0.00    +0.000 A 
ATOM     13  C   UNL     1       6.957   4.570  14.643  0.00  0.00    +0.000 A 
ATOM     14  C   UNL     1       7.546   5.030  13.442  0.00  0.00    +0.000 A 
ATOM     15  N   UNL     1       7.039   4.444  12.358  0.00  0.00    +0.000 NA
BRANCH  11  17
ATOM     16  C   UNL     1       4.209   3.405  11.309  0.00  0.00    +0.000 C 
ATOM     17  C   UNL     1       5.395   2.715  11.958  0.00  0.00    +0.000 C 
ENDBRANCH  11  17
ENDBRANCH  10  13
ENDBRANCH   6  10
ENDBRANCH   1   7
BRANCH   3  18
ATOM     18  C   UNL     1       1.945   6.146  20.438  0.00  0.00    +0.000 C 
BRANCH  18  19
ATOM     19  O   UNL     1       1.200   4.994  20.051  0.00  0.00    +0.000 OA
BRANCH  19  20
ATOM     20  C   UNL     1       1.916   3.897  19.650  0.00  0.00    +0.000 A 
ATOM     21  C   UNL     1       2.740   3.123  20.475  0.00  0.00    +0.000 A 
ATOM     22  C   UNL     1       3.416   2.020  19.945  0.00  0.00    +0.000 A 
ATOM     23  C   UNL     1       3.273   1.695  18.601  0.00  0.00    +0.000 A 
ATOM     24  F   UNL     1       3.922   0.632  18.110  0.00  0.00    +0.000 F 
ATOM     25  C   UNL     1       2.471   2.456  17.765  0.00  0.00    +0.000 A 
ATOM     26  C   UNL     1       1.800   3.552  18.296  0.00  0.00    +0.000 A 
ATOM     27  F   UNL     1       1.025   4.283  17.480  0.00  0.00    +0.000 F 
ENDBRANCH  19  20
ENDBRANCH  18  19
ENDBRANCH   3  18
TORSDOF 7
ENDMDL
MODEL 6
REMARK VINA RESULT:      -7.5      6.289      8.784
REMARK  Name = 
REMARK  8 active torsions:
REMARK  status: ('A' for Active; 'I' for Inactive)
REMARK    1  A    between atoms: C_1  and  C_2
REMARK    2  A    between atoms: C_2  and  N_3
REMARK    3  A    between atoms: C_5  and  C_6
REMARK    4  A    between atoms: C_6  and  N_7
REMARK    5  A    between atoms: C_8  and  C_10
REMARK    6  A    between atoms: C_12  and  C_13
REMARK    7  A    between atoms: C_13  and  O_14
REMARK    8  A    between atoms: O_14  and  C_15
REMARK                            x       y       z     vdW  Elec       q    Type
REMARK                         _______ _______ _______ _____ _____    ______ ____
ROOT
ATOM      1  C   UNL     1       2.071   7.698  18.890  0.00  0.00    +0.000 A 
ATOM      2  C   UNL     1       2.488   6.566  18.146  0.00  0.00    +0.000 A 
ATOM      3  C   UNL     1       2.681   5.586  19.087  0.00  0.00    +0.000 A 
ATOM      4  O   UNL     1       2.419   6.093  20.321  0.00  0.00    +0.000 OA
ATOM      5  N   UNL     1       2.021   7.415  20.204  0.00  0.00    +0.000 NA
ENDROOT
BRANCH   1   7
ATOM      6  N   UNL     1       0.787   9.702  19.102  0.00  0.00    +0.000 N 
ATOM      7  C   UNL     1       1.718   9.012  18.356  0.00  0.00    +0.000 C 
ATOM      8  O   UNL     1       2.195   9.440  17.311  0.00  0.00    +0.000 OA
ATOM      9  H   UNL     1       0.508   9.307  19.994  0.00  0.00    +0.000 HD
BRANCH   6  10
ATOM     10  C   UNL     1       0.345  11.019  18.724  0.00  0.00    +0.000 C 
BRANCH  10  13
ATOM     11  N   UNL     1      -3.268  11.295  18.228  0.00  0.00    +0.000 N 
ATOM     12  C   UNL     1      -2.131  11.767  18.818  0.00  0.00    +0.000 A 
ATOM     13  C   UNL     1      -1.092  10.978  18.358  0.00  0.00    +0.000 A 
ATOM     14  C   UNL     1      -1.728  10.062  17.488  0.00  0.00    +0.000 A 
ATOM     15  N   UNL     1      -3.044  10.256  17.404  0.00  0.00    +0.000 NA
BRANCH  11  17
ATOM     16  C   UNL     1      -5.365  12.022  17.151  0.00  0.00    +0.000 C 
ATOM     17  C   UNL     1      -4.624  11.761  18.450  0.00  0.00    +0.000 C 
ENDBRANCH  11  17
ENDBRANCH  10  13
ENDBRANCH   6  10
ENDBRANCH   1   7
BRANCH   3  18
ATOM     18  C   UNL     1       3.104   4.169  19.022  0.00  0.00    +0.000 C 
BRANCH  18  19
ATOM     19  O   UNL     1       4.526   4.158  19.133  0.00  0.00    +0.000 OA
BRANCH  19  20
ATOM     20  C   UNL     1       5.239   4.312  17.973  0.00  0.00    +0.000 A 
ATOM     21  C   UNL     1       4.858   3.826  16.717  0.00  0.00    +0.000 A 
ATOM     22  C   UNL     1       5.673   4.055  15.606  0.00  0.00    +0.000 A 
ATOM     23  C   UNL     1       6.863   4.761  15.746  0.00  0.00    +0.000 A 
ATOM     24  F   UNL     1       7.630   4.977  14.671  0.00  0.00    +0.000 F 
ATOM     25  C   UNL     1       7.265   5.240  16.984  0.00  0.00    +0.000 A 
ATOM     26  C   UNL     1       6.450   5.010  18.087  0.00  0.00    +0.000 A 
ATOM     27  F   UNL     1       6.846   5.478  19.281  0.00  0.00    +0.000 F 
ENDBRANCH  19  20
ENDBRANCH  18  19
ENDBRANCH   3  18
TORSDOF 7
ENDMDL
MODEL 7
REMARK VINA RESULT:      -7.5      6.604      9.242
REMARK  Name = 
REMARK  8 active torsions:
REMARK  status: ('A' for Active; 'I' for Inactive)
REMARK    1  A    between atoms: C_1  and  C_2
REMARK    2  A    between atoms: C_2  and  N_3
REMARK    3  A    between atoms: C_5  and  C_6
REMARK    4  A    between atoms: C_6  and  N_7
REMARK    5  A    between atoms: C_8  and  C_10
REMARK    6  A    between atoms: C_12  and  C_13
REMARK    7  A    between atoms: C_13  and  O_14
REMARK    8  A    between atoms: O_14  and  C_15
REMARK                            x       y       z     vdW  Elec       q    Type
REMARK                         _______ _______ _______ _____ _____    ______ ____
ROOT
ATOM      1  C   UNL     1       2.239   7.295  19.209  0.00  0.00    +0.000 A 
ATOM      2  C   UNL     1       1.970   8.367  18.323  0.00  0.00    +0.000 A 
ATOM      3  C   UNL     1       1.431   9.346  19.118  0.00  0.00    +0.000 A 
ATOM      4  O   UNL     1       1.359   8.893  20.398  0.00  0.00    +0.000 OA
ATOM      5  N   UNL     1       1.879   7.611  20.466  0.00  0.00    +0.000 NA
ENDROOT
BRANCH   1   7
ATOM      6  N   UNL     1       4.068   5.774  19.443  0.00  0.00    +0.000 N 
ATOM      7  C   UNL     1       2.838   6.006  18.865  0.00  0.00    +0.000 C 
ATOM      8  O   UNL     1       2.294   5.219  18.099  0.00  0.00    +0.000 OA
ATOM      9  H   UNL     1       4.404   6.443  20.127  0.00  0.00    +0.000 HD
BRANCH   6  10
ATOM     10  C   UNL     1       4.783   4.544  19.222  0.00  0.00    +0.000 C 
BRANCH  10  13
ATOM     11  N   UNL     1       6.722   4.832  16.134  0.00  0.00    +0.000 N 
ATOM     12  C   UNL     1       5.508   4.680  16.741  0.00  0.00    +0.000 A 
ATOM     13  C   UNL     1       5.743   4.719  18.103  0.00  0.00    +0.000 A 
ATOM     14  C   UNL     1       7.141   4.905  18.196  0.00  0.00    +0.000 A 
ATOM     15  N   UNL     1       7.735   4.980  17.005  0.00  0.00    +0.000 NA
BRANCH  11  17
ATOM     16  C   UNL     1       6.055   3.865  13.964  0.00  0.00    +0.000 C 
ATOM     17  C   UNL     1       6.995   4.795  14.709  0.00  0.00    +0.000 C 
ENDBRANCH  11  17
ENDBRANCH  10  13
ENDBRANCH   6  10
ENDBRANCH   1   7
BRANCH   3  18
ATOM     18  C   UNL     1       0.933  10.717  18.865  0.00  0.00    +0.000 C 
BRANCH  18  19
ATOM     19  O   UNL     1      -0.377  10.790  19.424  0.00  0.00    +0.000 OA
BRANCH  19  20
ATOM     20  C   UNL     1      -1.428  10.759  18.546  0.00  0.00    +0.000 A 
ATOM     21  C   UNL     1      -1.562   9.870  17.474  0.00  0.00    +0.000 A 
ATOM     22  C   UNL     1      -2.690   9.936  16.651  0.00  0.00    +0.000 A 
ATOM     23  C   UNL     1      -3.675  10.886  16.894  0.00  0.00    +0.000 A 
ATOM     24  F   UNL     1      -4.753  10.934  16.101  0.00  0.00    +0.000 F 
ATOM     25  C   UNL     1      -3.556  11.785  17.944  0.00  0.00    +0.000 A 
ATOM     26  C   UNL     1      -2.432  11.715  18.760  0.00  0.00    +0.000 A 
ATOM     27  F   UNL     1      -2.325  12.587  19.775  0.00  0.00    +0.000 F 
ENDBRANCH  19  20
ENDBRANCH  18  19
ENDBRANCH   3  18
TORSDOF 7
ENDMDL
MODEL 8
REMARK VINA RESULT:      -7.5      7.837     10.632
REMARK  Name = 
REMARK  8 active torsions:
REMARK  status: ('A' for Active; 'I' for Inactive)
REMARK    1  A    between atoms: C_1  and  C_2
REMARK    2  A    between atoms: C_2  and  N_3
REMARK    3  A    between atoms: C_5  and  C_6
REMARK    4  A    between atoms: C_6  and  N_7
REMARK    5  A    between atoms: C_8  and  C_10
REMARK    6  A    between atoms: C_12  and  C_13
REMARK    7  A    between atoms: C_13  and  O_14
REMARK    8  A    between atoms: O_14  and  C_15
REMARK                            x       y       z     vdW  Elec       q    Type
REMARK                         _______ _______ _______ _____ _____    ______ ____
ROOT
ATOM      1  C   UNL     1       1.107   9.666  18.706  0.00  0.00    +0.000 A 
ATOM      2  C   UNL     1       1.577   8.451  19.263  0.00  0.00    +0.000 A 
ATOM      3  C   UNL     1       2.472   7.971  18.341  0.00  0.00    +0.000 A 
ATOM      4  O   UNL     1       2.528   8.827  17.285  0.00  0.00    +0.000 OA
ATOM      5  N   UNL     1       1.684   9.902  17.514  0.00  0.00    +0.000 NA
ENDROOT
BRANCH   1   7
ATOM      6  N   UNL     1      -0.601  11.308  18.395  0.00  0.00    +0.000 N 
ATOM      7  C   UNL     1       0.140  10.585  19.305  0.00  0.00    +0.000 C 
ATOM      8  O   UNL     1       0.029  10.714  20.519  0.00  0.00    +0.000 OA
ATOM      9  H   UNL     1      -0.502  11.078  17.413  0.00  0.00    +0.000 HD
BRANCH   6  10
ATOM     10  C   UNL     1      -1.611  12.243  18.820  0.00  0.00    +0.000 C 
BRANCH  10  13
ATOM     11  N   UNL     1      -5.061  11.391  17.958  0.00  0.00    +0.000 N 
ATOM     12  C   UNL     1      -4.184  11.969  18.830  0.00  0.00    +0.000 A 
ATOM     13  C   UNL     1      -2.928  11.841  18.267  0.00  0.00    +0.000 A 
ATOM     14  C   UNL     1      -3.175  11.171  17.047  0.00  0.00    +0.000 A 
ATOM     15  N   UNL     1      -4.467  10.903  16.854  0.00  0.00    +0.000 NA
BRANCH  11  17
ATOM     16  C   UNL     1      -6.824  10.106  19.111  0.00  0.00    +0.000 C 
ATOM     17  C   UNL     1      -6.491  11.224  18.140  0.00  0.00    +0.000 C 
ENDBRANCH  11  17
ENDBRANCH  10  13
ENDBRANCH   6  10
ENDBRANCH   1   7
BRANCH   3  18
ATOM     18  C   UNL     1       3.332   6.769  18.272  0.00  0.00    +0.000 C 
BRANCH  18  19
ATOM     19  O   UNL     1       2.470   5.659  18.032  0.00  0.00    +0.000 OA
BRANCH  19  20
ATOM     20  C   UNL     1       2.188   4.849  19.101  0.00  0.00    +0.000 A 
ATOM     21  C   UNL     1       2.652   5.042  20.407  0.00  0.00    +0.000 A 
ATOM     22  C   UNL     1       2.288   4.145  21.415  0.00  0.00    +0.000 A 
ATOM     23  C   UNL     1       1.470   3.060  21.120  0.00  0.00    +0.000 A 
ATOM     24  F   UNL     1       1.125   2.213  22.097  0.00  0.00    +0.000 F 
ATOM     25  C   UNL     1       1.010   2.844  19.830  0.00  0.00    +0.000 A 
ATOM     26  C   UNL     1       1.374   3.739  18.831  0.00  0.00    +0.000 A 
ATOM     27  F   UNL     1       0.924   3.524  17.585  0.00  0.00    +0.000 F 
ENDBRANCH  19  20
ENDBRANCH  18  19
ENDBRANCH   3  18
TORSDOF 7
ENDMDL
MODEL 9
REMARK VINA RESULT:      -7.4      8.685     11.484
REMARK  Name = 
REMARK  8 active torsions:
REMARK  status: ('A' for Active; 'I' for Inactive)
REMARK    1  A    between atoms: C_1  and  C_2
REMARK    2  A    between atoms: C_2  and  N_3
REMARK    3  A    between atoms: C_5  and  C_6
REMARK    4  A    between atoms: C_6  and  N_7
REMARK    5  A    between atoms: C_8  and  C_10
REMARK    6  A    between atoms: C_12  and  C_13
REMARK    7  A    between atoms: C_13  and  O_14
REMARK    8  A    between atoms: O_14  and  C_15
REMARK                            x       y       z     vdW  Elec       q    Type
REMARK                         _______ _______ _______ _____ _____    ______ ____
ROOT
ATOM      1  C   UNL     1       0.288   9.991  21.032  0.00  0.00    +0.000 A 
ATOM      2  C   UNL     1       1.247   8.959  20.878  0.00  0.00    +0.000 A 
ATOM      3  C   UNL     1       1.395   8.824  19.521  0.00  0.00    +0.000 A 
ATOM      4  O   UNL     1       0.568   9.700  18.892  0.00  0.00    +0.000 OA
ATOM      5  N   UNL     1      -0.120  10.447  19.834  0.00  0.00    +0.000 NA
ENDROOT
BRANCH   1   7
ATOM      6  N   UNL     1      -0.935  11.704  22.164  0.00  0.00    +0.000 N 
ATOM      7  C   UNL     1      -0.215  10.535  22.292  0.00  0.00    +0.000 C 
ATOM      8  O   UNL     1       0.020  10.003  23.371  0.00  0.00    +0.000 OA
ATOM      9  H   UNL     1      -1.149  12.028  21.228  0.00  0.00    +0.000 HD
BRANCH   6  10
ATOM     10  C   UNL     1      -1.516  12.358  23.307  0.00  0.00    +0.000 C 
BRANCH  10  13
ATOM     11  N   UNL     1      -5.030  12.748  22.369  0.00  0.00    +0.000 N 
ATOM     12  C   UNL     1      -3.718  12.712  21.993  0.00  0.00    +0.000 A 
ATOM     13  C   UNL     1      -2.988  12.447  23.137  0.00  0.00    +0.000 A 
ATOM     14  C   UNL     1      -3.974  12.337  24.144  0.00  0.00    +0.000 A 
ATOM     15  N   UNL     1      -5.211  12.513  23.680  0.00  0.00    +0.000 NA
BRANCH  11  17
ATOM     16  C   UNL     1      -7.472  12.523  22.098  0.00  0.00    +0.000 C 
ATOM     17  C   UNL     1      -6.170  13.055  21.526  0.00  0.00    +0.000 C 
ENDBRANCH  11  17
ENDBRANCH  10  13
ENDBRANCH   6  10
ENDBRANCH   1   7
BRANCH   3  18
ATOM     18  C   UNL     1       2.226   7.953  18.660  0.00  0.00    +0.000 C 
BRANCH  18  19
ATOM     19  O   UNL     1       2.679   6.877  19.477  0.00  0.00    +0.000 OA
BRANCH  19  20
ATOM     20  C   UNL     1       2.191   5.630  19.188  0.00  0.00    +0.000 A 
ATOM     21  C   UNL     1       2.124   5.063  17.911  0.00  0.00    +0.000 A 
ATOM     22  C   UNL     1       1.608   3.774  17.747  0.00  0.00    +0.000 A 
ATOM     23  C   UNL     1       1.159   3.058  18.850  0.00  0.00    +0.000 A 
ATOM     24  F   UNL     1       0.673   1.822  18.679  0.00  0.00    +0.000 F 
ATOM     25  C   UNL     1       1.205   3.606  20.123  0.00  0.00    +0.000 A 
ATOM     26  C   UNL     1       1.720   4.888  20.281  0.00  0.00    +0.000 A 
ATOM     27  F   UNL     1       1.763   5.411  21.517  0.00  0.00    +0.000 F 
ENDBRANCH  19  20
ENDBRANCH  18  19
ENDBRANCH   3  18
TORSDOF 7
ENDMDL
