MODEL 1
REMARK VINA RESULT:      -7.8      0.000      0.000
REMARK  Name = 
REMARK  5 active torsions:
REMARK  status: ('A' for Active; 'I' for Inactive)
REMARK    1  A    between atoms: C_1  and  N_2
REMARK    2  A    between atoms: N_2  and  C_3
REMARK    3  A    between atoms: C_4  and  C_6
REMARK    4  A    between atoms: C_9  and  C_10
REMARK    5  A    between atoms: C_12  and  N_13
REMARK                            x       y       z     vdW  Elec       q    Type
REMARK                         _______ _______ _______ _____ _____    ______ ____
ROOT
ATOM      1  C   UNL     1       0.817   9.693  19.450  0.00  0.00    +0.000 A 
ATOM      2  C   UNL     1       1.412   9.480  18.206  0.00  0.00    +0.000 A 
ATOM      3  C   UNL     1       2.161   8.326  17.969  0.00  0.00    +0.000 A 
ATOM      4  C   UNL     1       2.406   7.389  18.986  0.00  0.00    +0.000 A 
ATOM      5  C   UNL     1       1.844   7.644  20.252  0.00  0.00    +0.000 A 
ATOM      6  C   UNL     1       1.061   8.783  20.483  0.00  0.00    +0.000 A 
ENDROOT
BRANCH   4   7
ATOM      7  C   UNL     1       3.277   6.227  18.724  0.00  0.00    +0.000 A 
ATOM      8  C   UNL     1       4.138   6.185  17.645  0.00  0.00    +0.000 A 
ATOM      9  C   UNL     1       4.840   5.014  17.449  0.00  0.00    +0.000 A 
ATOM     10  N   UNL     1       4.716   3.945  18.263  0.00  0.00    +0.000 NA
ATOM     11  C   UNL     1       3.866   4.084  19.287  0.00  0.00    +0.000 A 
ATOM     12  N   UNL     1       3.135   5.172  19.558  0.00  0.00    +0.000 NA
BRANCH   9  13
ATOM     13  N   UNL     1       5.723   4.906  16.343  0.00  0.00    +0.000 N 
ATOM     14  C   UNL     1       5.555   4.185  15.179  0.00  0.00    +0.000 A 
ATOM     15  C   UNL     1       6.682   4.413  14.430  0.00  0.00    +0.000 A 
ATOM     16  N   UNL     1       7.544   5.247  15.091  0.00  0.00    +0.000 NA
ATOM     17  C   UNL     1       6.944   5.522  16.227  0.00  0.00    +0.000 A 
ENDBRANCH   9  13
ENDBRANCH   4   7
BRANCH   1  21
ATOM     18  C   UNL     1      -1.946  12.313  19.365  0.00  0.00    +0.000 C 
ATOM     19  N   UNL     1      -1.209  11.105  19.041  0.00  0.00    +0.000 N 
ATOM     20  C   UNL     1      -1.880  10.128  18.192  0.00  0.00    +0.000 C 
ATOM     21  C   UNL     1      -0.016  10.888  19.740  0.00  0.00    +0.000 C 
ATOM     22  O   UNL     1       0.379  11.654  20.619  0.00  0.00    +0.000 OA
ENDBRANCH   1  21
TORSDOF 3
ENDMDL
MODEL 2
REMARK VINA RESULT:      -7.7      0.948      1.269
REMARK  Name = 
REMARK  5 active torsions:
REMARK  status: ('A' for Active; 'I' for Inactive)
REMARK    1  A    between atoms: C_1  and  N_2
REMARK    2  A    between atoms: N_2  and  C_3
REMARK    3  A    between atoms: C_4  and  C_6
REMARK    4  A    between atoms: C_9  and  C_10
REMARK    5  A    between atoms: C_12  and  N_13
REMARK                            x       y       z     vdW  Elec       q    Type
REMARK                         _______ _______ _______ _____ _____    ______ ____
ROOT
ATOM      1  C   UNL     1       0.650   9.795  19.251  0.00  0.00    +0.000 A 
ATOM      2  C   UNL     1       1.237   9.520  18.016  0.00  0.00    +0.000 A 
ATOM      3  C   UNL     1       2.048   8.395  17.854  0.00  0.00    +0.000 A 
ATOM      4  C   UNL     1       2.363   7.555  18.935  0.00  0.00    +0.000 A 
ATOM      5  C   UNL     1       1.805   7.876  20.188  0.00  0.00    +0.000 A 
ATOM      6  C   UNL     1       0.961   8.983  20.347  0.00  0.00    +0.000 A 
ENDROOT
BRANCH   4   7
ATOM      7  C   UNL     1       3.295   6.427  18.747  0.00  0.00    +0.000 A 
ATOM      8  C   UNL     1       4.110   6.328  17.636  0.00  0.00    +0.000 A 
ATOM      9  C   UNL     1       4.878   5.188  17.521  0.00  0.00    +0.000 A 
ATOM     10  N   UNL     1       4.859   4.202  18.442  0.00  0.00    +0.000 NA
ATOM     11  C   UNL     1       4.047   4.393  19.489  0.00  0.00    +0.000 A 
ATOM     12  N   UNL     1       3.259   5.457  19.686  0.00  0.00    +0.000 NA
BRANCH   9  13
ATOM     13  N   UNL     1       5.716   5.022  16.389  0.00  0.00    +0.000 N 
ATOM     14  C   UNL     1       5.466   4.313  15.232  0.00  0.00    +0.000 A 
ATOM     15  C   UNL     1       6.582   4.467  14.449  0.00  0.00    +0.000 A 
ATOM     16  N   UNL     1       7.517   5.241  15.081  0.00  0.00    +0.000 NA
ATOM     17  C   UNL     1       6.972   5.556  16.235  0.00  0.00    +0.000 A 
ENDBRANCH   9  13
ENDBRANCH   4   7
BRANCH   1  21
ATOM     18  C   UNL     1      -0.669  13.273  20.069  0.00  0.00    +0.000 C 
ATOM     19  N   UNL     1       0.280  12.197  19.852  0.00  0.00    +0.000 N 
ATOM     20  C   UNL     1       1.694  12.553  19.840  0.00  0.00    +0.000 C 
ATOM     21  C   UNL     1      -0.247  10.960  19.465  0.00  0.00    +0.000 C 
ATOM     22  O   UNL     1      -1.451  10.790  19.271  0.00  0.00    +0.000 OA
ENDBRANCH   1  21
TORSDOF 3
ENDMDL
MODEL 3
REMARK VINA RESULT:      -7.7      0.945      1.624
REMARK  Name = 
REMARK  5 active torsions:
REMARK  status: ('A' for Active; 'I' for Inactive)
REMARK    1  A    between atoms: C_1  and  N_2
REMARK    2  A    between atoms: N_2  and  C_3
REMARK    3  A    between atoms: C_4  and  C_6
REMARK    4  A    between atoms: C_9  and  C_10
REMARK    5  A    between atoms: C_12  and  N_13
REMARK                            x       y       z     vdW  Elec       q    Type
REMARK                         _______ _______ _______ _____ _____    ______ ____
ROOT
ATOM      1  C   UNL     1       0.626   9.843  19.292  0.00  0.00    +0.000 A 
ATOM      2  C   UNL     1       0.947   8.986  20.345  0.00  0.00    +0.000 A 
ATOM      3  C   UNL     1       1.839   7.930  20.148  0.00  0.00    +0.000 A 
ATOM      4  C   UNL     1       2.376   7.649  18.881  0.00  0.00    +0.000 A 
ATOM      5  C   UNL     1       2.001   8.492  17.817  0.00  0.00    +0.000 A 
ATOM      6  C   UNL     1       1.135   9.574  18.018  0.00  0.00    +0.000 A 
ENDROOT
BRANCH   4   7
ATOM      7  C   UNL     1       3.245   6.471  18.692  0.00  0.00    +0.000 A 
ATOM      8  C   UNL     1       4.098   6.355  17.612  0.00  0.00    +0.000 A 
ATOM      9  C   UNL     1       4.798   5.173  17.490  0.00  0.00    +0.000 A 
ATOM     10  N   UNL     1       4.680   4.162  18.376  0.00  0.00    +0.000 NA
ATOM     11  C   UNL     1       3.838   4.371  19.395  0.00  0.00    +0.000 A 
ATOM     12  N   UNL     1       3.109   5.476  19.596  0.00  0.00    +0.000 NA
BRANCH   9  13
ATOM     13  N   UNL     1       5.673   4.990  16.388  0.00  0.00    +0.000 N 
ATOM     14  C   UNL     1       5.463   4.254  15.240  0.00  0.00    +0.000 A 
ATOM     15  C   UNL     1       6.601   4.400  14.487  0.00  0.00    +0.000 A 
ATOM     16  N   UNL     1       7.510   5.196  15.130  0.00  0.00    +0.000 NA
ATOM     17  C   UNL     1       6.927   5.531  16.260  0.00  0.00    +0.000 A 
ENDBRANCH   9  13
ENDBRANCH   4   7
BRANCH   1  21
ATOM     18  C   UNL     1      -0.754  13.328  19.970  0.00  0.00    +0.000 C 
ATOM     19  N   UNL     1       0.214  12.261  19.795  0.00  0.00    +0.000 N 
ATOM     20  C   UNL     1       1.621  12.642  19.764  0.00  0.00    +0.000 C 
ATOM     21  C   UNL     1      -0.291  11.000  19.460  0.00  0.00    +0.000 C 
ATOM     22  O   UNL     1      -1.492  10.801  19.277  0.00  0.00    +0.000 OA
ENDBRANCH   1  21
TORSDOF 3
ENDMDL
MODEL 4
REMARK VINA RESULT:      -7.7      3.127      7.983
REMARK  Name = 
REMARK  5 active torsions:
REMARK  status: ('A' for Active; 'I' for Inactive)
REMARK    1  A    between atoms: C_1  and  N_2
REMARK    2  A    between atoms: N_2  and  C_3
REMARK    3  A    between atoms: C_4  and  C_6
REMARK    4  A    between atoms: C_9  and  C_10
REMARK    5  A    between atoms: C_12  and  N_13
REMARK                            x       y       z     vdW  Elec       q    Type
REMARK                         _______ _______ _______ _____ _____    ______ ____
ROOT
ATOM      1  C   UNL     1       5.750   4.999  15.380  0.00  0.00    +0.000 A 
ATOM      2  C   UNL     1       5.332   3.961  16.214  0.00  0.00    +0.000 A 
ATOM      3  C   UNL     1       4.421   4.205  17.243  0.00  0.00    +0.000 A 
ATOM      4  C   UNL     1       3.960   5.503  17.524  0.00  0.00    +0.000 A 
ATOM      5  C   UNL     1       4.433   6.548  16.707  0.00  0.00    +0.000 A 
ATOM      6  C   UNL     1       5.318   6.302  15.649  0.00  0.00    +0.000 A 
ENDROOT
BRANCH   4   7
ATOM      7  C   UNL     1       3.069   5.736  18.676  0.00  0.00    +0.000 A 
ATOM      8  C   UNL     1       2.644   7.002  19.029  0.00  0.00    +0.000 A 
ATOM      9  C   UNL     1       1.884   7.111  20.174  0.00  0.00    +0.000 A 
ATOM     10  N   UNL     1       1.549   6.045  20.931  0.00  0.00    +0.000 NA
ATOM     11  C   UNL     1       1.997   4.859  20.502  0.00  0.00    +0.000 A 
ATOM     12  N   UNL     1       2.745   4.650  19.412  0.00  0.00    +0.000 NA
BRANCH   9  13
ATOM     13  N   UNL     1       1.439   8.391  20.597  0.00  0.00    +0.000 N 
ATOM     14  C   UNL     1       1.069   9.470  19.822  0.00  0.00    +0.000 A 
ATOM     15  C   UNL     1       0.715  10.461  20.703  0.00  0.00    +0.000 A 
ATOM     16  N   UNL     1       0.857  10.036  21.997  0.00  0.00    +0.000 NA
ATOM     17  C   UNL     1       1.290   8.798  21.900  0.00  0.00    +0.000 A 
ENDBRANCH   9  13
ENDBRANCH   4   7
BRANCH   1  21
ATOM     18  C   UNL     1       7.303   3.817  12.109  0.00  0.00    +0.000 C 
ATOM     19  N   UNL     1       6.312   4.003  13.153  0.00  0.00    +0.000 N 
ATOM     20  C   UNL     1       4.955   3.553  12.866  0.00  0.00    +0.000 C 
ATOM     21  C   UNL     1       6.691   4.783  14.251  0.00  0.00    +0.000 C 
ATOM     22  O   UNL     1       7.793   5.328  14.321  0.00  0.00    +0.000 OA
ENDBRANCH   1  21
TORSDOF 3
ENDMDL
MODEL 5
REMARK VINA RESULT:      -7.7      0.392      1.098
REMARK  Name = 
REMARK  5 active torsions:
REMARK  status: ('A' for Active; 'I' for Inactive)
REMARK    1  A    between atoms: C_1  and  N_2
REMARK    2  A    between atoms: N_2  and  C_3
REMARK    3  A    between atoms: C_4  and  C_6
REMARK    4  A    between atoms: C_9  and  C_10
REMARK    5  A    between atoms: C_12  and  N_13
REMARK                            x       y       z     vdW  Elec       q    Type
REMARK                         _______ _______ _______ _____ _____    ______ ____
ROOT
ATOM      1  C   UNL     1       0.764   9.867  19.411  0.00  0.00    +0.000 A 
ATOM      2  C   UNL     1       0.908   8.923  20.428  0.00  0.00    +0.000 A 
ATOM      3  C   UNL     1       1.734   7.811  20.248  0.00  0.00    +0.000 A 
ATOM      4  C   UNL     1       2.378   7.566  19.024  0.00  0.00    +0.000 A 
ATOM      5  C   UNL     1       2.181   8.501  17.989  0.00  0.00    +0.000 A 
ATOM      6  C   UNL     1       1.382   9.636  18.178  0.00  0.00    +0.000 A 
ENDROOT
BRANCH   4   7
ATOM      7  C   UNL     1       3.171   6.335  18.842  0.00  0.00    +0.000 A 
ATOM      8  C   UNL     1       4.118   6.215  17.843  0.00  0.00    +0.000 A 
ATOM      9  C   UNL     1       4.737   4.989  17.711  0.00  0.00    +0.000 A 
ATOM     10  N   UNL     1       4.454   3.940  18.512  0.00  0.00    +0.000 NA
ATOM     11  C   UNL     1       3.531   4.156  19.457  0.00  0.00    +0.000 A 
ATOM     12  N   UNL     1       2.871   5.303  19.660  0.00  0.00    +0.000 NA
BRANCH   9  13
ATOM     13  N   UNL     1       5.702   4.801  16.688  0.00  0.00    +0.000 N 
ATOM     14  C   UNL     1       5.494   4.582  15.342  0.00  0.00    +0.000 A 
ATOM     15  C   UNL     1       6.742   4.471  14.782  0.00  0.00    +0.000 A 
ATOM     16  N   UNL     1       7.716   4.609  15.734  0.00  0.00    +0.000 NA
ATOM     17  C   UNL     1       7.064   4.803  16.859  0.00  0.00    +0.000 A 
ENDBRANCH   9  13
ENDBRANCH   4   7
BRANCH   1  21
ATOM     18  C   UNL     1      -2.034  12.428  19.065  0.00  0.00    +0.000 C 
ATOM     19  N   UNL     1      -1.291  11.194  18.881  0.00  0.00    +0.000 N 
ATOM     20  C   UNL     1      -1.973  10.108  18.188  0.00  0.00    +0.000 C 
ATOM     21  C   UNL     1      -0.076  11.082  19.566  0.00  0.00    +0.000 C 
ATOM     22  O   UNL     1       0.334  11.961  20.325  0.00  0.00    +0.000 OA
ENDBRANCH   1  21
TORSDOF 3
ENDMDL
MODEL 6
REMARK VINA RESULT:      -7.6      0.960      1.399
REMARK  Name = 
REMARK  5 active torsions:
REMARK  status: ('A' for Active; 'I' for Inactive)
REMARK    1  A    between atoms: C_1  and  N_2
REMARK    2  A    between atoms: N_2  and  C_3
REMARK    3  A    between atoms: C_4  and  C_6
REMARK    4  A    between atoms: C_9  and  C_10
REMARK    5  A    between atoms: C_12  and  N_13
REMARK                            x       y       z     vdW  Elec       q    Type
REMARK                         _______ _______ _______ _____ _____    ______ ____
ROOT
ATOM      1  C   UNL     1       1.168   9.259  20.157  0.00  0.00    +0.000 A 
ATOM      2  C   UNL     1       1.363   8.067  20.854  0.00  0.00    +0.000 A 
ATOM      3  C   UNL     1       2.020   6.994  20.249  0.00  0.00    +0.000 A 
ATOM      4  C   UNL     1       2.433   7.048  18.907  0.00  0.00    +0.000 A 
ATOM      5  C   UNL     1       2.181   8.240  18.200  0.00  0.00    +0.000 A 
ATOM      6  C   UNL     1       1.555   9.332  18.815  0.00  0.00    +0.000 A 
ENDROOT
BRANCH   4   7
ATOM      7  C   UNL     1       3.043   5.863  18.274  0.00  0.00    +0.000 A 
ATOM      8  C   UNL     1       4.113   5.966  17.406  0.00  0.00    +0.000 A 
ATOM      9  C   UNL     1       4.547   4.802  16.807  0.00  0.00    +0.000 A 
ATOM     10  N   UNL     1       3.975   3.603  17.044  0.00  0.00    +0.000 NA
ATOM     11  C   UNL     1       2.953   3.602  17.908  0.00  0.00    +0.000 A 
ATOM     12  N   UNL     1       2.454   4.675  18.534  0.00  0.00    +0.000 NA
BRANCH   9  13
ATOM     13  N   UNL     1       5.628   4.851  15.888  0.00  0.00    +0.000 N 
ATOM     14  C   UNL     1       5.710   4.292  14.629  0.00  0.00    +0.000 A 
ATOM     15  C   UNL     1       6.951   4.628  14.150  0.00  0.00    +0.000 A 
ATOM     16  N   UNL     1       7.643   5.370  15.069  0.00  0.00    +0.000 NA
ATOM     17  C   UNL     1       6.827   5.485  16.094  0.00  0.00    +0.000 A 
ENDBRANCH   9  13
ENDBRANCH   4   7
BRANCH   1  21
ATOM     18  C   UNL     1      -1.195  12.173  20.817  0.00  0.00    +0.000 C 
ATOM     19  N   UNL     1      -0.629  11.002  20.171  0.00  0.00    +0.000 N 
ATOM     20  C   UNL     1      -1.409  10.393  19.101  0.00  0.00    +0.000 C 
ATOM     21  C   UNL     1       0.505  10.440  20.768  0.00  0.00    +0.000 C 
ATOM     22  O   UNL     1       0.983  10.879  21.814  0.00  0.00    +0.000 OA
ENDBRANCH   1  21
TORSDOF 3
ENDMDL
MODEL 7
REMARK VINA RESULT:      -7.5      3.151      7.955
REMARK  Name = 
REMARK  5 active torsions:
REMARK  status: ('A' for Active; 'I' for Inactive)
REMARK    1  A    between atoms: C_1  and  N_2
REMARK    2  A    between atoms: N_2  and  C_3
REMARK    3  A    between atoms: C_4  and  C_6
REMARK    4  A    between atoms: C_9  and  C_10
REMARK    5  A    between atoms: C_12  and  N_13
REMARK                            x       y       z     vdW  Elec       q    Type
REMARK                         _______ _______ _______ _____ _____    ______ ____
ROOT
ATOM      1  C   UNL     1       5.865   5.015  15.271  0.00  0.00    +0.000 A 
ATOM      2  C   UNL     1       5.365   6.281  15.576  0.00  0.00    +0.000 A 
ATOM      3  C   UNL     1       4.556   6.470  16.699  0.00  0.00    +0.000 A 
ATOM      4  C   UNL     1       4.157   5.391  17.505  0.00  0.00    +0.000 A 
ATOM      5  C   UNL     1       4.627   4.110  17.153  0.00  0.00    +0.000 A 
ATOM      6  C   UNL     1       5.468   3.923  16.049  0.00  0.00    +0.000 A 
ENDROOT
BRANCH   4   7
ATOM      7  C   UNL     1       3.229   5.614  18.631  0.00  0.00    +0.000 A 
ATOM      8  C   UNL     1       2.751   6.871  18.947  0.00  0.00    +0.000 A 
ATOM      9  C   UNL     1       1.959   6.975  20.071  0.00  0.00    +0.000 A 
ATOM     10  N   UNL     1       1.645   5.913  20.842  0.00  0.00    +0.000 NA
ATOM     11  C   UNL     1       2.146   4.735  20.450  0.00  0.00    +0.000 A 
ATOM     12  N   UNL     1       2.928   4.532  19.382  0.00  0.00    +0.000 NA
BRANCH   9  13
ATOM     13  N   UNL     1       1.458   8.245  20.457  0.00  0.00    +0.000 N 
ATOM     14  C   UNL     1       1.153   8.699  21.724  0.00  0.00    +0.000 A 
ATOM     15  C   UNL     1       0.712   9.988  21.565  0.00  0.00    +0.000 A 
ATOM     16  N   UNL     1       0.728  10.349  20.244  0.00  0.00    +0.000 NA
ATOM     17  C   UNL     1       1.177   9.288  19.610  0.00  0.00    +0.000 A 
ENDBRANCH   9  13
ENDBRANCH   4   7
BRANCH   1  21
ATOM     18  C   UNL     1       7.266   3.766  11.957  0.00  0.00    +0.000 C 
ATOM     19  N   UNL     1       6.321   3.980  13.038  0.00  0.00    +0.000 N 
ATOM     20  C   UNL     1       4.949   3.543  12.814  0.00  0.00    +0.000 C 
ATOM     21  C   UNL     1       6.756   4.771  14.107  0.00  0.00    +0.000 C 
ATOM     22  O   UNL     1       7.866   5.302  14.123  0.00  0.00    +0.000 OA
ENDBRANCH   1  21
TORSDOF 3
ENDMDL
MODEL 8
REMARK VINA RESULT:      -7.3      3.020      8.315
REMARK  Name = 
REMARK  5 active torsions:
REMARK  status: ('A' for Active; 'I' for Inactive)
REMARK    1  A    between atoms: C_1  and  N_2
REMARK    2  A    between atoms: N_2  and  C_3
REMARK    3  A    between atoms: C_4  and  C_6
REMARK    4  A    between atoms: C_9  and  C_10
REMARK    5  A    between atoms: C_12  and  N_13
REMARK                            x       y       z     vdW  Elec       q    Type
REMARK                         _______ _______ _______ _____ _____    ______ ____
ROOT
ATOM      1  C   UNL     1       3.012   6.648  18.988  0.00  0.00    +0.000 A 
ATOM      2  C   UNL     1       2.980   7.403  17.816  0.00  0.00    +0.000 A 
ATOM      3  C   UNL     1       2.248   8.591  17.761  0.00  0.00    +0.000 A 
ATOM      4  C   UNL     1       1.463   9.020  18.844  0.00  0.00    +0.000 A 
ATOM      5  C   UNL     1       1.464   8.218  20.002  0.00  0.00    +0.000 A 
ATOM      6  C   UNL     1       2.226   7.046  20.074  0.00  0.00    +0.000 A 
ENDROOT
BRANCH   4   7
ATOM      7  C   UNL     1       0.632  10.233  18.719  0.00  0.00    +0.000 A 
ATOM      8  C   UNL     1      -0.674  10.183  18.272  0.00  0.00    +0.000 A 
ATOM      9  C   UNL     1      -1.328  11.387  18.111  0.00  0.00    +0.000 A 
ATOM     10  N   UNL     1      -0.744  12.574  18.377  0.00  0.00    +0.000 NA
ATOM     11  C   UNL     1       0.519  12.521  18.816  0.00  0.00    +0.000 A 
ATOM     12  N   UNL     1       1.240  11.407  18.997  0.00  0.00    +0.000 NA
BRANCH   9  13
ATOM     13  N   UNL     1      -2.664  11.397  17.633  0.00  0.00    +0.000 N 
ATOM     14  C   UNL     1      -3.816  11.738  18.312  0.00  0.00    +0.000 A 
ATOM     15  C   UNL     1      -4.840  11.590  17.411  0.00  0.00    +0.000 A 
ATOM     16  N   UNL     1      -4.365  11.164  16.200  0.00  0.00    +0.000 NA
ATOM     17  C   UNL     1      -3.065  11.058  16.365  0.00  0.00    +0.000 A 
ENDBRANCH   9  13
ENDBRANCH   4   7
BRANCH   1  21
ATOM     18  C   UNL     1       4.039   2.980  19.037  0.00  0.00    +0.000 C 
ATOM     19  N   UNL     1       3.202   4.155  18.868  0.00  0.00    +0.000 N 
ATOM     20  C   UNL     1       1.893   3.953  18.259  0.00  0.00    +0.000 C 
ATOM     21  C   UNL     1       3.803   5.396  19.106  0.00  0.00    +0.000 C 
ATOM     22  O   UNL     1       4.993   5.504  19.402  0.00  0.00    +0.000 OA
ENDBRANCH   1  21
TORSDOF 3
ENDMDL
MODEL 9
REMARK VINA RESULT:      -7.1      3.099      8.435
REMARK  Name = 
REMARK  5 active torsions:
REMARK  status: ('A' for Active; 'I' for Inactive)
REMARK    1  A    between atoms: C_1  and  N_2
REMARK    2  A    between atoms: N_2  and  C_3
REMARK    3  A    between atoms: C_4  and  C_6
REMARK    4  A    between atoms: C_9  and  C_10
REMARK    5  A    between atoms: C_12  and  N_13
REMARK                            x       y       z     vdW  Elec       q    Type
REMARK                         _______ _______ _______ _____ _____    ______ ____
ROOT
ATOM      1  C   UNL     1       2.941   6.558  19.179  0.00  0.00    +0.000 A 
ATOM      2  C   UNL     1       2.212   7.079  20.249  0.00  0.00    +0.000 A 
ATOM      3  C   UNL     1       1.432   8.224  20.081  0.00  0.00    +0.000 A 
ATOM      4  C   UNL     1       1.416   8.930  18.866  0.00  0.00    +0.000 A 
ATOM      5  C   UNL     1       2.200   8.422  17.812  0.00  0.00    +0.000 A 
ATOM      6  C   UNL     1       2.955   7.252  17.965  0.00  0.00    +0.000 A 
ENDROOT
BRANCH   4   7
ATOM      7  C   UNL     1       0.651  10.187  18.753  0.00  0.00    +0.000 A 
ATOM      8  C   UNL     1      -0.689  10.200  18.417  0.00  0.00    +0.000 A 
ATOM      9  C   UNL     1      -1.281  11.435  18.254  0.00  0.00    +0.000 A 
ATOM     10  N   UNL     1      -0.608  12.593  18.418  0.00  0.00    +0.000 NA
ATOM     11  C   UNL     1       0.682  12.479  18.754  0.00  0.00    +0.000 A 
ATOM     12  N   UNL     1       1.349  11.331  18.927  0.00  0.00    +0.000 NA
BRANCH   9  13
ATOM     13  N   UNL     1      -2.650  11.510  17.886  0.00  0.00    +0.000 N 
ATOM     14  C   UNL     1      -3.226  11.236  16.663  0.00  0.00    +0.000 A 
ATOM     15  C   UNL     1      -4.571  11.453  16.824  0.00  0.00    +0.000 A 
ATOM     16  N   UNL     1      -4.849  11.856  18.103  0.00  0.00    +0.000 NA
ATOM     17  C   UNL     1      -3.683  11.881  18.710  0.00  0.00    +0.000 A 
ENDBRANCH   9  13
ENDBRANCH   4   7
BRANCH   1  21
ATOM     18  C   UNL     1       4.038   2.912  19.280  0.00  0.00    +0.000 C 
ATOM     19  N   UNL     1       3.173   4.067  19.113  0.00  0.00    +0.000 N 
ATOM     20  C   UNL     1       1.848   3.827  18.557  0.00  0.00    +0.000 C 
ATOM     21  C   UNL     1       3.759   5.324  19.299  0.00  0.00    +0.000 C 
ATOM     22  O   UNL     1       4.957   5.461  19.548  0.00  0.00    +0.000 OA
ENDBRANCH   1  21
TORSDOF 3
ENDMDL
