MODEL 1
REMARK VINA RESULT:      -6.7      0.000      0.000
REMARK  Name = 
REMARK  9 active torsions:
REMARK  status: ('A' for Active; 'I' for Inactive)
REMARK    1  A    between atoms: C_1  and  C_2
REMARK    2  A    between atoms: C_2  and  O_3
REMARK    3  A    between atoms: O_3  and  C_4
REMARK    4  A    between atoms: C_4  and  C_6
REMARK    5  A    between atoms: C_6  and  C_7
REMARK    6  A    between atoms: C_7  and  C_8
REMARK    7  A    between atoms: C_13  and  C_14
REMARK    8  A    between atoms: C_19  and  C_21
REMARK    9  A    between atoms: N_25  and  C_26
REMARK                            x       y       z     vdW  Elec       q    Type
REMARK                         _______ _______ _______ _____ _____    ______ ____
ROOT
ATOM      1  C   UNL     1       4.632   4.005  18.727  0.00  0.00    +0.000 C 
ATOM      2  C   UNL     1       4.729   2.790  19.687  0.00  0.00    +0.000 C 
ATOM      3  C   UNL     1       3.458   2.571  20.501  0.00  0.00    +0.000 C 
ATOM      4  C   UNL     1       3.024   3.834  21.243  0.00  0.00    +0.000 C 
ATOM      5  N   UNL     1       3.078   5.033  20.404  0.00  0.00    +0.000 N 
ATOM      6  C   UNL     1       1.884   5.762  20.216  0.00  0.00    +0.000 C 
ATOM      7  O   UNL     1       0.819   5.334  20.661  0.00  0.00    +0.000 OA
ATOM      8  C   UNL     1       4.332   5.227  19.629  0.00  0.00    +0.000 C 
ENDROOT
BRANCH   6   9
ATOM      9  C   UNL     1       1.940   7.028  19.515  0.00  0.00    +0.000 A 
ATOM     10  C   UNL     1       2.331   7.318  18.221  0.00  0.00    +0.000 A 
ATOM     11  C   UNL     1       2.099   8.693  18.053  0.00  0.00    +0.000 A 
ATOM     12  N   UNL     1       1.688   9.275  19.179  0.00  0.00    +0.000 NA
ATOM     13  N   UNL     1       1.627   8.256  20.065  0.00  0.00    +0.000 N 
ATOM     14  C   UNL     1       1.191   8.558  21.413  0.00  0.00    +0.000 C 
ENDBRANCH   6   9
BRANCH   1  15
ATOM     15  C   UNL     1       3.469   3.932  17.731  0.00  0.00    +0.000 C 
ATOM     16  O   UNL     1       3.189   4.854  16.977  0.00  0.00    +0.000 OA
BRANCH  15  17
ATOM     17  O   UNL     1       2.747   2.789  17.790  0.00  0.00    +0.000 OA
BRANCH  17  19
ATOM     18  C   UNL     1       0.548   2.246  18.921  0.00  0.00    +0.000 C 
ATOM     19  C   UNL     1       1.316   2.983  17.826  0.00  0.00    +0.000 C 
ENDBRANCH  17  19
ENDBRANCH  15  17
ENDBRANCH   1  15
BRANCH   1  20
ATOM     20  C   UNL     1       5.987   4.095  17.979  0.00  0.00    +0.000 C 
BRANCH  20  21
ATOM     21  C   UNL     1       6.740   5.409  17.944  0.00  0.00    +0.000 A 
ATOM     22  C   UNL     1       7.650   5.662  18.991  0.00  0.00    +0.000 A 
ATOM     23  C   UNL     1       8.336   6.872  19.087  0.00  0.00    +0.000 A 
ATOM     24  C   UNL     1       8.123   7.860  18.137  0.00  0.00    +0.000 A 
ATOM     25  C   UNL     1       7.228   7.632  17.093  0.00  0.00    +0.000 A 
ATOM     26  C   UNL     1       6.520   6.419  16.984  0.00  0.00    +0.000 A 
ATOM     27  C   UNL     1       5.592   6.271  15.809  0.00  0.00    +0.000 C 
ENDBRANCH  20  21
ENDBRANCH   1  20
TORSDOF 6
ENDMDL
MODEL 2
REMARK VINA RESULT:      -6.7      3.268      6.438
REMARK  Name = 
REMARK  9 active torsions:
REMARK  status: ('A' for Active; 'I' for Inactive)
REMARK    1  A    between atoms: C_1  and  C_2
REMARK    2  A    between atoms: C_2  and  O_3
REMARK    3  A    between atoms: O_3  and  C_4
REMARK    4  A    between atoms: C_4  and  C_6
REMARK    5  A    between atoms: C_6  and  C_7
REMARK    6  A    between atoms: C_7  and  C_8
REMARK    7  A    between atoms: C_13  and  C_14
REMARK    8  A    between atoms: C_19  and  C_21
REMARK    9  A    between atoms: N_25  and  C_26
REMARK                            x       y       z     vdW  Elec       q    Type
REMARK                         _______ _______ _______ _____ _____    ______ ____
ROOT
ATOM      1  C   UNL     1       4.945   3.954  17.991  0.00  0.00    +0.000 C 
ATOM      2  C   UNL     1       5.561   4.406  19.342  0.00  0.00    +0.000 C 
ATOM      3  C   UNL     1       6.539   5.565  19.192  0.00  0.00    +0.000 C 
ATOM      4  C   UNL     1       7.623   5.274  18.156  0.00  0.00    +0.000 C 
ATOM      5  N   UNL     1       7.089   4.692  16.923  0.00  0.00    +0.000 N 
ATOM      6  C   UNL     1       7.317   5.383  15.713  0.00  0.00    +0.000 C 
ATOM      7  O   UNL     1       7.855   6.490  15.723  0.00  0.00    +0.000 OA
ATOM      8  C   UNL     1       6.144   3.556  17.097  0.00  0.00    +0.000 C 
ENDROOT
BRANCH   6   9
ATOM      9  C   UNL     1       6.928   4.757  14.466  0.00  0.00    +0.000 A 
ATOM     10  C   UNL     1       5.941   3.825  14.201  0.00  0.00    +0.000 A 
ATOM     11  C   UNL     1       5.955   3.643  12.809  0.00  0.00    +0.000 A 
ATOM     12  N   UNL     1       6.940   4.320  12.222  0.00  0.00    +0.000 NA
ATOM     13  N   UNL     1       7.541   4.968  13.246  0.00  0.00    +0.000 N 
ATOM     14  C   UNL     1       8.669   5.823  12.937  0.00  0.00    +0.000 C 
ENDBRANCH   6   9
BRANCH   1  15
ATOM     15  C   UNL     1       4.212   5.064  17.229  0.00  0.00    +0.000 C 
ATOM     16  O   UNL     1       3.778   4.908  16.096  0.00  0.00    +0.000 OA
BRANCH  15  17
ATOM     17  O   UNL     1       4.131   6.242  17.889  0.00  0.00    +0.000 OA
BRANCH  17  19
ATOM     18  C   UNL     1       2.397   6.921  19.603  0.00  0.00    +0.000 C 
ATOM     19  C   UNL     1       2.784   6.698  18.144  0.00  0.00    +0.000 C 
ENDBRANCH  17  19
ENDBRANCH  15  17
ENDBRANCH   1  15
BRANCH   1  20
ATOM     20  C   UNL     1       3.981   2.781  18.307  0.00  0.00    +0.000 C 
BRANCH  20  21
ATOM     21  C   UNL     1       2.966   2.923  19.424  0.00  0.00    +0.000 A 
ATOM     22  C   UNL     1       3.384   2.582  20.726  0.00  0.00    +0.000 A 
ATOM     23  C   UNL     1       2.504   2.609  21.807  0.00  0.00    +0.000 A 
ATOM     24  C   UNL     1       1.181   2.975  21.607  0.00  0.00    +0.000 A 
ATOM     25  C   UNL     1       0.745   3.317  20.328  0.00  0.00    +0.000 A 
ATOM     26  C   UNL     1       1.618   3.287  19.222  0.00  0.00    +0.000 A 
ATOM     27  C   UNL     1       1.049   3.691  17.889  0.00  0.00    +0.000 C 
ENDBRANCH  20  21
ENDBRANCH   1  20
TORSDOF 6
ENDMDL
MODEL 3
REMARK VINA RESULT:      -6.6      2.402      5.502
REMARK  Name = 
REMARK  9 active torsions:
REMARK  status: ('A' for Active; 'I' for Inactive)
REMARK    1  A    between atoms: C_1  and  C_2
REMARK    2  A    between atoms: C_2  and  O_3
REMARK    3  A    between atoms: O_3  and  C_4
REMARK    4  A    between atoms: C_4  and  C_6
REMARK    5  A    between atoms: C_6  and  C_7
REMARK    6  A    between atoms: C_7  and  C_8
REMARK    7  A    between atoms: C_13  and  C_14
REMARK    8  A    between atoms: C_19  and  C_21
REMARK    9  A    between atoms: N_25  and  C_26
REMARK                            x       y       z     vdW  Elec       q    Type
REMARK                         _______ _______ _______ _____ _____    ______ ____
ROOT
ATOM      1  C   UNL     1       3.611   5.386  18.586  0.00  0.00    +0.000 C 
ATOM      2  C   UNL     1       2.780   4.468  17.650  0.00  0.00    +0.000 C 
ATOM      3  C   UNL     1       3.641   3.696  16.657  0.00  0.00    +0.000 C 
ATOM      4  C   UNL     1       4.567   4.614  15.860  0.00  0.00    +0.000 C 
ATOM      5  N   UNL     1       5.246   5.603  16.699  0.00  0.00    +0.000 N 
ATOM      6  C   UNL     1       6.658   5.604  16.708  0.00  0.00    +0.000 C 
ATOM      7  O   UNL     1       7.282   4.728  16.109  0.00  0.00    +0.000 OA
ATOM      8  C   UNL     1       4.382   6.350  17.652  0.00  0.00    +0.000 C 
ENDROOT
BRANCH   6   9
ATOM      9  C   UNL     1       7.352   6.663  17.412  0.00  0.00    +0.000 A 
ATOM     10  C   UNL     1       7.482   8.006  17.106  0.00  0.00    +0.000 A 
ATOM     11  C   UNL     1       8.184   8.573  18.181  0.00  0.00    +0.000 A 
ATOM     12  N   UNL     1       8.574   7.658  19.068  0.00  0.00    +0.000 NA
ATOM     13  N   UNL     1       8.087   6.499  18.569  0.00  0.00    +0.000 N 
ATOM     14  C   UNL     1       8.332   5.285  19.321  0.00  0.00    +0.000 C 
ENDBRANCH   6   9
BRANCH   1  15
ATOM     15  C   UNL     1       4.685   4.652  19.399  0.00  0.00    +0.000 C 
ATOM     16  O   UNL     1       5.533   5.242  20.053  0.00  0.00    +0.000 OA
BRANCH  15  17
ATOM     17  O   UNL     1       4.650   3.304  19.291  0.00  0.00    +0.000 OA
BRANCH  17  19
ATOM     18  C   UNL     1       2.777   2.681  20.877  0.00  0.00    +0.000 C 
ATOM     19  C   UNL     1       4.255   2.614  20.497  0.00  0.00    +0.000 C 
ENDBRANCH  17  19
ENDBRANCH  15  17
ENDBRANCH   1  15
BRANCH   1  20
ATOM     20  C   UNL     1       2.604   6.095  19.528  0.00  0.00    +0.000 C 
BRANCH  20  21
ATOM     21  C   UNL     1       2.107   7.485  19.185  0.00  0.00    +0.000 A 
ATOM     22  C   UNL     1       2.354   7.958  17.880  0.00  0.00    +0.000 A 
ATOM     23  C   UNL     1       2.001   9.249  17.492  0.00  0.00    +0.000 A 
ATOM     24  C   UNL     1       1.394  10.100  18.404  0.00  0.00    +0.000 A 
ATOM     25  C   UNL     1       1.140   9.654  19.700  0.00  0.00    +0.000 A 
ATOM     26  C   UNL     1       1.497   8.355  20.113  0.00  0.00    +0.000 A 
ATOM     27  C   UNL     1       1.161   7.970  21.528  0.00  0.00    +0.000 C 
ENDBRANCH  20  21
ENDBRANCH   1  20
TORSDOF 6
ENDMDL
MODEL 4
REMARK VINA RESULT:      -6.6      2.864      5.814
REMARK  Name = 
REMARK  9 active torsions:
REMARK  status: ('A' for Active; 'I' for Inactive)
REMARK    1  A    between atoms: C_1  and  C_2
REMARK    2  A    between atoms: C_2  and  O_3
REMARK    3  A    between atoms: O_3  and  C_4
REMARK    4  A    between atoms: C_4  and  C_6
REMARK    5  A    between atoms: C_6  and  C_7
REMARK    6  A    between atoms: C_7  and  C_8
REMARK    7  A    between atoms: C_13  and  C_14
REMARK    8  A    between atoms: C_19  and  C_21
REMARK    9  A    between atoms: N_25  and  C_26
REMARK                            x       y       z     vdW  Elec       q    Type
REMARK                         _______ _______ _______ _____ _____    ______ ____
ROOT
ATOM      1  C   UNL     1       6.236   5.355  16.584  0.00  0.00    +0.000 C 
ATOM      2  C   UNL     1       5.722   6.716  16.044  0.00  0.00    +0.000 C 
ATOM      3  C   UNL     1       4.694   7.369  16.961  0.00  0.00    +0.000 C 
ATOM      4  C   UNL     1       3.537   6.428  17.293  0.00  0.00    +0.000 C 
ATOM      5  N   UNL     1       3.985   5.081  17.652  0.00  0.00    +0.000 N 
ATOM      6  C   UNL     1       3.632   4.584  18.925  0.00  0.00    +0.000 C 
ATOM      7  O   UNL     1       3.057   5.310  19.737  0.00  0.00    +0.000 OA
ATOM      8  C   UNL     1       4.980   4.463  16.735  0.00  0.00    +0.000 C 
ENDROOT
BRANCH   6   9
ATOM      9  C   UNL     1       3.935   3.204  19.246  0.00  0.00    +0.000 A 
ATOM     10  C   UNL     1       4.847   2.673  20.139  0.00  0.00    +0.000 A 
ATOM     11  C   UNL     1       4.649   1.283  20.101  0.00  0.00    +0.000 A 
ATOM     12  N   UNL     1       3.754   0.926  19.181  0.00  0.00    +0.000 NA
ATOM     13  N   UNL     1       3.353   2.103  18.650  0.00  0.00    +0.000 N 
ATOM     14  C   UNL     1       2.349   2.065  17.606  0.00  0.00    +0.000 C 
ENDBRANCH   6   9
BRANCH   1  15
ATOM     15  C   UNL     1       6.863   5.426  17.981  0.00  0.00    +0.000 C 
ATOM     16  O   UNL     1       7.260   4.433  18.576  0.00  0.00    +0.000 OA
BRANCH  15  17
ATOM     17  O   UNL     1       6.893   6.665  18.524  0.00  0.00    +0.000 OA
BRANCH  17  19
ATOM     18  C   UNL     1       8.198   8.756  17.947  0.00  0.00    +0.000 C 
ATOM     19  C   UNL     1       8.179   7.319  18.462  0.00  0.00    +0.000 C 
ENDBRANCH  17  19
ENDBRANCH  15  17
ENDBRANCH   1  15
BRANCH   1  20
ATOM     20  C   UNL     1       7.264   4.822  15.552  0.00  0.00    +0.000 C 
BRANCH  20  21
ATOM     21  C   UNL     1       6.813   4.500  14.142  0.00  0.00    +0.000 A 
ATOM     22  C   UNL     1       5.690   3.660  13.997  0.00  0.00    +0.000 A 
ATOM     23  C   UNL     1       5.243   3.246  12.743  0.00  0.00    +0.000 A 
ATOM     24  C   UNL     1       5.915   3.661  11.603  0.00  0.00    +0.000 A 
ATOM     25  C   UNL     1       7.028   4.492  11.722  0.00  0.00    +0.000 A 
ATOM     26  C   UNL     1       7.499   4.914  12.981  0.00  0.00    +0.000 A 
ATOM     27  C   UNL     1       8.698   5.823  12.994  0.00  0.00    +0.000 C 
ENDBRANCH  20  21
ENDBRANCH   1  20
TORSDOF 6
ENDMDL
MODEL 5
REMARK VINA RESULT:      -6.5      0.372      1.382
REMARK  Name = 
REMARK  9 active torsions:
REMARK  status: ('A' for Active; 'I' for Inactive)
REMARK    1  A    between atoms: C_1  and  C_2
REMARK    2  A    between atoms: C_2  and  O_3
REMARK    3  A    between atoms: O_3  and  C_4
REMARK    4  A    between atoms: C_4  and  C_6
REMARK    5  A    between atoms: C_6  and  C_7
REMARK    6  A    between atoms: C_7  and  C_8
REMARK    7  A    between atoms: C_13  and  C_14
REMARK    8  A    between atoms: C_19  and  C_21
REMARK    9  A    between atoms: N_25  and  C_26
REMARK                            x       y       z     vdW  Elec       q    Type
REMARK                         _______ _______ _______ _____ _____    ______ ____
ROOT
ATOM      1  C   UNL     1       4.748   4.109  18.821  0.00  0.00    +0.000 C 
ATOM      2  C   UNL     1       4.838   2.870  19.751  0.00  0.00    +0.000 C 
ATOM      3  C   UNL     1       3.531   2.576  20.479  0.00  0.00    +0.000 C 
ATOM      4  C   UNL     1       3.000   3.798  21.227  0.00  0.00    +0.000 C 
ATOM      5  N   UNL     1       3.054   5.022  20.426  0.00  0.00    +0.000 N 
ATOM      6  C   UNL     1       1.844   5.708  20.186  0.00  0.00    +0.000 C 
ATOM      7  O   UNL     1       0.773   5.224  20.553  0.00  0.00    +0.000 OA
ATOM      8  C   UNL     1       4.343   5.290  19.735  0.00  0.00    +0.000 C 
ENDROOT
BRANCH   6   9
ATOM      9  C   UNL     1       1.889   6.996  19.525  0.00  0.00    +0.000 A 
ATOM     10  C   UNL     1       2.266   7.328  18.236  0.00  0.00    +0.000 A 
ATOM     11  C   UNL     1       2.027   8.706  18.114  0.00  0.00    +0.000 A 
ATOM     12  N   UNL     1       1.626   9.252  19.262  0.00  0.00    +0.000 NA
ATOM     13  N   UNL     1       1.577   8.205  20.116  0.00  0.00    +0.000 N 
ATOM     14  C   UNL     1       1.153   8.463  21.477  0.00  0.00    +0.000 C 
ENDBRANCH   6   9
BRANCH   1  15
ATOM     15  C   UNL     1       3.651   4.019  17.753  0.00  0.00    +0.000 C 
ATOM     16  O   UNL     1       3.440   4.916  16.949  0.00  0.00    +0.000 OA
BRANCH  15  17
ATOM     17  O   UNL     1       2.903   2.892  17.807  0.00  0.00    +0.000 OA
BRANCH  17  19
ATOM     18  C   UNL     1       0.639   2.264  18.749  0.00  0.00    +0.000 C 
ATOM     19  C   UNL     1       1.476   3.116  17.798  0.00  0.00    +0.000 C 
ENDBRANCH  17  19
ENDBRANCH  15  17
ENDBRANCH   1  15
BRANCH   1  20
ATOM     20  C   UNL     1       6.140   4.275  18.159  0.00  0.00    +0.000 C 
BRANCH  20  21
ATOM     21  C   UNL     1       6.784   5.646  18.098  0.00  0.00    +0.000 A 
ATOM     22  C   UNL     1       6.401   6.494  17.038  0.00  0.00    +0.000 A 
ATOM     23  C   UNL     1       6.989   7.744  16.853  0.00  0.00    +0.000 A 
ATOM     24  C   UNL     1       7.979   8.173  17.725  0.00  0.00    +0.000 A 
ATOM     25  C   UNL     1       8.374   7.351  18.779  0.00  0.00    +0.000 A 
ATOM     26  C   UNL     1       7.796   6.082  18.977  0.00  0.00    +0.000 A 
ATOM     27  C   UNL     1       8.283   5.284  20.157  0.00  0.00    +0.000 C 
ENDBRANCH  20  21
ENDBRANCH   1  20
TORSDOF 6
ENDMDL
MODEL 6
REMARK VINA RESULT:      -6.5      4.670      9.023
REMARK  Name = 
REMARK  9 active torsions:
REMARK  status: ('A' for Active; 'I' for Inactive)
REMARK    1  A    between atoms: C_1  and  C_2
REMARK    2  A    between atoms: C_2  and  O_3
REMARK    3  A    between atoms: O_3  and  C_4
REMARK    4  A    between atoms: C_4  and  C_6
REMARK    5  A    between atoms: C_6  and  C_7
REMARK    6  A    between atoms: C_7  and  C_8
REMARK    7  A    between atoms: C_13  and  C_14
REMARK    8  A    between atoms: C_19  and  C_21
REMARK    9  A    between atoms: N_25  and  C_26
REMARK                            x       y       z     vdW  Elec       q    Type
REMARK                         _______ _______ _______ _____ _____    ______ ____
ROOT
ATOM      1  C   UNL     1      -1.016  11.836  20.542  0.00  0.00    +0.000 C 
ATOM      2  C   UNL     1      -1.715  11.968  21.921  0.00  0.00    +0.000 C 
ATOM      3  C   UNL     1      -0.978  11.233  23.035  0.00  0.00    +0.000 C 
ATOM      4  C   UNL     1      -0.711   9.771  22.683  0.00  0.00    +0.000 C 
ATOM      5  N   UNL     1      -0.200   9.598  21.322  0.00  0.00    +0.000 N 
ATOM      6  C   UNL     1       1.057   8.977  21.163  0.00  0.00    +0.000 C 
ATOM      7  O   UNL     1       1.738   8.692  22.148  0.00  0.00    +0.000 OA
ATOM      8  C   UNL     1      -0.944  10.317  20.253  0.00  0.00    +0.000 C 
ENDROOT
BRANCH   6   9
ATOM      9  C   UNL     1       1.517   8.661  19.826  0.00  0.00    +0.000 A 
ATOM     10  C   UNL     1       1.544   9.438  18.682  0.00  0.00    +0.000 A 
ATOM     11  C   UNL     1       2.173   8.651  17.704  0.00  0.00    +0.000 A 
ATOM     12  N   UNL     1       2.441   7.422  18.142  0.00  0.00    +0.000 NA
ATOM     13  N   UNL     1       2.008   7.435  19.422  0.00  0.00    +0.000 N 
ATOM     14  C   UNL     1       2.170   6.225  20.203  0.00  0.00    +0.000 C 
ENDBRANCH   6   9
BRANCH   1  15
ATOM     15  C   UNL     1       0.435  12.329  20.520  0.00  0.00    +0.000 C 
ATOM     16  O   UNL     1       1.046  12.626  21.538  0.00  0.00    +0.000 OA
BRANCH  15  17
ATOM     17  O   UNL     1       0.967  12.462  19.283  0.00  0.00    +0.000 OA
BRANCH  17  19
ATOM     18  C   UNL     1       2.205  14.598  18.726  0.00  0.00    +0.000 C 
ATOM     19  C   UNL     1       2.230  13.161  19.242  0.00  0.00    +0.000 C 
ENDBRANCH  17  19
ENDBRANCH  15  17
ENDBRANCH   1  15
BRANCH   1  20
ATOM     20  C   UNL     1      -1.877  12.628  19.525  0.00  0.00    +0.000 C 
BRANCH  20  21
ATOM     21  C   UNL     1      -2.653  11.883  18.457  0.00  0.00    +0.000 A 
ATOM     22  C   UNL     1      -1.930  11.407  17.345  0.00  0.00    +0.000 A 
ATOM     23  C   UNL     1      -2.565  10.775  16.277  0.00  0.00    +0.000 A 
ATOM     24  C   UNL     1      -3.942  10.609  16.296  0.00  0.00    +0.000 A 
ATOM     25  C   UNL     1      -4.677  11.072  17.385  0.00  0.00    +0.000 A 
ATOM     26  C   UNL     1      -4.054  11.720  18.470  0.00  0.00    +0.000 A 
ATOM     27  C   UNL     1      -4.940  12.165  19.603  0.00  0.00    +0.000 C 
ENDBRANCH  20  21
ENDBRANCH   1  20
TORSDOF 6
ENDMDL
MODEL 7
REMARK VINA RESULT:      -6.5      2.636      5.137
REMARK  Name = 
REMARK  9 active torsions:
REMARK  status: ('A' for Active; 'I' for Inactive)
REMARK    1  A    between atoms: C_1  and  C_2
REMARK    2  A    between atoms: C_2  and  O_3
REMARK    3  A    between atoms: O_3  and  C_4
REMARK    4  A    between atoms: C_4  and  C_6
REMARK    5  A    between atoms: C_6  and  C_7
REMARK    6  A    between atoms: C_7  and  C_8
REMARK    7  A    between atoms: C_13  and  C_14
REMARK    8  A    between atoms: C_19  and  C_21
REMARK    9  A    between atoms: N_25  and  C_26
REMARK                            x       y       z     vdW  Elec       q    Type
REMARK                         _______ _______ _______ _____ _____    ______ ____
ROOT
ATOM      1  C   UNL     1       5.361   4.842  16.443  0.00  0.00    +0.000 C 
ATOM      2  C   UNL     1       5.104   6.145  15.640  0.00  0.00    +0.000 C 
ATOM      3  C   UNL     1       4.507   7.260  16.490  0.00  0.00    +0.000 C 
ATOM      4  C   UNL     1       3.252   6.808  17.236  0.00  0.00    +0.000 C 
ATOM      5  N   UNL     1       3.411   5.499  17.873  0.00  0.00    +0.000 N 
ATOM      6  C   UNL     1       3.234   5.419  19.271  0.00  0.00    +0.000 C 
ATOM      7  O   UNL     1       3.059   6.442  19.934  0.00  0.00    +0.000 OA
ATOM      8  C   UNL     1       3.986   4.426  17.019  0.00  0.00    +0.000 C 
ENDROOT
BRANCH   6   9
ATOM      9  C   UNL     1       3.240   4.116  19.904  0.00  0.00    +0.000 A 
ATOM     10  C   UNL     1       4.289   3.258  20.177  0.00  0.00    +0.000 A 
ATOM     11  C   UNL     1       3.725   2.181  20.879  0.00  0.00    +0.000 A 
ATOM     12  N   UNL     1       2.399   2.275  20.966  0.00  0.00    +0.000 NA
ATOM     13  N   UNL     1       2.118   3.440  20.342  0.00  0.00    +0.000 N 
ATOM     14  C   UNL     1       0.730   3.852  20.273  0.00  0.00    +0.000 C 
ENDBRANCH   6   9
BRANCH   1  15
ATOM     15  C   UNL     1       6.280   5.020  17.657  0.00  0.00    +0.000 C 
ATOM     16  O   UNL     1       6.794   4.075  18.238  0.00  0.00    +0.000 OA
BRANCH  15  17
ATOM     17  O   UNL     1       6.432   6.302  18.066  0.00  0.00    +0.000 OA
BRANCH  17  19
ATOM     18  C   UNL     1       7.988   8.275  17.758  0.00  0.00    +0.000 C 
ATOM     19  C   UNL     1       7.793   6.786  18.033  0.00  0.00    +0.000 C 
ENDBRANCH  17  19
ENDBRANCH  15  17
ENDBRANCH   1  15
BRANCH   1  20
ATOM     20  C   UNL     1       5.963   3.814  15.450  0.00  0.00    +0.000 C 
BRANCH  20  21
ATOM     21  C   UNL     1       6.679   4.302  14.206  0.00  0.00    +0.000 A 
ATOM     22  C   UNL     1       7.731   5.223  14.384  0.00  0.00    +0.000 A 
ATOM     23  C   UNL     1       8.401   5.785  13.298  0.00  0.00    +0.000 A 
ATOM     24  C   UNL     1       8.029   5.440  12.007  0.00  0.00    +0.000 A 
ATOM     25  C   UNL     1       6.992   4.531  11.808  0.00  0.00    +0.000 A 
ATOM     26  C   UNL     1       6.297   3.959  12.892  0.00  0.00    +0.000 A 
ATOM     27  C   UNL     1       5.205   2.977  12.565  0.00  0.00    +0.000 C 
ENDBRANCH  20  21
ENDBRANCH   1  20
TORSDOF 6
ENDMDL
MODEL 8
REMARK VINA RESULT:      -6.5      2.409      6.037
REMARK  Name = 
REMARK  9 active torsions:
REMARK  status: ('A' for Active; 'I' for Inactive)
REMARK    1  A    between atoms: C_1  and  C_2
REMARK    2  A    between atoms: C_2  and  O_3
REMARK    3  A    between atoms: O_3  and  C_4
REMARK    4  A    between atoms: C_4  and  C_6
REMARK    5  A    between atoms: C_6  and  C_7
REMARK    6  A    between atoms: C_7  and  C_8
REMARK    7  A    between atoms: C_13  and  C_14
REMARK    8  A    between atoms: C_19  and  C_21
REMARK    9  A    between atoms: N_25  and  C_26
REMARK                            x       y       z     vdW  Elec       q    Type
REMARK                         _______ _______ _______ _____ _____    ______ ____
ROOT
ATOM      1  C   UNL     1       2.779   6.410  18.579  0.00  0.00    +0.000 C 
ATOM      2  C   UNL     1       1.299   5.998  18.358  0.00  0.00    +0.000 C 
ATOM      3  C   UNL     1       1.122   4.496  18.169  0.00  0.00    +0.000 C 
ATOM      4  C   UNL     1       2.024   3.943  17.067  0.00  0.00    +0.000 C 
ATOM      5  N   UNL     1       3.398   4.444  17.153  0.00  0.00    +0.000 N 
ATOM      6  C   UNL     1       4.437   3.500  17.298  0.00  0.00    +0.000 C 
ATOM      7  O   UNL     1       4.175   2.307  17.454  0.00  0.00    +0.000 OA
ATOM      8  C   UNL     1       3.543   5.914  17.327  0.00  0.00    +0.000 C 
ENDROOT
BRANCH   6   9
ATOM      9  C   UNL     1       5.810   3.957  17.237  0.00  0.00    +0.000 A 
ATOM     10  C   UNL     1       6.670   4.347  18.248  0.00  0.00    +0.000 A 
ATOM     11  C   UNL     1       7.900   4.604  17.622  0.00  0.00    +0.000 A 
ATOM     12  N   UNL     1       7.823   4.494  16.296  0.00  0.00    +0.000 NA
ATOM     13  N   UNL     1       6.540   4.130  16.077  0.00  0.00    +0.000 N 
ATOM     14  C   UNL     1       6.124   3.911  14.707  0.00  0.00    +0.000 C 
ENDBRANCH   6   9
BRANCH   1  15
ATOM     15  C   UNL     1       3.454   5.725  19.773  0.00  0.00    +0.000 C 
ATOM     16  O   UNL     1       4.669   5.682  19.907  0.00  0.00    +0.000 OA
BRANCH  15  17
ATOM     17  O   UNL     1       2.600   5.127  20.636  0.00  0.00    +0.000 OA
BRANCH  17  19
ATOM     18  C   UNL     1       1.784   2.922  21.572  0.00  0.00    +0.000 C 
ATOM     19  C   UNL     1       2.886   3.736  20.899  0.00  0.00    +0.000 C 
ENDBRANCH  17  19
ENDBRANCH  15  17
ENDBRANCH   1  15
BRANCH   1  20
ATOM     20  C   UNL     1       2.794   7.950  18.754  0.00  0.00    +0.000 C 
BRANCH  20  21
ATOM     21  C   UNL     1       1.492   8.694  18.975  0.00  0.00    +0.000 A 
ATOM     22  C   UNL     1       0.875   9.269  17.846  0.00  0.00    +0.000 A 
ATOM     23  C   UNL     1      -0.285  10.034  17.957  0.00  0.00    +0.000 A 
ATOM     24  C   UNL     1      -0.852  10.245  19.205  0.00  0.00    +0.000 A 
ATOM     25  C   UNL     1      -0.259   9.687  20.336  0.00  0.00    +0.000 A 
ATOM     26  C   UNL     1       0.918   8.917  20.244  0.00  0.00    +0.000 A 
ATOM     27  C   UNL     1       1.465   8.347  21.524  0.00  0.00    +0.000 C 
ENDBRANCH  20  21
ENDBRANCH   1  20
TORSDOF 6
ENDMDL
MODEL 9
REMARK VINA RESULT:      -6.5      7.193     10.031
REMARK  Name = 
REMARK  9 active torsions:
REMARK  status: ('A' for Active; 'I' for Inactive)
REMARK    1  A    between atoms: C_1  and  C_2
REMARK    2  A    between atoms: C_2  and  O_3
REMARK    3  A    between atoms: O_3  and  C_4
REMARK    4  A    between atoms: C_4  and  C_6
REMARK    5  A    between atoms: C_6  and  C_7
REMARK    6  A    between atoms: C_7  and  C_8
REMARK    7  A    between atoms: C_13  and  C_14
REMARK    8  A    between atoms: C_19  and  C_21
REMARK    9  A    between atoms: N_25  and  C_26
REMARK                            x       y       z     vdW  Elec       q    Type
REMARK                         _______ _______ _______ _____ _____    ______ ____
ROOT
ATOM      1  C   UNL     1      -0.142  11.658  19.392  0.00  0.00    +0.000 C 
ATOM      2  C   UNL     1       0.971  10.955  18.571  0.00  0.00    +0.000 C 
ATOM      3  C   UNL     1       2.262  11.762  18.506  0.00  0.00    +0.000 C 
ATOM      4  C   UNL     1       2.026  13.189  18.016  0.00  0.00    +0.000 C 
ATOM      5  N   UNL     1       0.876  13.828  18.659  0.00  0.00    +0.000 N 
ATOM      6  C   UNL     1       1.099  15.022  19.377  0.00  0.00    +0.000 C 
ATOM      7  O   UNL     1       2.245  15.443  19.540  0.00  0.00    +0.000 OA
ATOM      8  C   UNL     1      -0.374  13.023  18.700  0.00  0.00    +0.000 C 
ENDROOT
BRANCH   6   9
ATOM      9  C   UNL     1      -0.040  15.750  19.896  0.00  0.00    +0.000 A 
ATOM     10  C   UNL     1      -1.081  16.375  19.233  0.00  0.00    +0.000 A 
ATOM     11  C   UNL     1      -1.944  16.842  20.237  0.00  0.00    +0.000 A 
ATOM     12  N   UNL     1      -1.456  16.633  21.459  0.00  0.00    +0.000 NA
ATOM     13  N   UNL     1      -0.285  15.997  21.233  0.00  0.00    +0.000 N 
ATOM     14  C   UNL     1       0.506  15.608  22.383  0.00  0.00    +0.000 C 
ENDBRANCH   6   9
BRANCH   1  15
ATOM     15  C   UNL     1       0.252  11.990  20.836  0.00  0.00    +0.000 C 
ATOM     16  O   UNL     1       1.319  11.643  21.324  0.00  0.00    +0.000 OA
BRANCH  15  17
ATOM     17  O   UNL     1      -0.695  12.649  21.542  0.00  0.00    +0.000 OA
BRANCH  17  19
ATOM     18  C   UNL     1      -2.529  11.999  23.161  0.00  0.00    +0.000 C 
ATOM     19  C   UNL     1      -1.046  12.034  22.801  0.00  0.00    +0.000 C 
ENDBRANCH  17  19
ENDBRANCH  15  17
ENDBRANCH   1  15
BRANCH   1  20
ATOM     20  C   UNL     1      -1.378  10.723  19.366  0.00  0.00    +0.000 C 
BRANCH  20  21
ATOM     21  C   UNL     1      -2.322  10.758  18.181  0.00  0.00    +0.000 A 
ATOM     22  C   UNL     1      -1.919  10.079  17.013  0.00  0.00    +0.000 A 
ATOM     23  C   UNL     1      -2.683  10.114  15.847  0.00  0.00    +0.000 A 
ATOM     24  C   UNL     1      -3.868  10.835  15.823  0.00  0.00    +0.000 A 
ATOM     25  C   UNL     1      -4.285  11.514  16.966  0.00  0.00    +0.000 A 
ATOM     26  C   UNL     1      -3.523  11.497  18.150  0.00  0.00    +0.000 A 
ATOM     27  C   UNL     1      -4.074  12.250  19.331  0.00  0.00    +0.000 C 
ENDBRANCH  20  21
ENDBRANCH   1  20
TORSDOF 6
ENDMDL
