MODEL 1
REMARK VINA RESULT:      -7.7      0.000      0.000
REMARK  Name = 
REMARK  5 active torsions:
REMARK  status: ('A' for Active; 'I' for Inactive)
REMARK    1  A    between atoms: C_1  and  C_2
REMARK    2  A    between atoms: C_4  and  C_5
REMARK    3  A    between atoms: C_6  and  C_7
REMARK    4  A    between atoms: N_9  and  C_10
REMARK    5  A    between atoms: C_16  and  C_17
REMARK                            x       y       z     vdW  Elec       q    Type
REMARK                         _______ _______ _______ _____ _____    ______ ____
ROOT
ATOM      1  C   UNL     1      -1.224  11.490  20.409  0.00  0.00    +0.000 C 
ATOM      2  C   UNL     1      -1.957  11.947  21.699  0.00  0.00    +0.000 C 
ATOM      3  C   UNL     1      -1.313  11.635  23.058  0.00  0.00    +0.000 C 
ATOM      4  C   UNL     1      -0.411  10.409  23.174  0.00  0.00    +0.000 C 
ATOM      5  C   UNL     1       0.008   9.851  21.867  0.00  0.00    +0.000 A 
ATOM      6  S   UNL     1       1.114   8.573  21.786  0.00  0.00    +0.000 S 
ATOM      7  C   UNL     1       1.127   8.681  20.058  0.00  0.00    +0.000 A 
ATOM      8  N   UNL     1       0.331   9.626  19.569  0.00  0.00    +0.000 NA
ATOM      9  C   UNL     1      -0.356  10.275  20.607  0.00  0.00    +0.000 A 
ENDROOT
BRANCH   7  10
ATOM     10  C   UNL     1       2.070   7.816  19.304  0.00  0.00    +0.000 A 
ATOM     11  C   UNL     1       2.502   6.570  19.808  0.00  0.00    +0.000 A 
ATOM     12  C   UNL     1       3.467   5.800  19.141  0.00  0.00    +0.000 A 
ATOM     13  C   UNL     1       3.998   6.273  17.953  0.00  0.00    +0.000 A 
ATOM     14  F   UNL     1       4.930   5.551  17.320  0.00  0.00    +0.000 F 
ATOM     15  C   UNL     1       3.576   7.481  17.411  0.00  0.00    +0.000 A 
ATOM     16  C   UNL     1       2.612   8.250  18.085  0.00  0.00    +0.000 A 
ENDBRANCH   7  10
BRANCH   1  19
ATOM     17  C   UNL     1      -1.875  11.911  18.007  0.00  0.00    +0.000 C 
ATOM     18  O   UNL     1      -0.960  12.696  17.786  0.00  0.00    +0.000 OA
ATOM     19  N   UNL     1      -2.125  11.391  19.260  0.00  0.00    +0.000 N 
ATOM     20  H   UNL     1      -2.984  10.868  19.380  0.00  0.00    +0.000 HD
BRANCH  17  26
ATOM     21  C   UNL     1      -3.062   9.850  13.749  0.00  0.00    +0.000 C 
ATOM     22  C   UNL     1      -3.299  10.510  15.051  0.00  0.00    +0.000 A 
ATOM     23  N   UNL     1      -4.448  10.868  15.578  0.00  0.00    +0.000 NA
ATOM     24  C   UNL     1      -4.102  11.435  16.783  0.00  0.00    +0.000 A 
ATOM     25  C   UNL     1      -5.139  11.988  17.681  0.00  0.00    +0.000 C 
ATOM     26  C   UNL     1      -2.729  11.397  16.948  0.00  0.00    +0.000 A 
ATOM     27  O   UNL     1      -2.200  10.799  15.822  0.00  0.00    +0.000 OA
ENDBRANCH  17  26
ENDBRANCH   1  19
TORSDOF 3
ENDMDL
MODEL 2
REMARK VINA RESULT:      -7.7      5.231      8.861
REMARK  Name = 
REMARK  5 active torsions:
REMARK  status: ('A' for Active; 'I' for Inactive)
REMARK    1  A    between atoms: C_1  and  C_2
REMARK    2  A    between atoms: C_4  and  C_5
REMARK    3  A    between atoms: C_6  and  C_7
REMARK    4  A    between atoms: N_9  and  C_10
REMARK    5  A    between atoms: C_16  and  C_17
REMARK                            x       y       z     vdW  Elec       q    Type
REMARK                         _______ _______ _______ _____ _____    ______ ____
ROOT
ATOM      1  C   UNL     1       2.561   3.860  17.525  0.00  0.00    +0.000 C 
ATOM      2  C   UNL     1       2.745   2.356  17.865  0.00  0.00    +0.000 C 
ATOM      3  C   UNL     1       2.055   1.797  19.118  0.00  0.00    +0.000 C 
ATOM      4  C   UNL     1       1.791   2.741  20.288  0.00  0.00    +0.000 C 
ATOM      5  C   UNL     1       1.929   4.174  19.940  0.00  0.00    +0.000 A 
ATOM      6  S   UNL     1       1.548   5.379  21.066  0.00  0.00    +0.000 S 
ATOM      7  C   UNL     1       1.826   6.599  19.870  0.00  0.00    +0.000 A 
ATOM      8  N   UNL     1       2.196   6.122  18.686  0.00  0.00    +0.000 NA
ATOM      9  C   UNL     1       2.304   4.723  18.733  0.00  0.00    +0.000 A 
ENDROOT
BRANCH   7  10
ATOM     10  C   UNL     1       1.534   8.012  20.222  0.00  0.00    +0.000 A 
ATOM     11  C   UNL     1       1.267   8.408  21.551  0.00  0.00    +0.000 A 
ATOM     12  C   UNL     1       0.896   9.724  21.867  0.00  0.00    +0.000 A 
ATOM     13  C   UNL     1       0.803  10.657  20.849  0.00  0.00    +0.000 A 
ATOM     14  F   UNL     1       0.434  11.910  21.142  0.00  0.00    +0.000 F 
ATOM     15  C   UNL     1       1.085  10.312  19.533  0.00  0.00    +0.000 A 
ATOM     16  C   UNL     1       1.454   8.992  19.220  0.00  0.00    +0.000 A 
ENDBRANCH   7  10
BRANCH   1  19
ATOM     17  C   UNL     1       4.967   4.327  16.926  0.00  0.00    +0.000 C 
ATOM     18  O   UNL     1       5.409   4.049  18.035  0.00  0.00    +0.000 OA
ATOM     19  N   UNL     1       3.616   4.368  16.649  0.00  0.00    +0.000 N 
ATOM     20  H   UNL     1       3.339   4.748  15.751  0.00  0.00    +0.000 HD
BRANCH  17  26
ATOM     21  C   UNL     1       6.808   3.740  12.448  0.00  0.00    +0.000 C 
ATOM     22  C   UNL     1       6.700   4.311  13.807  0.00  0.00    +0.000 A 
ATOM     23  N   UNL     1       7.475   5.212  14.369  0.00  0.00    +0.000 NA
ATOM     24  C   UNL     1       6.938   5.379  15.624  0.00  0.00    +0.000 A 
ATOM     25  C   UNL     1       7.554   6.317  16.588  0.00  0.00    +0.000 C 
ATOM     26  C   UNL     1       5.834   4.560  15.781  0.00  0.00    +0.000 A 
ATOM     27  O   UNL     1       5.676   3.860  14.603  0.00  0.00    +0.000 OA
ENDBRANCH  17  26
ENDBRANCH   1  19
TORSDOF 3
ENDMDL
MODEL 3
REMARK VINA RESULT:      -7.2      3.868      6.622
REMARK  Name = 
REMARK  5 active torsions:
REMARK  status: ('A' for Active; 'I' for Inactive)
REMARK    1  A    between atoms: C_1  and  C_2
REMARK    2  A    between atoms: C_4  and  C_5
REMARK    3  A    between atoms: C_6  and  C_7
REMARK    4  A    between atoms: N_9  and  C_10
REMARK    5  A    between atoms: C_16  and  C_17
REMARK                            x       y       z     vdW  Elec       q    Type
REMARK                         _______ _______ _______ _____ _____    ______ ____
ROOT
ATOM      1  C   UNL     1       2.139   5.290  20.089  0.00  0.00    +0.000 C 
ATOM      2  C   UNL     1       1.118   4.424  20.876  0.00  0.00    +0.000 C 
ATOM      3  C   UNL     1       1.333   2.904  20.928  0.00  0.00    +0.000 C 
ATOM      4  C   UNL     1       2.061   2.229  19.769  0.00  0.00    +0.000 C 
ATOM      5  C   UNL     1       2.778   3.176  18.883  0.00  0.00    +0.000 A 
ATOM      6  S   UNL     1       3.752   2.611  17.620  0.00  0.00    +0.000 S 
ATOM      7  C   UNL     1       4.252   4.231  17.269  0.00  0.00    +0.000 A 
ATOM      8  N   UNL     1       3.705   5.150  18.058  0.00  0.00    +0.000 NA
ATOM      9  C   UNL     1       2.814   4.551  18.963  0.00  0.00    +0.000 A 
ENDROOT
BRANCH   7  10
ATOM     10  C   UNL     1       5.292   4.439  16.229  0.00  0.00    +0.000 A 
ATOM     11  C   UNL     1       6.416   5.264  16.454  0.00  0.00    +0.000 A 
ATOM     12  C   UNL     1       7.345   5.537  15.439  0.00  0.00    +0.000 A 
ATOM     13  C   UNL     1       7.159   4.970  14.189  0.00  0.00    +0.000 A 
ATOM     14  F   UNL     1       8.033   5.239  13.212  0.00  0.00    +0.000 F 
ATOM     15  C   UNL     1       6.081   4.131  13.938  0.00  0.00    +0.000 A 
ATOM     16  C   UNL     1       5.150   3.863  14.957  0.00  0.00    +0.000 A 
ENDBRANCH   7  10
BRANCH   1  19
ATOM     17  C   UNL     1       1.486   7.689  20.523  0.00  0.00    +0.000 C 
ATOM     18  O   UNL     1       1.657   7.627  21.735  0.00  0.00    +0.000 OA
ATOM     19  N   UNL     1       1.587   6.587  19.698  0.00  0.00    +0.000 N 
ATOM     20  H   UNL     1       1.289   6.700  18.737  0.00  0.00    +0.000 HD
BRANCH  17  26
ATOM     21  C   UNL     1      -0.397  12.116  19.722  0.00  0.00    +0.000 C 
ATOM     22  C   UNL     1       0.403  10.907  19.429  0.00  0.00    +0.000 A 
ATOM     23  N   UNL     1       1.103  10.644  18.348  0.00  0.00    +0.000 NA
ATOM     24  C   UNL     1       1.639   9.401  18.591  0.00  0.00    +0.000 A 
ATOM     25  C   UNL     1       2.491   8.737  17.581  0.00  0.00    +0.000 C 
ATOM     26  C   UNL     1       1.241   8.947  19.836  0.00  0.00    +0.000 A 
ATOM     27  O   UNL     1       0.433   9.923  20.385  0.00  0.00    +0.000 OA
ENDBRANCH  17  26
ENDBRANCH   1  19
TORSDOF 3
ENDMDL
MODEL 4
REMARK VINA RESULT:      -7.2      4.273      7.075
REMARK  Name = 
REMARK  5 active torsions:
REMARK  status: ('A' for Active; 'I' for Inactive)
REMARK    1  A    between atoms: C_1  and  C_2
REMARK    2  A    between atoms: C_4  and  C_5
REMARK    3  A    between atoms: C_6  and  C_7
REMARK    4  A    between atoms: N_9  and  C_10
REMARK    5  A    between atoms: C_16  and  C_17
REMARK                            x       y       z     vdW  Elec       q    Type
REMARK                         _______ _______ _______ _____ _____    ______ ____
ROOT
ATOM      1  C   UNL     1       2.850   4.761  20.521  0.00  0.00    +0.000 C 
ATOM      2  C   UNL     1       1.702   3.956  21.189  0.00  0.00    +0.000 C 
ATOM      3  C   UNL     1       1.548   2.470  20.837  0.00  0.00    +0.000 C 
ATOM      4  C   UNL     1       2.017   1.991  19.466  0.00  0.00    +0.000 C 
ATOM      5  C   UNL     1       2.883   2.964  18.760  0.00  0.00    +0.000 A 
ATOM      6  S   UNL     1       3.611   2.564  17.286  0.00  0.00    +0.000 S 
ATOM      7  C   UNL     1       4.463   4.071  17.286  0.00  0.00    +0.000 A 
ATOM      8  N   UNL     1       4.204   4.839  18.340  0.00  0.00    +0.000 NA
ATOM      9  C   UNL     1       3.255   4.226  19.172  0.00  0.00    +0.000 A 
ENDROOT
BRANCH   7  10
ATOM     10  C   UNL     1       5.454   4.322  16.209  0.00  0.00    +0.000 A 
ATOM     11  C   UNL     1       6.628   5.073  16.437  0.00  0.00    +0.000 A 
ATOM     12  C   UNL     1       7.513   5.392  15.397  0.00  0.00    +0.000 A 
ATOM     13  C   UNL     1       7.232   4.945  14.117  0.00  0.00    +0.000 A 
ATOM     14  F   UNL     1       8.065   5.258  13.117  0.00  0.00    +0.000 F 
ATOM     15  C   UNL     1       6.102   4.178  13.859  0.00  0.00    +0.000 A 
ATOM     16  C   UNL     1       5.216   3.865  14.904  0.00  0.00    +0.000 A 
ENDBRANCH   7  10
BRANCH   1  19
ATOM     17  C   UNL     1       1.961   6.909  19.537  0.00  0.00    +0.000 C 
ATOM     18  O   UNL     1       1.718   6.428  18.435  0.00  0.00    +0.000 OA
ATOM     19  N   UNL     1       2.603   6.203  20.534  0.00  0.00    +0.000 N 
ATOM     20  H   UNL     1       2.891   6.722  21.355  0.00  0.00    +0.000 HD
BRANCH  17  26
ATOM     21  C   UNL     1       0.002  10.410  22.309  0.00  0.00    +0.000 C 
ATOM     22  C   UNL     1       0.631   9.823  21.107  0.00  0.00    +0.000 A 
ATOM     23  N   UNL     1       0.915  10.420  19.970  0.00  0.00    +0.000 NA
ATOM     24  C   UNL     1       1.479   9.427  19.203  0.00  0.00    +0.000 A 
ATOM     25  C   UNL     1       1.922   9.704  17.820  0.00  0.00    +0.000 C 
ATOM     26  C   UNL     1       1.520   8.242  19.916  0.00  0.00    +0.000 A 
ATOM     27  O   UNL     1       0.967   8.493  21.155  0.00  0.00    +0.000 OA
ENDBRANCH  17  26
ENDBRANCH   1  19
TORSDOF 3
ENDMDL
MODEL 5
REMARK VINA RESULT:      -7.2      5.012      8.620
REMARK  Name = 
REMARK  5 active torsions:
REMARK  status: ('A' for Active; 'I' for Inactive)
REMARK    1  A    between atoms: C_1  and  C_2
REMARK    2  A    between atoms: C_4  and  C_5
REMARK    3  A    between atoms: C_6  and  C_7
REMARK    4  A    between atoms: N_9  and  C_10
REMARK    5  A    between atoms: C_16  and  C_17
REMARK                            x       y       z     vdW  Elec       q    Type
REMARK                         _______ _______ _______ _____ _____    ______ ____
ROOT
ATOM      1  C   UNL     1       2.526   4.603  18.113  0.00  0.00    +0.000 C 
ATOM      2  C   UNL     1       2.720   3.212  18.775  0.00  0.00    +0.000 C 
ATOM      3  C   UNL     1       1.976   2.913  20.084  0.00  0.00    +0.000 C 
ATOM      4  C   UNL     1       1.634   4.076  21.011  0.00  0.00    +0.000 C 
ATOM      5  C   UNL     1       1.764   5.406  20.372  0.00  0.00    +0.000 A 
ATOM      6  S   UNL     1       1.302   6.811  21.195  0.00  0.00    +0.000 S 
ATOM      7  C   UNL     1       1.621   7.756  19.780  0.00  0.00    +0.000 A 
ATOM      8  N   UNL     1       2.061   7.049  18.744  0.00  0.00    +0.000 NA
ATOM      9  C   UNL     1       2.191   5.696  19.094  0.00  0.00    +0.000 A 
ENDROOT
BRANCH   7  10
ATOM     10  C   UNL     1       1.285   9.203  19.808  0.00  0.00    +0.000 A 
ATOM     11  C   UNL     1       1.423  10.021  18.665  0.00  0.00    +0.000 A 
ATOM     12  C   UNL     1       1.199  11.405  18.717  0.00  0.00    +0.000 A 
ATOM     13  C   UNL     1       0.822  11.977  19.920  0.00  0.00    +0.000 A 
ATOM     14  F   UNL     1       0.623  13.299  19.981  0.00  0.00    +0.000 F 
ATOM     15  C   UNL     1       0.649  11.201  21.059  0.00  0.00    +0.000 A 
ATOM     16  C   UNL     1       0.877   9.815  21.002  0.00  0.00    +0.000 A 
ENDBRANCH   7  10
BRANCH   1  19
ATOM     17  C   UNL     1       4.939   4.587  17.371  0.00  0.00    +0.000 C 
ATOM     18  O   UNL     1       5.369   4.125  18.422  0.00  0.00    +0.000 OA
ATOM     19  N   UNL     1       3.617   4.944  17.199  0.00  0.00    +0.000 N 
ATOM     20  H   UNL     1       3.381   5.450  16.354  0.00  0.00    +0.000 HD
BRANCH  17  26
ATOM     21  C   UNL     1       6.571   3.701  12.861  0.00  0.00    +0.000 C 
ATOM     22  C   UNL     1       6.544   4.341  14.194  0.00  0.00    +0.000 A 
ATOM     23  N   UNL     1       7.381   5.229  14.681  0.00  0.00    +0.000 NA
ATOM     24  C   UNL     1       6.903   5.481  15.947  0.00  0.00    +0.000 A 
ATOM     25  C   UNL     1       7.599   6.432  16.839  0.00  0.00    +0.000 C 
ATOM     26  C   UNL     1       5.769   4.724  16.185  0.00  0.00    +0.000 A 
ATOM     27  O   UNL     1       5.533   3.978  15.048  0.00  0.00    +0.000 OA
ENDBRANCH  17  26
ENDBRANCH   1  19
TORSDOF 3
ENDMDL
MODEL 6
REMARK VINA RESULT:      -7.2      3.683      6.530
REMARK  Name = 
REMARK  5 active torsions:
REMARK  status: ('A' for Active; 'I' for Inactive)
REMARK    1  A    between atoms: C_1  and  C_2
REMARK    2  A    between atoms: C_4  and  C_5
REMARK    3  A    between atoms: C_6  and  C_7
REMARK    4  A    between atoms: N_9  and  C_10
REMARK    5  A    between atoms: C_16  and  C_17
REMARK                            x       y       z     vdW  Elec       q    Type
REMARK                         _______ _______ _______ _____ _____    ______ ____
ROOT
ATOM      1  C   UNL     1       2.327   5.393  20.266  0.00  0.00    +0.000 C 
ATOM      2  C   UNL     1       1.467   4.476  21.177  0.00  0.00    +0.000 C 
ATOM      3  C   UNL     1       1.841   2.990  21.285  0.00  0.00    +0.000 C 
ATOM      4  C   UNL     1       2.542   2.326  20.103  0.00  0.00    +0.000 C 
ATOM      5  C   UNL     1       3.084   3.288  19.116  0.00  0.00    +0.000 A 
ATOM      6  S   UNL     1       4.010   2.751  17.804  0.00  0.00    +0.000 S 
ATOM      7  C   UNL     1       4.310   4.389  17.333  0.00  0.00    +0.000 A 
ATOM      8  N   UNL     1       3.734   5.293  18.119  0.00  0.00    +0.000 NA
ATOM      9  C   UNL     1       2.984   4.662  19.124  0.00  0.00    +0.000 A 
ENDROOT
BRANCH   7  10
ATOM     10  C   UNL     1       5.237   4.640  16.200  0.00  0.00    +0.000 A 
ATOM     11  C   UNL     1       5.037   4.053  14.931  0.00  0.00    +0.000 A 
ATOM     12  C   UNL     1       5.966   4.212  13.891  0.00  0.00    +0.000 A 
ATOM     13  C   UNL     1       7.100   4.973  14.115  0.00  0.00    +0.000 A 
ATOM     14  F   UNL     1       7.998   5.116  13.133  0.00  0.00    +0.000 F 
ATOM     15  C   UNL     1       7.317   5.589  15.342  0.00  0.00    +0.000 A 
ATOM     16  C   UNL     1       6.386   5.425  16.382  0.00  0.00    +0.000 A 
ENDBRANCH   7  10
BRANCH   1  19
ATOM     17  C   UNL     1       1.550   7.771  20.592  0.00  0.00    +0.000 C 
ATOM     18  O   UNL     1       1.910   7.841  21.762  0.00  0.00    +0.000 OA
ATOM     19  N   UNL     1       1.615   6.604  19.860  0.00  0.00    +0.000 N 
ATOM     20  H   UNL     1       1.163   6.602  18.953  0.00  0.00    +0.000 HD
BRANCH  17  26
ATOM     21  C   UNL     1      -1.075  11.756  19.582  0.00  0.00    +0.000 C 
ATOM     22  C   UNL     1      -0.069  10.698  19.349  0.00  0.00    +0.000 A 
ATOM     23  N   UNL     1       0.684  10.519  18.287  0.00  0.00    +0.000 NA
ATOM     24  C   UNL     1       1.428   9.402  18.589  0.00  0.00    +0.000 A 
ATOM     25  C   UNL     1       2.401   8.859  17.616  0.00  0.00    +0.000 C 
ATOM     26  C   UNL     1       1.097   8.937  19.849  0.00  0.00    +0.000 A 
ATOM     27  O   UNL     1       0.120   9.775  20.348  0.00  0.00    +0.000 OA
ENDBRANCH  17  26
ENDBRANCH   1  19
TORSDOF 3
ENDMDL
MODEL 7
REMARK VINA RESULT:      -7.1      4.106      6.451
REMARK  Name = 
REMARK  5 active torsions:
REMARK  status: ('A' for Active; 'I' for Inactive)
REMARK    1  A    between atoms: C_1  and  C_2
REMARK    2  A    between atoms: C_4  and  C_5
REMARK    3  A    between atoms: C_6  and  C_7
REMARK    4  A    between atoms: N_9  and  C_10
REMARK    5  A    between atoms: C_16  and  C_17
REMARK                            x       y       z     vdW  Elec       q    Type
REMARK                         _______ _______ _______ _____ _____    ______ ____
ROOT
ATOM      1  C   UNL     1       2.675   5.829  19.999  0.00  0.00    +0.000 C 
ATOM      2  C   UNL     1       1.453   5.214  20.735  0.00  0.00    +0.000 C 
ATOM      3  C   UNL     1       1.187   3.709  20.583  0.00  0.00    +0.000 C 
ATOM      4  C   UNL     1       1.645   3.012  19.305  0.00  0.00    +0.000 C 
ATOM      5  C   UNL     1       2.600   3.809  18.501  0.00  0.00    +0.000 A 
ATOM      6  S   UNL     1       3.323   3.155  17.118  0.00  0.00    +0.000 S 
ATOM      7  C   UNL     1       4.293   4.578  16.940  0.00  0.00    +0.000 A 
ATOM      8  N   UNL     1       4.075   5.502  17.871  0.00  0.00    +0.000 NA
ATOM      9  C   UNL     1       3.063   5.083  18.749  0.00  0.00    +0.000 A 
ENDROOT
BRANCH   7  10
ATOM     10  C   UNL     1       5.323   4.601  15.870  0.00  0.00    +0.000 A 
ATOM     11  C   UNL     1       6.518   5.342  16.003  0.00  0.00    +0.000 A 
ATOM     12  C   UNL     1       7.444   5.442  14.954  0.00  0.00    +0.000 A 
ATOM     13  C   UNL     1       7.182   4.785  13.763  0.00  0.00    +0.000 A 
ATOM     14  F   UNL     1       8.053   4.889  12.753  0.00  0.00    +0.000 F 
ATOM     15  C   UNL     1       6.030   4.023  13.605  0.00  0.00    +0.000 A 
ATOM     16  C   UNL     1       5.104   3.929  14.658  0.00  0.00    +0.000 A 
ENDBRANCH   7  10
BRANCH   1  19
ATOM     17  C   UNL     1       1.883   7.880  18.760  0.00  0.00    +0.000 C 
ATOM     18  O   UNL     1       1.517   7.267  17.763  0.00  0.00    +0.000 OA
ATOM     19  N   UNL     1       2.544   7.273  19.809  0.00  0.00    +0.000 N 
ATOM     20  H   UNL     1       2.936   7.879  20.520  0.00  0.00    +0.000 HD
BRANCH  17  26
ATOM     21  C   UNL     1       2.169  12.706  18.121  0.00  0.00    +0.000 C 
ATOM     22  C   UNL     1       1.697  11.443  18.726  0.00  0.00    +0.000 A 
ATOM     23  N   UNL     1       0.851  11.290  19.720  0.00  0.00    +0.000 NA
ATOM     24  C   UNL     1       0.769   9.926  19.881  0.00  0.00    +0.000 A 
ATOM     25  C   UNL     1      -0.087   9.343  20.938  0.00  0.00    +0.000 C 
ATOM     26  C   UNL     1       1.580   9.289  18.960  0.00  0.00    +0.000 A 
ATOM     27  O   UNL     1       2.190  10.271  18.207  0.00  0.00    +0.000 OA
ENDBRANCH  17  26
ENDBRANCH   1  19
TORSDOF 3
ENDMDL
MODEL 8
REMARK VINA RESULT:      -7.1      5.005      8.732
REMARK  Name = 
REMARK  5 active torsions:
REMARK  status: ('A' for Active; 'I' for Inactive)
REMARK    1  A    between atoms: C_1  and  C_2
REMARK    2  A    between atoms: C_4  and  C_5
REMARK    3  A    between atoms: C_6  and  C_7
REMARK    4  A    between atoms: N_9  and  C_10
REMARK    5  A    between atoms: C_16  and  C_17
REMARK                            x       y       z     vdW  Elec       q    Type
REMARK                         _______ _______ _______ _____ _____    ______ ____
ROOT
ATOM      1  C   UNL     1       3.329   3.585  18.893  0.00  0.00    +0.000 C 
ATOM      2  C   UNL     1       3.535   2.421  19.900  0.00  0.00    +0.000 C 
ATOM      3  C   UNL     1       2.707   2.415  21.193  0.00  0.00    +0.000 C 
ATOM      4  C   UNL     1       2.242   3.750  21.768  0.00  0.00    +0.000 C 
ATOM      5  C   UNL     1       2.360   4.881  20.819  0.00  0.00    +0.000 A 
ATOM      6  S   UNL     1       1.773   6.415  21.225  0.00  0.00    +0.000 S 
ATOM      7  C   UNL     1       2.156   6.992  19.638  0.00  0.00    +0.000 A 
ATOM      8  N   UNL     1       2.706   6.076  18.847  0.00  0.00    +0.000 NA
ATOM      9  C   UNL     1       2.870   4.866  19.539  0.00  0.00    +0.000 A 
ENDROOT
BRANCH   7  10
ATOM     10  C   UNL     1       1.753   8.375  19.273  0.00  0.00    +0.000 A 
ATOM     11  C   UNL     1       2.182   8.983  18.073  0.00  0.00    +0.000 A 
ATOM     12  C   UNL     1       1.883  10.321  17.776  0.00  0.00    +0.000 A 
ATOM     13  C   UNL     1       1.136  11.057  18.681  0.00  0.00    +0.000 A 
ATOM     14  F   UNL     1       0.860  12.338  18.411  0.00  0.00    +0.000 F 
ATOM     15  C   UNL     1       0.672  10.485  19.859  0.00  0.00    +0.000 A 
ATOM     16  C   UNL     1       0.978   9.145  20.154  0.00  0.00    +0.000 A 
ENDBRANCH   7  10
BRANCH   1  19
ATOM     17  C   UNL     1       4.391   3.849  16.618  0.00  0.00    +0.000 C 
ATOM     18  O   UNL     1       3.368   3.590  15.994  0.00  0.00    +0.000 OA
ATOM     19  N   UNL     1       4.470   3.753  17.993  0.00  0.00    +0.000 N 
ATOM     20  H   UNL     1       5.389   3.845  18.410  0.00  0.00    +0.000 HD
BRANCH  17  26
ATOM     21  C   UNL     1       7.428   4.992  12.978  0.00  0.00    +0.000 C 
ATOM     22  C   UNL     1       6.980   4.857  14.380  0.00  0.00    +0.000 A 
ATOM     23  N   UNL     1       7.650   5.144  15.474  0.00  0.00    +0.000 NA
ATOM     24  C   UNL     1       6.779   4.830  16.492  0.00  0.00    +0.000 A 
ATOM     25  C   UNL     1       7.181   5.000  17.905  0.00  0.00    +0.000 C 
ATOM     26  C   UNL     1       5.588   4.359  15.969  0.00  0.00    +0.000 A 
ATOM     27  O   UNL     1       5.714   4.371  14.595  0.00  0.00    +0.000 OA
ENDBRANCH  17  26
ENDBRANCH   1  19
TORSDOF 3
ENDMDL
MODEL 9
REMARK VINA RESULT:      -7.1      5.083      8.729
REMARK  Name = 
REMARK  5 active torsions:
REMARK  status: ('A' for Active; 'I' for Inactive)
REMARK    1  A    between atoms: C_1  and  C_2
REMARK    2  A    between atoms: C_4  and  C_5
REMARK    3  A    between atoms: C_6  and  C_7
REMARK    4  A    between atoms: N_9  and  C_10
REMARK    5  A    between atoms: C_16  and  C_17
REMARK                            x       y       z     vdW  Elec       q    Type
REMARK                         _______ _______ _______ _____ _____    ______ ____
ROOT
ATOM      1  C   UNL     1       3.147   4.309  18.506  0.00  0.00    +0.000 C 
ATOM      2  C   UNL     1       3.274   3.024  19.369  0.00  0.00    +0.000 C 
ATOM      3  C   UNL     1       2.350   2.863  20.585  0.00  0.00    +0.000 C 
ATOM      4  C   UNL     1       1.844   4.119  21.288  0.00  0.00    +0.000 C 
ATOM      5  C   UNL     1       2.035   5.360  20.502  0.00  0.00    +0.000 A 
ATOM      6  S   UNL     1       1.420   6.837  21.054  0.00  0.00    +0.000 S 
ATOM      7  C   UNL     1       1.924   7.606  19.587  0.00  0.00    +0.000 A 
ATOM      8  N   UNL     1       2.531   6.792  18.730  0.00  0.00    +0.000 NA
ATOM      9  C   UNL     1       2.642   5.502  19.273  0.00  0.00    +0.000 A 
ENDROOT
BRANCH   7  10
ATOM     10  C   UNL     1       1.552   9.028  19.371  0.00  0.00    +0.000 A 
ATOM     11  C   UNL     1       0.720   9.725  20.275  0.00  0.00    +0.000 A 
ATOM     12  C   UNL     1       0.291  11.036  20.020  0.00  0.00    +0.000 A 
ATOM     13  C   UNL     1       0.706  11.664  18.858  0.00  0.00    +0.000 A 
ATOM     14  F   UNL     1       0.287  12.909  18.601  0.00  0.00    +0.000 F 
ATOM     15  C   UNL     1       1.548  11.020  17.959  0.00  0.00    +0.000 A 
ATOM     16  C   UNL     1       1.973   9.705  18.217  0.00  0.00    +0.000 A 
ENDBRANCH   7  10
BRANCH   1  19
ATOM     17  C   UNL     1       4.887   3.733  16.770  0.00  0.00    +0.000 C 
ATOM     18  O   UNL     1       4.519   2.571  16.633  0.00  0.00    +0.000 OA
ATOM     19  N   UNL     1       4.353   4.577  17.723  0.00  0.00    +0.000 N 
ATOM     20  H   UNL     1       4.815   5.468  17.861  0.00  0.00    +0.000 HD
BRANCH  17  26
ATOM     21  C   UNL     1       7.288   4.660  12.628  0.00  0.00    +0.000 C 
ATOM     22  C   UNL     1       6.975   4.768  14.069  0.00  0.00    +0.000 A 
ATOM     23  N   UNL     1       7.605   5.472  14.982  0.00  0.00    +0.000 NA
ATOM     24  C   UNL     1       6.911   5.213  16.142  0.00  0.00    +0.000 A 
ATOM     25  C   UNL     1       7.333   5.819  17.423  0.00  0.00    +0.000 C 
ATOM     26  C   UNL     1       5.863   4.347  15.885  0.00  0.00    +0.000 A 
ATOM     27  O   UNL     1       5.901   4.051  14.537  0.00  0.00    +0.000 OA
ENDBRANCH  17  26
ENDBRANCH   1  19
TORSDOF 3
ENDMDL
