MODEL 1
REMARK VINA RESULT:      -6.1      0.000      0.000
REMARK  Name = 
REMARK  6 active torsions:
REMARK  status: ('A' for Active; 'I' for Inactive)
REMARK    1  A    between atoms: C_1  and  O_2
REMARK    2  A    between atoms: O_2  and  C_3
REMARK    3  A    between atoms: C_3  and  C_4
REMARK    4  A    between atoms: C_4  and  N_5
REMARK    5  A    between atoms: N_11  and  C_12
REMARK    6  A    between atoms: C_12  and  C_13
REMARK                            x       y       z     vdW  Elec       q    Type
REMARK                         _______ _______ _______ _____ _____    ______ ____
ROOT
ATOM      1  N   UNL     1       3.330   4.334  20.117  0.00  0.00    +0.000 N 
ATOM      2  C   UNL     1       3.190   5.764  20.200  0.00  0.00    +0.000 C 
ATOM      3  C   UNL     1       3.467   6.220  18.776  0.00  0.00    +0.000 C 
ATOM      4  C   UNL     1       4.445   5.164  18.217  0.00  0.00    +0.000 C 
ATOM      5  C   UNL     1       4.244   4.904  16.717  0.00  0.00    +0.000 C 
ATOM      6  C   UNL     1       4.877   5.989  15.851  0.00  0.00    +0.000 C 
ATOM      7  N   UNL     1       6.298   6.226  16.149  0.00  0.00    +0.000 NA
ATOM      8  C   UNL     1       6.455   6.584  17.566  0.00  0.00    +0.000 C 
ATOM      9  C   UNL     1       5.906   5.528  18.534  0.00  0.00    +0.000 C 
ATOM     10  C   UNL     1       4.041   3.923  19.006  0.00  0.00    +0.000 C 
ATOM     11  O   UNL     1       4.336   2.771  18.726  0.00  0.00    +0.000 OA
ENDROOT
BRANCH   1  12
ATOM     12  C   UNL     1       2.727   3.421  21.075  0.00  0.00    +0.000 C 
BRANCH  12  13
ATOM     13  C   UNL     1       1.268   3.085  20.778  0.00  0.00    +0.000 C 
BRANCH  13  15
ATOM     14  C   UNL     1       0.708   2.422  18.587  0.00  0.00    +0.000 C 
ATOM     15  O   UNL     1       1.229   2.004  19.841  0.00  0.00    +0.000 OA
ENDBRANCH  13  15
ENDBRANCH  12  13
ENDBRANCH   1  12
BRANCH   7  16
ATOM     16  C   UNL     1       7.174   5.090  15.787  0.00  0.00    +0.000 C 
BRANCH  16  17
ATOM     17  C   UNL     1       7.001   4.640  14.361  0.00  0.00    +0.000 A 
ATOM     18  C   UNL     1       6.142   3.683  13.855  0.00  0.00    +0.000 A 
ATOM     19  C   UNL     1       6.293   3.507  12.449  0.00  0.00    +0.000 A 
ATOM     20  C   UNL     1       7.244   4.352  11.923  0.00  0.00    +0.000 A 
ATOM     21  S   UNL     1       7.944   5.353  13.117  0.00  0.00    +0.000 S 
ENDBRANCH  16  17
ENDBRANCH   7  16
TORSDOF 5
ENDMDL
MODEL 2
REMARK VINA RESULT:      -6.0      3.557      6.962
REMARK  Name = 
REMARK  6 active torsions:
REMARK  status: ('A' for Active; 'I' for Inactive)
REMARK    1  A    between atoms: C_1  and  O_2
REMARK    2  A    between atoms: O_2  and  C_3
REMARK    3  A    between atoms: C_3  and  C_4
REMARK    4  A    between atoms: C_4  and  N_5
REMARK    5  A    between atoms: N_11  and  C_12
REMARK    6  A    between atoms: C_12  and  C_13
REMARK                            x       y       z     vdW  Elec       q    Type
REMARK                         _______ _______ _______ _____ _____    ______ ____
ROOT
ATOM      1  N   UNL     1       7.282   6.949  18.039  0.00  0.00    +0.000 N 
ATOM      2  C   UNL     1       6.751   7.293  16.746  0.00  0.00    +0.000 C 
ATOM      3  C   UNL     1       5.322   6.780  16.813  0.00  0.00    +0.000 C 
ATOM      4  C   UNL     1       5.391   5.572  17.772  0.00  0.00    +0.000 C 
ATOM      5  C   UNL     1       4.117   5.409  18.614  0.00  0.00    +0.000 C 
ATOM      6  C   UNL     1       2.984   4.755  17.829  0.00  0.00    +0.000 C 
ATOM      7  N   UNL     1       3.359   3.477  17.206  0.00  0.00    +0.000 NA
ATOM      8  C   UNL     1       4.512   3.678  16.316  0.00  0.00    +0.000 C 
ATOM      9  C   UNL     1       5.737   4.276  17.019  0.00  0.00    +0.000 C 
ATOM     10  C   UNL     1       6.552   5.966  18.679  0.00  0.00    +0.000 C 
ATOM     11  O   UNL     1       6.814   5.467  19.763  0.00  0.00    +0.000 OA
ENDROOT
BRANCH   1  12
ATOM     12  C   UNL     1       8.433   7.615  18.626  0.00  0.00    +0.000 C 
BRANCH  12  13
ATOM     13  C   UNL     1       8.498   9.113  18.333  0.00  0.00    +0.000 C 
BRANCH  13  15
ATOM     14  C   UNL     1       9.709  11.031  18.970  0.00  0.00    +0.000 C 
ATOM     15  O   UNL     1       9.244   9.751  19.374  0.00  0.00    +0.000 OA
ENDBRANCH  13  15
ENDBRANCH  12  13
ENDBRANCH   1  12
BRANCH   7  16
ATOM     16  C   UNL     1       3.624   2.399  18.185  0.00  0.00    +0.000 C 
BRANCH  16  17
ATOM     17  C   UNL     1       2.845   2.556  19.463  0.00  0.00    +0.000 A 
ATOM     18  C   UNL     1       3.319   2.656  20.757  0.00  0.00    +0.000 A 
ATOM     19  C   UNL     1       2.267   2.756  21.714  0.00  0.00    +0.000 A 
ATOM     20  C   UNL     1       1.026   2.754  21.118  0.00  0.00    +0.000 A 
ATOM     21  S   UNL     1       1.131   2.638  19.417  0.00  0.00    +0.000 S 
ENDBRANCH  16  17
ENDBRANCH   7  16
TORSDOF 5
ENDMDL
MODEL 3
REMARK VINA RESULT:      -5.8      3.203      6.926
REMARK  Name = 
REMARK  6 active torsions:
REMARK  status: ('A' for Active; 'I' for Inactive)
REMARK    1  A    between atoms: C_1  and  O_2
REMARK    2  A    between atoms: O_2  and  C_3
REMARK    3  A    between atoms: C_3  and  C_4
REMARK    4  A    between atoms: C_4  and  N_5
REMARK    5  A    between atoms: N_11  and  C_12
REMARK    6  A    between atoms: C_12  and  C_13
REMARK                            x       y       z     vdW  Elec       q    Type
REMARK                         _______ _______ _______ _____ _____    ______ ____
ROOT
ATOM      1  N   UNL     1       6.695   4.533  13.490  0.00  0.00    +0.000 N 
ATOM      2  C   UNL     1       7.750   5.082  14.300  0.00  0.00    +0.000 C 
ATOM      3  C   UNL     1       7.293   4.772  15.716  0.00  0.00    +0.000 C 
ATOM      4  C   UNL     1       5.751   4.776  15.632  0.00  0.00    +0.000 C 
ATOM      5  C   UNL     1       5.103   3.762  16.586  0.00  0.00    +0.000 C 
ATOM      6  C   UNL     1       5.052   4.269  18.024  0.00  0.00    +0.000 C 
ATOM      7  N   UNL     1       4.417   5.588  18.162  0.00  0.00    +0.000 NA
ATOM      8  C   UNL     1       5.124   6.570  17.326  0.00  0.00    +0.000 C 
ATOM      9  C   UNL     1       5.180   6.189  15.841  0.00  0.00    +0.000 C 
ATOM     10  C   UNL     1       5.521   4.336  14.190  0.00  0.00    +0.000 C 
ATOM     11  O   UNL     1       4.468   3.924  13.728  0.00  0.00    +0.000 OA
ENDROOT
BRANCH   1  12
ATOM     12  C   UNL     1       6.876   4.169  12.093  0.00  0.00    +0.000 C 
BRANCH  12  13
ATOM     13  C   UNL     1       7.136   2.682  11.869  0.00  0.00    +0.000 C 
BRANCH  13  15
ATOM     14  C   UNL     1       6.120   0.711  11.071  0.00  0.00    +0.000 C 
ATOM     15  O   UNL     1       5.910   2.056  11.480  0.00  0.00    +0.000 OA
ENDBRANCH  13  15
ENDBRANCH  12  13
ENDBRANCH   1  12
BRANCH   7  16
ATOM     16  C   UNL     1       2.968   5.579  17.861  0.00  0.00    +0.000 C 
BRANCH  16  17
ATOM     17  C   UNL     1       2.188   4.634  18.735  0.00  0.00    +0.000 A 
ATOM     18  C   UNL     1       1.467   3.514  18.368  0.00  0.00    +0.000 A 
ATOM     19  C   UNL     1       0.829   2.891  19.480  0.00  0.00    +0.000 A 
ATOM     20  C   UNL     1       1.103   3.541  20.662  0.00  0.00    +0.000 A 
ATOM     21  S   UNL     1       2.128   4.888  20.432  0.00  0.00    +0.000 S 
ENDBRANCH  16  17
ENDBRANCH   7  16
TORSDOF 5
ENDMDL
MODEL 4
REMARK VINA RESULT:      -5.7      1.026      1.234
REMARK  Name = 
REMARK  6 active torsions:
REMARK  status: ('A' for Active; 'I' for Inactive)
REMARK    1  A    between atoms: C_1  and  O_2
REMARK    2  A    between atoms: O_2  and  C_3
REMARK    3  A    between atoms: C_3  and  C_4
REMARK    4  A    between atoms: C_4  and  N_5
REMARK    5  A    between atoms: N_11  and  C_12
REMARK    6  A    between atoms: C_12  and  C_13
REMARK                            x       y       z     vdW  Elec       q    Type
REMARK                         _______ _______ _______ _____ _____    ______ ____
ROOT
ATOM      1  N   UNL     1       2.558   5.013  19.375  0.00  0.00    +0.000 N 
ATOM      2  C   UNL     1       2.762   6.423  19.579  0.00  0.00    +0.000 C 
ATOM      3  C   UNL     1       3.399   6.871  18.273  0.00  0.00    +0.000 C 
ATOM      4  C   UNL     1       4.173   5.630  17.777  0.00  0.00    +0.000 C 
ATOM      5  C   UNL     1       4.193   5.516  16.246  0.00  0.00    +0.000 C 
ATOM      6  C   UNL     1       5.223   6.445  15.609  0.00  0.00    +0.000 C 
ATOM      7  N   UNL     1       6.578   6.287  16.158  0.00  0.00    +0.000 NA
ATOM      8  C   UNL     1       6.555   6.511  17.611  0.00  0.00    +0.000 C 
ATOM      9  C   UNL     1       5.595   5.582  18.364  0.00  0.00    +0.000 C 
ATOM     10  C   UNL     1       3.338   4.494  18.360  0.00  0.00    +0.000 C 
ATOM     11  O   UNL     1       3.386   3.323  18.016  0.00  0.00    +0.000 OA
ENDROOT
BRANCH   1  12
ATOM     12  C   UNL     1       1.584   4.237  20.125  0.00  0.00    +0.000 C 
BRANCH  12  13
ATOM     13  C   UNL     1       1.990   3.965  21.572  0.00  0.00    +0.000 C 
BRANCH  13  15
ATOM     14  C   UNL     1       3.404   2.108  21.249  0.00  0.00    +0.000 C 
ATOM     15  O   UNL     1       2.149   2.553  21.744  0.00  0.00    +0.000 OA
ENDBRANCH  13  15
ENDBRANCH  12  13
ENDBRANCH   1  12
BRANCH   7  16
ATOM     16  C   UNL     1       7.198   4.984  15.831  0.00  0.00    +0.000 C 
BRANCH  16  17
ATOM     17  C   UNL     1       7.007   4.582  14.393  0.00  0.00    +0.000 A 
ATOM     18  C   UNL     1       6.137   3.647  13.866  0.00  0.00    +0.000 A 
ATOM     19  C   UNL     1       6.272   3.516  12.453  0.00  0.00    +0.000 A 
ATOM     20  C   UNL     1       7.222   4.372  11.945  0.00  0.00    +0.000 A 
ATOM     21  S   UNL     1       7.941   5.330  13.162  0.00  0.00    +0.000 S 
ENDBRANCH  16  17
ENDBRANCH   7  16
TORSDOF 5
ENDMDL
MODEL 5
REMARK VINA RESULT:      -5.7      3.836      7.081
REMARK  Name = 
REMARK  6 active torsions:
REMARK  status: ('A' for Active; 'I' for Inactive)
REMARK    1  A    between atoms: C_1  and  O_2
REMARK    2  A    between atoms: O_2  and  C_3
REMARK    3  A    between atoms: C_3  and  C_4
REMARK    4  A    between atoms: C_4  and  N_5
REMARK    5  A    between atoms: N_11  and  C_12
REMARK    6  A    between atoms: C_12  and  C_13
REMARK                            x       y       z     vdW  Elec       q    Type
REMARK                         _______ _______ _______ _____ _____    ______ ____
ROOT
ATOM      1  N   UNL     1       7.410   7.589  17.818  0.00  0.00    +0.000 N 
ATOM      2  C   UNL     1       8.194   6.601  18.512  0.00  0.00    +0.000 C 
ATOM      3  C   UNL     1       7.693   5.291  17.925  0.00  0.00    +0.000 C 
ATOM      4  C   UNL     1       6.222   5.575  17.551  0.00  0.00    +0.000 C 
ATOM      5  C   UNL     1       5.771   4.812  16.297  0.00  0.00    +0.000 C 
ATOM      6  C   UNL     1       5.441   3.352  16.595  0.00  0.00    +0.000 C 
ATOM      7  N   UNL     1       4.469   3.177  17.684  0.00  0.00    +0.000 NA
ATOM      8  C   UNL     1       4.973   3.820  18.907  0.00  0.00    +0.000 C 
ATOM      9  C   UNL     1       5.279   5.313  18.738  0.00  0.00    +0.000 C 
ATOM     10  C   UNL     1       6.265   7.069  17.247  0.00  0.00    +0.000 C 
ATOM     11  O   UNL     1       5.412   7.700  16.644  0.00  0.00    +0.000 OA
ENDROOT
BRANCH   1  12
ATOM     12  C   UNL     1       7.822   8.977  17.686  0.00  0.00    +0.000 C 
BRANCH  12  13
ATOM     13  C   UNL     1       8.847   9.421  18.728  0.00  0.00    +0.000 C 
BRANCH  13  15
ATOM     14  C   UNL     1       9.356  11.670  19.214  0.00  0.00    +0.000 C 
ATOM     15  O   UNL     1       9.479  10.619  18.266  0.00  0.00    +0.000 OA
ENDBRANCH  13  15
ENDBRANCH  12  13
ENDBRANCH   1  12
BRANCH   7  16
ATOM     16  C   UNL     1       3.113   3.664  17.347  0.00  0.00    +0.000 C 
BRANCH  16  17
ATOM     17  C   UNL     1       2.177   3.671  18.527  0.00  0.00    +0.000 A 
ATOM     18  C   UNL     1       1.704   4.752  19.247  0.00  0.00    +0.000 A 
ATOM     19  C   UNL     1       0.860   4.357  20.326  0.00  0.00    +0.000 A 
ATOM     20  C   UNL     1       0.699   2.991  20.379  0.00  0.00    +0.000 A 
ATOM     21  S   UNL     1       1.552   2.193  19.134  0.00  0.00    +0.000 S 
ENDBRANCH  16  17
ENDBRANCH   7  16
TORSDOF 5
ENDMDL
MODEL 6
REMARK VINA RESULT:      -5.6      1.438      2.043
REMARK  Name = 
REMARK  6 active torsions:
REMARK  status: ('A' for Active; 'I' for Inactive)
REMARK    1  A    between atoms: C_1  and  O_2
REMARK    2  A    between atoms: O_2  and  C_3
REMARK    3  A    between atoms: C_3  and  C_4
REMARK    4  A    between atoms: C_4  and  N_5
REMARK    5  A    between atoms: N_11  and  C_12
REMARK    6  A    between atoms: C_12  and  C_13
REMARK                            x       y       z     vdW  Elec       q    Type
REMARK                         _______ _______ _______ _____ _____    ______ ____
ROOT
ATOM      1  N   UNL     1       2.958   2.918  19.165  0.00  0.00    +0.000 N 
ATOM      2  C   UNL     1       4.252   2.692  19.754  0.00  0.00    +0.000 C 
ATOM      3  C   UNL     1       5.057   3.894  19.287  0.00  0.00    +0.000 C 
ATOM      4  C   UNL     1       4.434   4.268  17.924  0.00  0.00    +0.000 C 
ATOM      5  C   UNL     1       4.458   5.780  17.657  0.00  0.00    +0.000 C 
ATOM      6  C   UNL     1       5.828   6.265  17.193  0.00  0.00    +0.000 C 
ATOM      7  N   UNL     1       6.354   5.527  16.035  0.00  0.00    +0.000 NA
ATOM      8  C   UNL     1       6.429   4.093  16.353  0.00  0.00    +0.000 C 
ATOM      9  C   UNL     1       5.085   3.483  16.773  0.00  0.00    +0.000 C 
ATOM     10  C   UNL     1       2.991   3.808  18.109  0.00  0.00    +0.000 C 
ATOM     11  O   UNL     1       2.042   4.137  17.415  0.00  0.00    +0.000 OA
ENDROOT
BRANCH   1  12
ATOM     12  C   UNL     1       1.738   2.314  19.676  0.00  0.00    +0.000 C 
BRANCH  12  13
ATOM     13  C   UNL     1       1.166   3.016  20.905  0.00  0.00    +0.000 C 
BRANCH  13  15
ATOM     14  C   UNL     1       1.599   5.333  20.903  0.00  0.00    +0.000 C 
ATOM     15  O   UNL     1       0.694   4.310  20.514  0.00  0.00    +0.000 OA
ENDBRANCH  13  15
ENDBRANCH  12  13
ENDBRANCH   1  12
BRANCH   7  16
ATOM     16  C   UNL     1       5.587   5.756  14.791  0.00  0.00    +0.000 C 
BRANCH  16  17
ATOM     17  C   UNL     1       5.953   4.803  13.686  0.00  0.00    +0.000 A 
ATOM     18  C   UNL     1       5.192   3.793  13.129  0.00  0.00    +0.000 A 
ATOM     19  C   UNL     1       5.899   3.074  12.121  0.00  0.00    +0.000 A 
ATOM     20  C   UNL     1       7.167   3.574  11.925  0.00  0.00    +0.000 A 
ATOM     21  S   UNL     1       7.498   4.903  12.944  0.00  0.00    +0.000 S 
ENDBRANCH  16  17
ENDBRANCH   7  16
TORSDOF 5
ENDMDL
MODEL 7
REMARK VINA RESULT:      -5.5      1.185      1.374
REMARK  Name = 
REMARK  6 active torsions:
REMARK  status: ('A' for Active; 'I' for Inactive)
REMARK    1  A    between atoms: C_1  and  O_2
REMARK    2  A    between atoms: O_2  and  C_3
REMARK    3  A    between atoms: C_3  and  C_4
REMARK    4  A    between atoms: C_4  and  N_5
REMARK    5  A    between atoms: N_11  and  C_12
REMARK    6  A    between atoms: C_12  and  C_13
REMARK                            x       y       z     vdW  Elec       q    Type
REMARK                         _______ _______ _______ _____ _____    ______ ____
ROOT
ATOM      1  N   UNL     1       2.514   5.370  19.452  0.00  0.00    +0.000 N 
ATOM      2  C   UNL     1       2.741   6.783  19.601  0.00  0.00    +0.000 C 
ATOM      3  C   UNL     1       3.374   7.172  18.275  0.00  0.00    +0.000 C 
ATOM      4  C   UNL     1       4.125   5.901  17.820  0.00  0.00    +0.000 C 
ATOM      5  C   UNL     1       4.131   5.729  16.295  0.00  0.00    +0.000 C 
ATOM      6  C   UNL     1       5.169   6.618  15.615  0.00  0.00    +0.000 C 
ATOM      7  N   UNL     1       6.526   6.459  16.159  0.00  0.00    +0.000 NA
ATOM      8  C   UNL     1       6.519   6.738  17.603  0.00  0.00    +0.000 C 
ATOM      9  C   UNL     1       5.551   5.853  18.397  0.00  0.00    +0.000 C 
ATOM     10  C   UNL     1       3.278   4.801  18.451  0.00  0.00    +0.000 C 
ATOM     11  O   UNL     1       3.305   3.617  18.152  0.00  0.00    +0.000 OA
ENDROOT
BRANCH   1  12
ATOM     12  C   UNL     1       1.534   4.637  20.238  0.00  0.00    +0.000 C 
BRANCH  12  13
ATOM     13  C   UNL     1       2.134   3.863  21.410  0.00  0.00    +0.000 C 
BRANCH  13  15
ATOM     14  C   UNL     1       1.214   2.102  20.142  0.00  0.00    +0.000 C 
ATOM     15  O   UNL     1       1.545   2.559  21.446  0.00  0.00    +0.000 OA
ENDBRANCH  13  15
ENDBRANCH  12  13
ENDBRANCH   1  12
BRANCH   7  16
ATOM     16  C   UNL     1       7.124   5.136  15.876  0.00  0.00    +0.000 C 
BRANCH  16  17
ATOM     17  C   UNL     1       7.069   4.760  14.420  0.00  0.00    +0.000 A 
ATOM     18  C   UNL     1       7.796   5.281  13.366  0.00  0.00    +0.000 A 
ATOM     19  C   UNL     1       7.439   4.694  12.117  0.00  0.00    +0.000 A 
ATOM     20  C   UNL     1       6.469   3.727  12.262  0.00  0.00    +0.000 A 
ATOM     21  S   UNL     1       6.000   3.527  13.892  0.00  0.00    +0.000 S 
ENDBRANCH  16  17
ENDBRANCH   7  16
TORSDOF 5
ENDMDL
MODEL 8
REMARK VINA RESULT:      -5.4      3.321      6.776
REMARK  Name = 
REMARK  6 active torsions:
REMARK  status: ('A' for Active; 'I' for Inactive)
REMARK    1  A    between atoms: C_1  and  O_2
REMARK    2  A    between atoms: O_2  and  C_3
REMARK    3  A    between atoms: C_3  and  C_4
REMARK    4  A    between atoms: C_4  and  N_5
REMARK    5  A    between atoms: N_11  and  C_12
REMARK    6  A    between atoms: C_12  and  C_13
REMARK                            x       y       z     vdW  Elec       q    Type
REMARK                         _______ _______ _______ _____ _____    ______ ____
ROOT
ATOM      1  N   UNL     1       6.574   6.502  17.801  0.00  0.00    +0.000 N 
ATOM      2  C   UNL     1       5.960   6.960  16.583  0.00  0.00    +0.000 C 
ATOM      3  C   UNL     1       4.512   6.525  16.742  0.00  0.00    +0.000 C 
ATOM      4  C   UNL     1       4.586   5.254  17.616  0.00  0.00    +0.000 C 
ATOM      5  C   UNL     1       3.380   5.107  18.554  0.00  0.00    +0.000 C 
ATOM      6  C   UNL     1       2.146   4.571  17.833  0.00  0.00    +0.000 C 
ATOM      7  N   UNL     1       2.389   3.318  17.103  0.00  0.00    +0.000 NA
ATOM      8  C   UNL     1       3.475   3.512  16.130  0.00  0.00    +0.000 C 
ATOM      9  C   UNL     1       4.789   3.993  16.759  0.00  0.00    +0.000 C 
ATOM     10  C   UNL     1       5.841   5.522  18.442  0.00  0.00    +0.000 C 
ATOM     11  O   UNL     1       6.161   4.938  19.466  0.00  0.00    +0.000 OA
ENDROOT
BRANCH   1  12
ATOM     12  C   UNL     1       7.809   7.063  18.326  0.00  0.00    +0.000 C 
BRANCH  12  13
ATOM     13  C   UNL     1       8.309   8.285  17.559  0.00  0.00    +0.000 C 
BRANCH  13  15
ATOM     14  C   UNL     1       9.117   9.992  18.968  0.00  0.00    +0.000 C 
ATOM     15  O   UNL     1       7.978   9.460  18.306  0.00  0.00    +0.000 OA
ENDBRANCH  13  15
ENDBRANCH  12  13
ENDBRANCH   1  12
BRANCH   7  16
ATOM     16  C   UNL     1       2.668   2.165  17.987  0.00  0.00    +0.000 C 
BRANCH  16  17
ATOM     17  C   UNL     1       2.302   2.420  19.425  0.00  0.00    +0.000 A 
ATOM     18  C   UNL     1       1.052   2.636  19.972  0.00  0.00    +0.000 A 
ATOM     19  C   UNL     1       1.109   2.879  21.376  0.00  0.00    +0.000 A 
ATOM     20  C   UNL     1       2.397   2.815  21.857  0.00  0.00    +0.000 A 
ATOM     21  S   UNL     1       3.526   2.459  20.627  0.00  0.00    +0.000 S 
ENDBRANCH  16  17
ENDBRANCH   7  16
TORSDOF 5
ENDMDL
MODEL 9
REMARK VINA RESULT:      -5.3      2.796      3.635
REMARK  Name = 
REMARK  6 active torsions:
REMARK  status: ('A' for Active; 'I' for Inactive)
REMARK    1  A    between atoms: C_1  and  O_2
REMARK    2  A    between atoms: O_2  and  C_3
REMARK    3  A    between atoms: C_3  and  C_4
REMARK    4  A    between atoms: C_4  and  N_5
REMARK    5  A    between atoms: N_11  and  C_12
REMARK    6  A    between atoms: C_12  and  C_13
REMARK                            x       y       z     vdW  Elec       q    Type
REMARK                         _______ _______ _______ _____ _____    ______ ____
ROOT
ATOM      1  N   UNL     1       1.824   6.335  20.243  0.00  0.00    +0.000 N 
ATOM      2  C   UNL     1       1.970   4.964  20.656  0.00  0.00    +0.000 C 
ATOM      3  C   UNL     1       3.342   4.587  20.121  0.00  0.00    +0.000 C 
ATOM      4  C   UNL     1       3.516   5.460  18.859  0.00  0.00    +0.000 C 
ATOM      5  C   UNL     1       4.972   5.888  18.628  0.00  0.00    +0.000 C 
ATOM      6  C   UNL     1       5.811   4.776  18.006  0.00  0.00    +0.000 C 
ATOM      7  N   UNL     1       5.234   4.222  16.772  0.00  0.00    +0.000 NA
ATOM      8  C   UNL     1       3.880   3.716  17.042  0.00  0.00    +0.000 C 
ATOM      9  C   UNL     1       2.928   4.773  17.614  0.00  0.00    +0.000 C 
ATOM     10  C   UNL     1       2.677   6.684  19.215  0.00  0.00    +0.000 C 
ATOM     11  O   UNL     1       2.724   7.769  18.656  0.00  0.00    +0.000 OA
ENDROOT
BRANCH   1  12
ATOM     12  C   UNL     1       0.912   7.264  20.890  0.00  0.00    +0.000 C 
BRANCH  12  13
ATOM     13  C   UNL     1       1.607   8.448  21.559  0.00  0.00    +0.000 C 
BRANCH  13  15
ATOM     14  C   UNL     1      -0.085  10.033  21.982  0.00  0.00    +0.000 C 
ATOM     15  O   UNL     1       0.722   9.004  22.537  0.00  0.00    +0.000 OA
ENDBRANCH  13  15
ENDBRANCH  12  13
ENDBRANCH   1  12
BRANCH   7  16
ATOM     16  C   UNL     1       5.229   5.178  15.643  0.00  0.00    +0.000 C 
BRANCH  16  17
ATOM     17  C   UNL     1       5.729   4.576  14.357  0.00  0.00    +0.000 A 
ATOM     18  C   UNL     1       5.055   3.766  13.463  0.00  0.00    +0.000 A 
ATOM     19  C   UNL     1       5.877   3.361  12.371  0.00  0.00    +0.000 A 
ATOM     20  C   UNL     1       7.143   3.894  12.455  0.00  0.00    +0.000 A 
ATOM     21  S   UNL     1       7.335   4.881  13.836  0.00  0.00    +0.000 S 
ENDBRANCH  16  17
ENDBRANCH   7  16
TORSDOF 5
ENDMDL
