MODEL 1
REMARK VINA RESULT:      -8.1      0.000      0.000
REMARK  Name = 
REMARK  9 active torsions:
REMARK  status: ('A' for Active; 'I' for Inactive)
REMARK    1  A    between atoms: C_1  and  O_2
REMARK    2  A    between atoms: O_2  and  C_3
REMARK    3  A    between atoms: C_6  and  N_7
REMARK    4  A    between atoms: N_7  and  C_8
REMARK    5  A    between atoms: C_10  and  N_11
REMARK    6  A    between atoms: N_11  and  C_12
REMARK    7  A    between atoms: C_12  and  C_13
REMARK    8  A    between atoms: C_18  and  C_19
REMARK    9  A    between atoms: C_25  and  C_26
REMARK                            x       y       z     vdW  Elec       q    Type
REMARK                         _______ _______ _______ _____ _____    ______ ____
ROOT
ATOM      1  C   UNL     1       2.874   5.278  18.510  0.00  0.00    +0.000 A 
ATOM      2  C   UNL     1       2.793   6.508  19.203  0.00  0.00    +0.000 A 
ATOM      3  C   UNL     1       1.984   6.639  20.342  0.00  0.00    +0.000 A 
ATOM      4  N   UNL     1       1.221   5.630  20.777  0.00  0.00    +0.000 NA
ATOM      5  C   UNL     1       1.266   4.472  20.092  0.00  0.00    +0.000 A 
ATOM      6  C   UNL     1       2.043   4.246  18.969  0.00  0.00    +0.000 A 
ENDROOT
BRANCH   1   7
ATOM      7  N   UNL     1       3.711   5.226  17.372  0.00  0.00    +0.000 N 
ATOM      8  H   UNL     1       3.164   5.390  16.525  0.00  0.00    +0.000 HD
BRANCH   7  12
ATOM      9  C   UNL     1       7.176   5.718  16.720  0.00  0.00    +0.000 C 
ATOM     10  C   UNL     1       6.555   5.537  18.109  0.00  0.00    +0.000 C 
ATOM     11  C   UNL     1       5.808   4.217  18.238  0.00  0.00    +0.000 C 
ATOM     12  C   UNL     1       4.688   4.129  17.192  0.00  0.00    +0.000 C 
ATOM     13  C   UNL     1       5.340   4.189  15.803  0.00  0.00    +0.000 C 
ATOM     14  C   UNL     1       6.160   5.459  15.596  0.00  0.00    +0.000 C 
BRANCH   9  16
ATOM     15  C   UNL     1       7.702   7.830  17.721  0.00  0.00    +0.000 C 
ATOM     16  O   UNL     1       7.673   7.050  16.534  0.00  0.00    +0.000 OA
ENDBRANCH   9  16
ENDBRANCH   7  12
ENDBRANCH   1   7
BRANCH   3  17
ATOM     17  N   UNL     1       1.894   7.887  20.999  0.00  0.00    +0.000 N 
ATOM     18  H   UNL     1       2.863   8.189  21.131  0.00  0.00    +0.000 HD
BRANCH  17  19
ATOM     19  C   UNL     1       1.173   8.883  20.202  0.00  0.00    +0.000 C 
BRANCH  19  20
ATOM     20  C   UNL     1       0.330   9.774  21.086  0.00  0.00    +0.000 A 
ATOM     21  C   UNL     1       0.421   9.584  22.470  0.00  0.00    +0.000 A 
ATOM     22  N   UNL     1      -0.264  10.285  23.400  0.00  0.00    +0.000 NA
ATOM     23  C   UNL     1      -1.085  11.247  22.949  0.00  0.00    +0.000 A 
ATOM     24  C   UNL     1      -1.269  11.517  21.605  0.00  0.00    +0.000 A 
ATOM     25  C   UNL     1      -0.566  10.765  20.642  0.00  0.00    +0.000 A 
BRANCH  25  26
ATOM     26  C   UNL     1      -0.859  11.069  19.194  0.00  0.00    +0.000 C 
ATOM     27  F   UNL     1       0.211  11.470  18.455  0.00  0.00    +0.000 F 
ATOM     28  F   UNL     1      -1.365   9.983  18.543  0.00  0.00    +0.000 F 
ATOM     29  F   UNL     1      -1.796  12.048  19.049  0.00  0.00    +0.000 F 
ENDBRANCH  25  26
ENDBRANCH  19  20
ENDBRANCH  17  19
ENDBRANCH   3  17
BRANCH   6  30
ATOM     30  C   UNL     1       1.920   2.957  18.383  0.00  0.00    +0.000 C 
ATOM     31  N   UNL     1       1.770   1.897  17.917  0.00  0.00    +0.000 NA
ENDBRANCH   6  30
TORSDOF 8
ENDMDL
MODEL 2
REMARK VINA RESULT:      -7.9      1.123      1.954
REMARK  Name = 
REMARK  9 active torsions:
REMARK  status: ('A' for Active; 'I' for Inactive)
REMARK    1  A    between atoms: C_1  and  O_2
REMARK    2  A    between atoms: O_2  and  C_3
REMARK    3  A    between atoms: C_6  and  N_7
REMARK    4  A    between atoms: N_7  and  C_8
REMARK    5  A    between atoms: C_10  and  N_11
REMARK    6  A    between atoms: N_11  and  C_12
REMARK    7  A    between atoms: C_12  and  C_13
REMARK    8  A    between atoms: C_18  and  C_19
REMARK    9  A    between atoms: C_25  and  C_26
REMARK                            x       y       z     vdW  Elec       q    Type
REMARK                         _______ _______ _______ _____ _____    ______ ____
ROOT
ATOM      1  C   UNL     1       2.985   5.222  18.571  0.00  0.00    +0.000 A 
ATOM      2  C   UNL     1       2.721   6.376  19.345  0.00  0.00    +0.000 A 
ATOM      3  C   UNL     1       1.928   6.301  20.500  0.00  0.00    +0.000 A 
ATOM      4  N   UNL     1       1.350   5.154  20.877  0.00  0.00    +0.000 NA
ATOM      5  C   UNL     1       1.567   4.065  20.117  0.00  0.00    +0.000 A 
ATOM      6  C   UNL     1       2.344   4.041  18.972  0.00  0.00    +0.000 A 
ENDROOT
BRANCH   1   7
ATOM      7  N   UNL     1       3.792   5.380  17.422  0.00  0.00    +0.000 N 
ATOM      8  H   UNL     1       4.061   4.467  17.052  0.00  0.00    +0.000 HD
BRANCH   7  12
ATOM      9  C   UNL     1       6.713   4.992  15.424  0.00  0.00    +0.000 C 
ATOM     10  C   UNL     1       5.463   5.780  15.018  0.00  0.00    +0.000 C 
ATOM     11  C   UNL     1       5.146   6.901  16.000  0.00  0.00    +0.000 C 
ATOM     12  C   UNL     1       4.924   6.334  17.408  0.00  0.00    +0.000 C 
ATOM     13  C   UNL     1       6.229   5.652  17.848  0.00  0.00    +0.000 C 
ATOM     14  C   UNL     1       6.660   4.544  16.892  0.00  0.00    +0.000 C 
BRANCH   9  16
ATOM     15  C   UNL     1       6.081   3.791  13.449  0.00  0.00    +0.000 C 
ATOM     16  O   UNL     1       6.869   3.808  14.631  0.00  0.00    +0.000 OA
ENDBRANCH   9  16
ENDBRANCH   7  12
ENDBRANCH   1   7
BRANCH   3  17
ATOM     17  N   UNL     1       1.651   7.473  21.239  0.00  0.00    +0.000 N 
ATOM     18  H   UNL     1       2.532   7.707  21.706  0.00  0.00    +0.000 HD
BRANCH  17  19
ATOM     19  C   UNL     1       1.240   8.586  20.380  0.00  0.00    +0.000 C 
BRANCH  19  20
ATOM     20  C   UNL     1       0.424   9.594  21.157  0.00  0.00    +0.000 A 
ATOM     21  C   UNL     1       0.397   9.467  22.550  0.00  0.00    +0.000 A 
ATOM     22  N   UNL     1      -0.283  10.274  23.394  0.00  0.00    +0.000 NA
ATOM     23  C   UNL     1      -0.973  11.284  22.840  0.00  0.00    +0.000 A 
ATOM     24  C   UNL     1      -1.033  11.502  21.476  0.00  0.00    +0.000 A 
ATOM     25  C   UNL     1      -0.338  10.641  20.603  0.00  0.00    +0.000 A 
BRANCH  25  26
ATOM     26  C   UNL     1      -0.495  10.898  19.126  0.00  0.00    +0.000 C 
ATOM     27  F   UNL     1      -1.063   9.886  18.414  0.00  0.00    +0.000 F 
ATOM     28  F   UNL     1      -1.271  11.993  18.883  0.00  0.00    +0.000 F 
ATOM     29  F   UNL     1       0.696  11.155  18.515  0.00  0.00    +0.000 F 
ENDBRANCH  25  26
ENDBRANCH  19  20
ENDBRANCH  17  19
ENDBRANCH   3  17
BRANCH   6  30
ATOM     30  C   UNL     1       2.419   2.789  18.303  0.00  0.00    +0.000 C 
ATOM     31  N   UNL     1       2.454   1.781  17.715  0.00  0.00    +0.000 NA
ENDBRANCH   6  30
TORSDOF 8
ENDMDL
MODEL 3
REMARK VINA RESULT:      -7.9      2.744      4.269
REMARK  Name = 
REMARK  9 active torsions:
REMARK  status: ('A' for Active; 'I' for Inactive)
REMARK    1  A    between atoms: C_1  and  O_2
REMARK    2  A    between atoms: O_2  and  C_3
REMARK    3  A    between atoms: C_6  and  N_7
REMARK    4  A    between atoms: N_7  and  C_8
REMARK    5  A    between atoms: C_10  and  N_11
REMARK    6  A    between atoms: N_11  and  C_12
REMARK    7  A    between atoms: C_12  and  C_13
REMARK    8  A    between atoms: C_18  and  C_19
REMARK    9  A    between atoms: C_25  and  C_26
REMARK                            x       y       z     vdW  Elec       q    Type
REMARK                         _______ _______ _______ _____ _____    ______ ____
ROOT
ATOM      1  C   UNL     1       2.532   6.730  19.579  0.00  0.00    +0.000 A 
ATOM      2  C   UNL     1       1.709   7.724  20.157  0.00  0.00    +0.000 A 
ATOM      3  C   UNL     1       1.390   8.893  19.449  0.00  0.00    +0.000 A 
ATOM      4  N   UNL     1       1.895   9.133  18.234  0.00  0.00    +0.000 NA
ATOM      5  C   UNL     1       2.713   8.206  17.701  0.00  0.00    +0.000 A 
ATOM      6  C   UNL     1       3.071   7.020  18.318  0.00  0.00    +0.000 A 
ENDROOT
BRANCH   1   7
ATOM      7  N   UNL     1       2.808   5.581  20.356  0.00  0.00    +0.000 N 
ATOM      8  H   UNL     1       3.513   5.005  19.894  0.00  0.00    +0.000 HD
BRANCH   7  12
ATOM      9  C   UNL     1       2.320   2.128  19.641  0.00  0.00    +0.000 C 
ATOM     10  C   UNL     1       3.119   2.681  20.826  0.00  0.00    +0.000 C 
ATOM     11  C   UNL     1       2.273   3.577  21.721  0.00  0.00    +0.000 C 
ATOM     12  C   UNL     1       1.713   4.761  20.921  0.00  0.00    +0.000 C 
ATOM     13  C   UNL     1       0.817   4.192  19.811  0.00  0.00    +0.000 C 
ATOM     14  C   UNL     1       1.565   3.234  18.888  0.00  0.00    +0.000 C 
BRANCH   9  16
ATOM     15  C   UNL     1       3.516   2.293  17.571  0.00  0.00    +0.000 C 
ATOM     16  O   UNL     1       3.172   1.481  18.687  0.00  0.00    +0.000 OA
ENDBRANCH   9  16
ENDBRANCH   7  12
ENDBRANCH   1   7
BRANCH   3  17
ATOM     17  N   UNL     1       0.592   9.887  20.059  0.00  0.00    +0.000 N 
ATOM     18  H   UNL     1       1.144  10.218  20.856  0.00  0.00    +0.000 HD
BRANCH  17  19
ATOM     19  C   UNL     1       0.315  11.006  19.156  0.00  0.00    +0.000 C 
BRANCH  19  20
ATOM     20  C   UNL     1      -1.103  11.503  19.332  0.00  0.00    +0.000 A 
ATOM     21  C   UNL     1      -1.368  12.323  20.434  0.00  0.00    +0.000 A 
ATOM     22  N   UNL     1      -2.574  12.847  20.744  0.00  0.00    +0.000 NA
ATOM     23  C   UNL     1      -3.589  12.561  19.914  0.00  0.00    +0.000 A 
ATOM     24  C   UNL     1      -3.452  11.751  18.802  0.00  0.00    +0.000 A 
ATOM     25  C   UNL     1      -2.195  11.191  18.499  0.00  0.00    +0.000 A 
BRANCH  25  26
ATOM     26  C   UNL     1      -2.129  10.268  17.309  0.00  0.00    +0.000 C 
ATOM     27  F   UNL     1      -0.983   9.543  17.196  0.00  0.00    +0.000 F 
ATOM     28  F   UNL     1      -3.139   9.352  17.323  0.00  0.00    +0.000 F 
ATOM     29  F   UNL     1      -2.261  10.935  16.128  0.00  0.00    +0.000 F 
ENDBRANCH  25  26
ENDBRANCH  19  20
ENDBRANCH  17  19
ENDBRANCH   3  17
BRANCH   6  30
ATOM     30  C   UNL     1       3.969   6.193  17.589  0.00  0.00    +0.000 C 
ATOM     31  N   UNL     1       4.710   5.483  17.032  0.00  0.00    +0.000 NA
ENDBRANCH   6  30
TORSDOF 8
ENDMDL
MODEL 4
REMARK VINA RESULT:      -7.8      2.103      2.596
REMARK  Name = 
REMARK  9 active torsions:
REMARK  status: ('A' for Active; 'I' for Inactive)
REMARK    1  A    between atoms: C_1  and  O_2
REMARK    2  A    between atoms: O_2  and  C_3
REMARK    3  A    between atoms: C_6  and  N_7
REMARK    4  A    between atoms: N_7  and  C_8
REMARK    5  A    between atoms: C_10  and  N_11
REMARK    6  A    between atoms: N_11  and  C_12
REMARK    7  A    between atoms: C_12  and  C_13
REMARK    8  A    between atoms: C_18  and  C_19
REMARK    9  A    between atoms: C_25  and  C_26
REMARK                            x       y       z     vdW  Elec       q    Type
REMARK                         _______ _______ _______ _____ _____    ______ ____
ROOT
ATOM      1  C   UNL     1       3.561   4.551  19.422  0.00  0.00    +0.000 A 
ATOM      2  C   UNL     1       2.858   5.670  19.926  0.00  0.00    +0.000 A 
ATOM      3  C   UNL     1       1.568   5.527  20.459  0.00  0.00    +0.000 A 
ATOM      4  N   UNL     1       0.938   4.346  20.458  0.00  0.00    +0.000 NA
ATOM      5  C   UNL     1       1.592   3.290  19.940  0.00  0.00    +0.000 A 
ATOM      6  C   UNL     1       2.868   3.332  19.406  0.00  0.00    +0.000 A 
ENDROOT
BRANCH   1   7
ATOM      7  N   UNL     1       4.856   4.777  18.901  0.00  0.00    +0.000 N 
ATOM      8  H   UNL     1       5.291   5.572  19.371  0.00  0.00    +0.000 HD
BRANCH   7  12
ATOM      9  C   UNL     1       7.382   6.728  17.325  0.00  0.00    +0.000 C 
ATOM     10  C   UNL     1       7.543   5.272  17.778  0.00  0.00    +0.000 C 
ATOM     11  C   UNL     1       6.528   4.349  17.116  0.00  0.00    +0.000 C 
ATOM     12  C   UNL     1       5.098   4.802  17.441  0.00  0.00    +0.000 C 
ATOM     13  C   UNL     1       4.916   6.217  16.873  0.00  0.00    +0.000 C 
ATOM     14  C   UNL     1       5.928   7.209  17.438  0.00  0.00    +0.000 C 
BRANCH   9  16
ATOM     15  C   UNL     1       7.966   8.994  17.837  0.00  0.00    +0.000 C 
ATOM     16  O   UNL     1       8.179   7.617  18.118  0.00  0.00    +0.000 OA
ENDBRANCH   9  16
ENDBRANCH   7  12
ENDBRANCH   1   7
BRANCH   3  17
ATOM     17  N   UNL     1       0.872   6.665  20.927  0.00  0.00    +0.000 N 
ATOM     18  H   UNL     1       0.603   6.435  21.887  0.00  0.00    +0.000 HD
BRANCH  17  19
ATOM     19  C   UNL     1       1.709   7.867  20.925  0.00  0.00    +0.000 C 
BRANCH  19  20
ATOM     20  C   UNL     1       0.939   9.059  20.402  0.00  0.00    +0.000 A 
ATOM     21  C   UNL     1       1.167   9.443  19.075  0.00  0.00    +0.000 A 
ATOM     22  N   UNL     1       0.572  10.484  18.452  0.00  0.00    +0.000 NA
ATOM     23  C   UNL     1      -0.317  11.190  19.169  0.00  0.00    +0.000 A 
ATOM     24  C   UNL     1      -0.614  10.914  20.491  0.00  0.00    +0.000 A 
ATOM     25  C   UNL     1       0.029   9.840  21.139  0.00  0.00    +0.000 A 
BRANCH  25  26
ATOM     26  C   UNL     1      -0.295   9.632  22.597  0.00  0.00    +0.000 C 
ATOM     27  F   UNL     1       0.780   9.551  23.427  0.00  0.00    +0.000 F 
ATOM     28  F   UNL     1      -1.062  10.645  23.093  0.00  0.00    +0.000 F 
ATOM     29  F   UNL     1      -1.014   8.495  22.811  0.00  0.00    +0.000 F 
ENDBRANCH  25  26
ENDBRANCH  19  20
ENDBRANCH  17  19
ENDBRANCH   3  17
BRANCH   6  30
ATOM     30  C   UNL     1       3.361   2.105  18.887  0.00  0.00    +0.000 C 
ATOM     31  N   UNL     1       3.724   1.093  18.430  0.00  0.00    +0.000 NA
ENDBRANCH   6  30
TORSDOF 8
ENDMDL
MODEL 5
REMARK VINA RESULT:      -7.7      2.858      4.372
REMARK  Name = 
REMARK  9 active torsions:
REMARK  status: ('A' for Active; 'I' for Inactive)
REMARK    1  A    between atoms: C_1  and  O_2
REMARK    2  A    between atoms: O_2  and  C_3
REMARK    3  A    between atoms: C_6  and  N_7
REMARK    4  A    between atoms: N_7  and  C_8
REMARK    5  A    between atoms: C_10  and  N_11
REMARK    6  A    between atoms: N_11  and  C_12
REMARK    7  A    between atoms: C_12  and  C_13
REMARK    8  A    between atoms: C_18  and  C_19
REMARK    9  A    between atoms: C_25  and  C_26
REMARK                            x       y       z     vdW  Elec       q    Type
REMARK                         _______ _______ _______ _____ _____    ______ ____
ROOT
ATOM      1  C   UNL     1       2.665   6.711  19.357  0.00  0.00    +0.000 A 
ATOM      2  C   UNL     1       1.749   7.727  19.714  0.00  0.00    +0.000 A 
ATOM      3  C   UNL     1       1.494   8.801  18.847  0.00  0.00    +0.000 A 
ATOM      4  N   UNL     1       2.146   8.933  17.687  0.00  0.00    +0.000 NA
ATOM      5  C   UNL     1       3.049   7.988  17.366  0.00  0.00    +0.000 A 
ATOM      6  C   UNL     1       3.356   6.888  18.149  0.00  0.00    +0.000 A 
ENDROOT
BRANCH   1   7
ATOM      7  N   UNL     1       2.867   5.663  20.283  0.00  0.00    +0.000 N 
ATOM      8  H   UNL     1       3.642   5.071  19.981  0.00  0.00    +0.000 HD
BRANCH   7  12
ATOM      9  C   UNL     1       2.418   2.190  19.641  0.00  0.00    +0.000 C 
ATOM     10  C   UNL     1       3.130   2.778  20.864  0.00  0.00    +0.000 C 
ATOM     11  C   UNL     1       2.225   3.703  21.667  0.00  0.00    +0.000 C 
ATOM     12  C   UNL     1       1.730   4.863  20.791  0.00  0.00    +0.000 C 
ATOM     13  C   UNL     1       0.916   4.262  19.637  0.00  0.00    +0.000 C 
ATOM     14  C   UNL     1       1.725   3.275  18.801  0.00  0.00    +0.000 C 
BRANCH   9  16
ATOM     15  C   UNL     1       3.581   2.188  17.546  0.00  0.00    +0.000 C 
ATOM     16  O   UNL     1       3.335   1.513  18.772  0.00  0.00    +0.000 OA
ENDBRANCH   9  16
ENDBRANCH   7  12
ENDBRANCH   1   7
BRANCH   3  17
ATOM     17  N   UNL     1       0.598   9.822  19.240  0.00  0.00    +0.000 N 
ATOM     18  H   UNL     1      -0.149   9.340  19.747  0.00  0.00    +0.000 HD
BRANCH  17  19
ATOM     19  C   UNL     1       1.232  10.808  20.119  0.00  0.00    +0.000 C 
BRANCH  19  20
ATOM     20  C   UNL     1       0.224  11.401  21.078  0.00  0.00    +0.000 A 
ATOM     21  C   UNL     1      -0.222  12.702  20.822  0.00  0.00    +0.000 A 
ATOM     22  N   UNL     1      -1.112  13.384  21.577  0.00  0.00    +0.000 NA
ATOM     23  C   UNL     1      -1.611  12.746  22.648  0.00  0.00    +0.000 A 
ATOM     24  C   UNL     1      -1.235  11.465  23.009  0.00  0.00    +0.000 A 
ATOM     25  C   UNL     1      -0.289  10.771  22.228  0.00  0.00    +0.000 A 
BRANCH  25  26
ATOM     26  C   UNL     1       0.121   9.403  22.711  0.00  0.00    +0.000 C 
ATOM     27  F   UNL     1      -0.469   8.357  22.073  0.00  0.00    +0.000 F 
ATOM     28  F   UNL     1       1.463   9.202  22.575  0.00  0.00    +0.000 F 
ATOM     29  F   UNL     1      -0.139   9.222  24.036  0.00  0.00    +0.000 F 
ENDBRANCH  25  26
ENDBRANCH  19  20
ENDBRANCH  17  19
ENDBRANCH   3  17
BRANCH   6  30
ATOM     30  C   UNL     1       4.362   6.026  17.635  0.00  0.00    +0.000 C 
ATOM     31  N   UNL     1       5.200   5.353  17.178  0.00  0.00    +0.000 NA
ENDBRANCH   6  30
TORSDOF 8
ENDMDL
MODEL 6
REMARK VINA RESULT:      -7.7      1.478      2.086
REMARK  Name = 
REMARK  9 active torsions:
REMARK  status: ('A' for Active; 'I' for Inactive)
REMARK    1  A    between atoms: C_1  and  O_2
REMARK    2  A    between atoms: O_2  and  C_3
REMARK    3  A    between atoms: C_6  and  N_7
REMARK    4  A    between atoms: N_7  and  C_8
REMARK    5  A    between atoms: C_10  and  N_11
REMARK    6  A    between atoms: N_11  and  C_12
REMARK    7  A    between atoms: C_12  and  C_13
REMARK    8  A    between atoms: C_18  and  C_19
REMARK    9  A    between atoms: C_25  and  C_26
REMARK                            x       y       z     vdW  Elec       q    Type
REMARK                         _______ _______ _______ _____ _____    ______ ____
ROOT
ATOM      1  C   UNL     1       3.331   4.578  18.857  0.00  0.00    +0.000 A 
ATOM      2  C   UNL     1       2.678   5.695  19.429  0.00  0.00    +0.000 A 
ATOM      3  C   UNL     1       1.773   5.533  20.489  0.00  0.00    +0.000 A 
ATOM      4  N   UNL     1       1.453   4.321  20.956  0.00  0.00    +0.000 NA
ATOM      5  C   UNL     1       2.043   3.254  20.384  0.00  0.00    +0.000 A 
ATOM      6  C   UNL     1       2.957   3.318  19.346  0.00  0.00    +0.000 A 
ENDROOT
BRANCH   1   7
ATOM      7  N   UNL     1       4.229   4.823  17.794  0.00  0.00    +0.000 N 
ATOM      8  H   UNL     1       4.654   3.948  17.484  0.00  0.00    +0.000 HD
BRANCH   7  12
ATOM      9  C   UNL     1       6.881   5.285  15.465  0.00  0.00    +0.000 C 
ATOM     10  C   UNL     1       5.499   5.939  15.371  0.00  0.00    +0.000 C 
ATOM     11  C   UNL     1       5.177   6.782  16.598  0.00  0.00    +0.000 C 
ATOM     12  C   UNL     1       5.219   5.920  17.868  0.00  0.00    +0.000 C 
ATOM     13  C   UNL     1       6.646   5.371  18.012  0.00  0.00    +0.000 C 
ATOM     14  C   UNL     1       7.083   4.552  16.800  0.00  0.00    +0.000 C 
BRANCH   9  16
ATOM     15  C   UNL     1       5.875   3.850  13.831  0.00  0.00    +0.000 C 
ATOM     16  O   UNL     1       7.079   4.318  14.425  0.00  0.00    +0.000 OA
ENDBRANCH   9  16
ENDBRANCH   7  12
ENDBRANCH   1   7
BRANCH   3  17
ATOM     17  N   UNL     1       1.108   6.660  21.022  0.00  0.00    +0.000 N 
ATOM     18  H   UNL     1       1.086   6.502  22.033  0.00  0.00    +0.000 HD
BRANCH  17  19
ATOM     19  C   UNL     1       1.817   7.910  20.735  0.00  0.00    +0.000 C 
BRANCH  19  20
ATOM     20  C   UNL     1       0.991   9.106  21.151  0.00  0.00    +0.000 A 
ATOM     21  C   UNL     1       0.688   9.241  22.510  0.00  0.00    +0.000 A 
ATOM     22  N   UNL     1      -0.042  10.242  23.050  0.00  0.00    +0.000 NA
ATOM     23  C   UNL     1      -0.494  11.184  22.207  0.00  0.00    +0.000 A 
ATOM     24  C   UNL     1      -0.271  11.150  20.844  0.00  0.00    +0.000 A 
ATOM     25  C   UNL     1       0.472  10.090  20.286  0.00  0.00    +0.000 A 
BRANCH  25  26
ATOM     26  C   UNL     1       0.627  10.081  18.787  0.00  0.00    +0.000 C 
ATOM     27  F   UNL     1       1.605  10.890  18.296  0.00  0.00    +0.000 F 
ATOM     28  F   UNL     1       0.918   8.833  18.317  0.00  0.00    +0.000 F 
ATOM     29  F   UNL     1      -0.516  10.452  18.145  0.00  0.00    +0.000 F 
ENDBRANCH  25  26
ENDBRANCH  19  20
ENDBRANCH  17  19
ENDBRANCH   3  17
BRANCH   6  30
ATOM     30  C   UNL     1       3.438   2.068  18.871  0.00  0.00    +0.000 C 
ATOM     31  N   UNL     1       3.794   1.018  18.504  0.00  0.00    +0.000 NA
ENDBRANCH   6  30
TORSDOF 8
ENDMDL
MODEL 7
REMARK VINA RESULT:      -7.7      4.483      9.132
REMARK  Name = 
REMARK  9 active torsions:
REMARK  status: ('A' for Active; 'I' for Inactive)
REMARK    1  A    between atoms: C_1  and  O_2
REMARK    2  A    between atoms: O_2  and  C_3
REMARK    3  A    between atoms: C_6  and  N_7
REMARK    4  A    between atoms: N_7  and  C_8
REMARK    5  A    between atoms: C_10  and  N_11
REMARK    6  A    between atoms: N_11  and  C_12
REMARK    7  A    between atoms: C_12  and  C_13
REMARK    8  A    between atoms: C_18  and  C_19
REMARK    9  A    between atoms: C_25  and  C_26
REMARK                            x       y       z     vdW  Elec       q    Type
REMARK                         _______ _______ _______ _____ _____    ______ ____
ROOT
ATOM      1  C   UNL     1      -0.450  10.287  18.254  0.00  0.00    +0.000 A 
ATOM      2  C   UNL     1       0.623   9.479  17.810  0.00  0.00    +0.000 A 
ATOM      3  C   UNL     1       1.614   9.046  18.703  0.00  0.00    +0.000 A 
ATOM      4  N   UNL     1       1.612   9.425  19.986  0.00  0.00    +0.000 NA
ATOM      5  C   UNL     1       0.614  10.228  20.400  0.00  0.00    +0.000 A 
ATOM      6  C   UNL     1      -0.412  10.693  19.596  0.00  0.00    +0.000 A 
ENDROOT
BRANCH   1   7
ATOM      7  N   UNL     1      -1.408  10.682  17.293  0.00  0.00    +0.000 N 
ATOM      8  H   UNL     1      -1.891  11.526  17.605  0.00  0.00    +0.000 HD
BRANCH   7  12
ATOM      9  C   UNL     1      -4.853  11.325  16.668  0.00  0.00    +0.000 C 
ATOM     10  C   UNL     1      -3.719  11.526  15.658  0.00  0.00    +0.000 C 
ATOM     11  C   UNL     1      -2.947  10.240  15.395  0.00  0.00    +0.000 C 
ATOM     12  C   UNL     1      -2.343   9.700  16.699  0.00  0.00    +0.000 C 
ATOM     13  C   UNL     1      -3.503   9.389  17.656  0.00  0.00    +0.000 C 
ATOM     14  C   UNL     1      -4.371  10.611  17.941  0.00  0.00    +0.000 C 
BRANCH   9  16
ATOM     15  C   UNL     1      -6.734  12.469  17.613  0.00  0.00    +0.000 C 
ATOM     16  O   UNL     1      -5.420  12.575  17.081  0.00  0.00    +0.000 OA
ENDBRANCH   9  16
ENDBRANCH   7  12
ENDBRANCH   1   7
BRANCH   3  17
ATOM     17  N   UNL     1       2.695   8.268  18.230  0.00  0.00    +0.000 N 
ATOM     18  H   UNL     1       3.531   8.700  18.634  0.00  0.00    +0.000 HD
BRANCH  17  19
ATOM     19  C   UNL     1       2.605   6.872  18.664  0.00  0.00    +0.000 C 
BRANCH  19  20
ATOM     20  C   UNL     1       3.549   5.998  17.869  0.00  0.00    +0.000 A 
ATOM     21  C   UNL     1       4.740   6.577  17.418  0.00  0.00    +0.000 A 
ATOM     22  N   UNL     1       5.689   5.945  16.693  0.00  0.00    +0.000 NA
ATOM     23  C   UNL     1       5.466   4.654  16.400  0.00  0.00    +0.000 A 
ATOM     24  C   UNL     1       4.321   3.978  16.779  0.00  0.00    +0.000 A 
ATOM     25  C   UNL     1       3.326   4.653  17.516  0.00  0.00    +0.000 A 
BRANCH  25  26
ATOM     26  C   UNL     1       2.077   3.876  17.844  0.00  0.00    +0.000 C 
ATOM     27  F   UNL     1       1.797   3.754  19.170  0.00  0.00    +0.000 F 
ATOM     28  F   UNL     1       0.968   4.446  17.290  0.00  0.00    +0.000 F 
ATOM     29  F   UNL     1       2.113   2.605  17.355  0.00  0.00    +0.000 F 
ENDBRANCH  25  26
ENDBRANCH  19  20
ENDBRANCH  17  19
ENDBRANCH   3  17
BRANCH   6  30
ATOM     30  C   UNL     1      -1.350  11.553  20.228  0.00  0.00    +0.000 C 
ATOM     31  N   UNL     1      -2.089  12.299  20.739  0.00  0.00    +0.000 NA
ENDBRANCH   6  30
TORSDOF 8
ENDMDL
MODEL 8
REMARK VINA RESULT:      -7.7      2.640      4.237
REMARK  Name = 
REMARK  9 active torsions:
REMARK  status: ('A' for Active; 'I' for Inactive)
REMARK    1  A    between atoms: C_1  and  O_2
REMARK    2  A    between atoms: O_2  and  C_3
REMARK    3  A    between atoms: C_6  and  N_7
REMARK    4  A    between atoms: N_7  and  C_8
REMARK    5  A    between atoms: C_10  and  N_11
REMARK    6  A    between atoms: N_11  and  C_12
REMARK    7  A    between atoms: C_12  and  C_13
REMARK    8  A    between atoms: C_18  and  C_19
REMARK    9  A    between atoms: C_25  and  C_26
REMARK                            x       y       z     vdW  Elec       q    Type
REMARK                         _______ _______ _______ _____ _____    ______ ____
ROOT
ATOM      1  C   UNL     1       2.474   6.568  19.920  0.00  0.00    +0.000 A 
ATOM      2  C   UNL     1       1.734   7.462  20.729  0.00  0.00    +0.000 A 
ATOM      3  C   UNL     1       1.302   8.698  20.224  0.00  0.00    +0.000 A 
ATOM      4  N   UNL     1       1.622   9.097  18.987  0.00  0.00    +0.000 NA
ATOM      5  C   UNL     1       2.362   8.265  18.232  0.00  0.00    +0.000 A 
ATOM      6  C   UNL     1       2.819   7.023  18.639  0.00  0.00    +0.000 A 
ENDROOT
BRANCH   1   7
ATOM      7  N   UNL     1       2.872   5.343  20.501  0.00  0.00    +0.000 N 
ATOM      8  H   UNL     1       3.526   4.857  19.885  0.00  0.00    +0.000 HD
BRANCH   7  12
ATOM      9  C   UNL     1       2.135   2.113  19.198  0.00  0.00    +0.000 C 
ATOM     10  C   UNL     1       3.165   2.410  20.294  0.00  0.00    +0.000 C 
ATOM     11  C   UNL     1       2.538   3.094  21.501  0.00  0.00    +0.000 C 
ATOM     12  C   UNL     1       1.878   4.416  21.087  0.00  0.00    +0.000 C 
ATOM     13  C   UNL     1       0.766   4.087  20.079  0.00  0.00    +0.000 C 
ATOM     14  C   UNL     1       1.290   3.348  18.851  0.00  0.00    +0.000 C 
BRANCH   9  16
ATOM     15  C   UNL     1       3.933   2.421  17.645  0.00  0.00    +0.000 C 
ATOM     16  O   UNL     1       2.766   1.685  17.984  0.00  0.00    +0.000 OA
ENDBRANCH   9  16
ENDBRANCH   7  12
ENDBRANCH   1   7
BRANCH   3  17
ATOM     17  N   UNL     1       0.593   9.589  21.061  0.00  0.00    +0.000 N 
ATOM     18  H   UNL     1       1.205  10.403  21.162  0.00  0.00    +0.000 HD
BRANCH  17  19
ATOM     19  C   UNL     1      -0.683  10.004  20.473  0.00  0.00    +0.000 C 
BRANCH  19  20
ATOM     20  C   UNL     1      -0.557  11.359  19.812  0.00  0.00    +0.000 A 
ATOM     21  C   UNL     1       0.061  12.379  20.544  0.00  0.00    +0.000 A 
ATOM     22  N   UNL     1       0.250  13.645  20.110  0.00  0.00    +0.000 NA
ATOM     23  C   UNL     1      -0.181  13.930  18.871  0.00  0.00    +0.000 A 
ATOM     24  C   UNL     1      -0.818  13.009  18.060  0.00  0.00    +0.000 A 
ATOM     25  C   UNL     1      -1.031  11.697  18.530  0.00  0.00    +0.000 A 
BRANCH  25  26
ATOM     26  C   UNL     1      -1.785  10.762  17.620  0.00  0.00    +0.000 C 
ATOM     27  F   UNL     1      -2.912  10.213  18.151  0.00  0.00    +0.000 F 
ATOM     28  F   UNL     1      -2.188  11.386  16.476  0.00  0.00    +0.000 F 
ATOM     29  F   UNL     1      -1.021   9.711  17.209  0.00  0.00    +0.000 F 
ENDBRANCH  25  26
ENDBRANCH  19  20
ENDBRANCH  17  19
ENDBRANCH   3  17
BRANCH   6  30
ATOM     30  C   UNL     1       3.609   6.316  17.693  0.00  0.00    +0.000 C 
ATOM     31  N   UNL     1       4.295   5.771  16.921  0.00  0.00    +0.000 NA
ENDBRANCH   6  30
TORSDOF 8
ENDMDL
MODEL 9
REMARK VINA RESULT:      -7.7      0.963      1.171
REMARK  Name = 
REMARK  9 active torsions:
REMARK  status: ('A' for Active; 'I' for Inactive)
REMARK    1  A    between atoms: C_1  and  O_2
REMARK    2  A    between atoms: O_2  and  C_3
REMARK    3  A    between atoms: C_6  and  N_7
REMARK    4  A    between atoms: N_7  and  C_8
REMARK    5  A    between atoms: C_10  and  N_11
REMARK    6  A    between atoms: N_11  and  C_12
REMARK    7  A    between atoms: C_12  and  C_13
REMARK    8  A    between atoms: C_18  and  C_19
REMARK    9  A    between atoms: C_25  and  C_26
REMARK                            x       y       z     vdW  Elec       q    Type
REMARK                         _______ _______ _______ _____ _____    ______ ____
ROOT
ATOM      1  C   UNL     1       3.246   4.790  18.688  0.00  0.00    +0.000 A 
ATOM      2  C   UNL     1       2.820   5.969  19.343  0.00  0.00    +0.000 A 
ATOM      3  C   UNL     1       2.177   5.906  20.589  0.00  0.00    +0.000 A 
ATOM      4  N   UNL     1       1.894   4.734  21.170  0.00  0.00    +0.000 NA
ATOM      5  C   UNL     1       2.261   3.611  20.526  0.00  0.00    +0.000 A 
ATOM      6  C   UNL     1       2.911   3.576  19.304  0.00  0.00    +0.000 A 
ENDROOT
BRANCH   1   7
ATOM      7  N   UNL     1       3.886   4.937  17.436  0.00  0.00    +0.000 N 
ATOM      8  H   UNL     1       3.205   4.852  16.680  0.00  0.00    +0.000 HD
BRANCH   7  12
ATOM      9  C   UNL     1       7.048   6.509  16.981  0.00  0.00    +0.000 C 
ATOM     10  C   UNL     1       6.522   5.948  18.307  0.00  0.00    +0.000 C 
ATOM     11  C   UNL     1       6.196   4.464  18.215  0.00  0.00    +0.000 C 
ATOM     12  C   UNL     1       5.140   4.211  17.131  0.00  0.00    +0.000 C 
ATOM     13  C   UNL     1       5.731   4.667  15.788  0.00  0.00    +0.000 C 
ATOM     14  C   UNL     1       6.140   6.137  15.798  0.00  0.00    +0.000 C 
BRANCH   9  16
ATOM     15  C   UNL     1       8.126   8.446  17.889  0.00  0.00    +0.000 C 
ATOM     16  O   UNL     1       7.131   7.939  17.009  0.00  0.00    +0.000 OA
ENDBRANCH   9  16
ENDBRANCH   7  12
ENDBRANCH   1   7
BRANCH   3  17
ATOM     17  N   UNL     1       1.732   7.095  21.210  0.00  0.00    +0.000 N 
ATOM     18  H   UNL     1       2.485   7.358  21.851  0.00  0.00    +0.000 HD
BRANCH  17  19
ATOM     19  C   UNL     1       1.509   8.174  20.245  0.00  0.00    +0.000 C 
BRANCH  19  20
ATOM     20  C   UNL     1       0.787   9.335  20.892  0.00  0.00    +0.000 A 
ATOM     21  C   UNL     1       0.606   9.290  22.279  0.00  0.00    +0.000 A 
ATOM     22  N   UNL     1      -0.020  10.236  23.014  0.00  0.00    +0.000 NA
ATOM     23  C   UNL     1      -0.487  11.306  22.351  0.00  0.00    +0.000 A 
ATOM     24  C   UNL     1      -0.379  11.455  20.981  0.00  0.00    +0.000 A 
ATOM     25  C   UNL     1       0.255  10.452  20.220  0.00  0.00    +0.000 A 
BRANCH  25  26
ATOM     26  C   UNL     1       0.284  10.647  18.726  0.00  0.00    +0.000 C 
ATOM     27  F   UNL     1      -0.152  11.859  18.286  0.00  0.00    +0.000 F 
ATOM     28  F   UNL     1       1.545  10.512  18.224  0.00  0.00    +0.000 F 
ATOM     29  F   UNL     1      -0.469   9.723  18.066  0.00  0.00    +0.000 F 
ENDBRANCH  25  26
ENDBRANCH  19  20
ENDBRANCH  17  19
ENDBRANCH   3  17
BRANCH   6  30
ATOM     30  C   UNL     1       3.183   2.280  18.788  0.00  0.00    +0.000 C 
ATOM     31  N   UNL     1       3.386   1.196  18.406  0.00  0.00    +0.000 NA
ENDBRANCH   6  30
TORSDOF 8
ENDMDL
