MODEL 1
REMARK VINA RESULT:      -9.1      0.000      0.000
REMARK  Name = 
REMARK  5 active torsions:
REMARK  status: ('A' for Active; 'I' for Inactive)
REMARK    1  A    between atoms: N_1  and  C_2
REMARK    2  A    between atoms: C_2  and  C_3
REMARK    3  A    between atoms: C_10  and  C_11
REMARK    4  A    between atoms: C_11  and  O_13
REMARK    5  A    between atoms: O_13  and  C_14
REMARK                            x       y       z     vdW  Elec       q    Type
REMARK                         _______ _______ _______ _____ _____    ______ ____
ROOT
ATOM      1  C   UNL     1       6.058   3.320  12.398  0.00  0.00    +0.000 A 
ATOM      2  C   UNL     1       7.110   4.202  12.104  0.00  0.00    +0.000 A 
ATOM      3  C   UNL     1       7.626   5.041  13.093  0.00  0.00    +0.000 A 
ATOM      4  C   UNL     1       7.081   4.998  14.372  0.00  0.00    +0.000 A 
ATOM      5  O   UNL     1       7.635   5.845  15.349  0.00  0.00    +0.000 OA
ATOM      6  C   UNL     1       7.185   5.849  16.667  0.00  0.00    +0.000 A 
ATOM      7  O   UNL     1       7.775   6.504  17.518  0.00  0.00    +0.000 OA
ATOM      8  C   UNL     1       5.999   5.013  16.969  0.00  0.00    +0.000 A 
ATOM      9  C   UNL     1       5.479   4.193  16.037  0.00  0.00    +0.000 A 
ATOM     10  C   UNL     1       6.033   4.146  14.692  0.00  0.00    +0.000 A 
ATOM     11  C   UNL     1       5.528   3.297  13.703  0.00  0.00    +0.000 A 
ENDROOT
BRANCH   8  12
ATOM     12  C   UNL     1       5.362   4.975  18.309  0.00  0.00    +0.000 C 
ATOM     13  O   UNL     1       5.906   4.495  19.297  0.00  0.00    +0.000 OA
BRANCH  12  14
ATOM     14  O   UNL     1       4.091   5.529  18.277  0.00  0.00    +0.000 OA
BRANCH  14  15
ATOM     15  C   UNL     1       3.045   4.899  18.983  0.00  0.00    +0.000 A 
ATOM     16  C   UNL     1       2.557   5.413  20.186  0.00  0.00    +0.000 A 
ATOM     17  C   UNL     1       1.449   4.824  20.797  0.00  0.00    +0.000 A 
ATOM     18  C   UNL     1       0.821   3.737  20.193  0.00  0.00    +0.000 A 
ATOM     19  C   UNL     1       1.306   3.248  18.984  0.00  0.00    +0.000 A 
ATOM     20  F   UNL     1       0.681   2.216  18.400  0.00  0.00    +0.000 F 
ATOM     21  C   UNL     1       2.414   3.821  18.363  0.00  0.00    +0.000 A 
ENDBRANCH  14  15
ENDBRANCH  12  14
ENDBRANCH   8  12
BRANCH   1  22
ATOM     22  C   UNL     1       5.506   2.406  11.331  0.00  0.00    +0.000 C 
BRANCH  22  23
ATOM     23  N   UNL     1       6.108   1.081  11.408  0.00  0.00    +0.000 NA
ATOM     24  H   UNL     1       5.753   0.599  12.232  0.00  0.00    +0.000 HD
ATOM     25  H   UNL     1       7.113   1.184  11.549  0.00  0.00    +0.000 HD
ENDBRANCH  22  23
ENDBRANCH   1  22
TORSDOF 5
ENDMDL
MODEL 2
REMARK VINA RESULT:      -9.0      0.919      1.305
REMARK  Name = 
REMARK  5 active torsions:
REMARK  status: ('A' for Active; 'I' for Inactive)
REMARK    1  A    between atoms: N_1  and  C_2
REMARK    2  A    between atoms: C_2  and  C_3
REMARK    3  A    between atoms: C_10  and  C_11
REMARK    4  A    between atoms: C_11  and  O_13
REMARK    5  A    between atoms: O_13  and  C_14
REMARK                            x       y       z     vdW  Elec       q    Type
REMARK                         _______ _______ _______ _____ _____    ______ ____
ROOT
ATOM      1  C   UNL     1       6.037   3.380  12.499  0.00  0.00    +0.000 A 
ATOM      2  C   UNL     1       7.052   4.309  12.223  0.00  0.00    +0.000 A 
ATOM      3  C   UNL     1       7.552   5.132  13.234  0.00  0.00    +0.000 A 
ATOM      4  C   UNL     1       7.025   5.027  14.516  0.00  0.00    +0.000 A 
ATOM      5  O   UNL     1       7.560   5.860  15.515  0.00  0.00    +0.000 OA
ATOM      6  C   UNL     1       7.128   5.804  16.838  0.00  0.00    +0.000 A 
ATOM      7  O   UNL     1       7.705   6.452  17.703  0.00  0.00    +0.000 OA
ATOM      8  C   UNL     1       5.977   4.916  17.125  0.00  0.00    +0.000 A 
ATOM      9  C   UNL     1       5.474   4.110  16.172  0.00  0.00    +0.000 A 
ATOM     10  C   UNL     1       6.012   4.128  14.820  0.00  0.00    +0.000 A 
ATOM     11  C   UNL     1       5.524   3.294  13.808  0.00  0.00    +0.000 A 
ENDROOT
BRANCH   8  12
ATOM     12  C   UNL     1       5.359   4.811  18.471  0.00  0.00    +0.000 C 
ATOM     13  O   UNL     1       5.895   4.238  19.412  0.00  0.00    +0.000 OA
BRANCH  12  14
ATOM     14  O   UNL     1       4.114   5.421  18.501  0.00  0.00    +0.000 OA
BRANCH  14  15
ATOM     15  C   UNL     1       2.984   4.667  18.883  0.00  0.00    +0.000 A 
ATOM     16  C   UNL     1       2.176   4.028  17.940  0.00  0.00    +0.000 A 
ATOM     17  C   UNL     1       1.133   3.201  18.363  0.00  0.00    +0.000 A 
ATOM     18  C   UNL     1       0.917   3.001  19.724  0.00  0.00    +0.000 A 
ATOM     19  C   UNL     1       1.744   3.628  20.652  0.00  0.00    +0.000 A 
ATOM     20  F   UNL     1       1.541   3.412  21.959  0.00  0.00    +0.000 F 
ATOM     21  C   UNL     1       2.785   4.461  20.246  0.00  0.00    +0.000 A 
ENDBRANCH  14  15
ENDBRANCH  12  14
ENDBRANCH   8  12
BRANCH   1  22
ATOM     22  C   UNL     1       5.503   2.483  11.408  0.00  0.00    +0.000 C 
BRANCH  22  23
ATOM     23  N   UNL     1       6.206   1.206  11.386  0.00  0.00    +0.000 NA
ATOM     24  H   UNL     1       6.013   0.702  12.249  0.00  0.00    +0.000 HD
ATOM     25  H   UNL     1       7.210   1.383  11.377  0.00  0.00    +0.000 HD
ENDBRANCH  22  23
ENDBRANCH   1  22
TORSDOF 5
ENDMDL
MODEL 3
REMARK VINA RESULT:      -8.5      1.067      1.588
REMARK  Name = 
REMARK  5 active torsions:
REMARK  status: ('A' for Active; 'I' for Inactive)
REMARK    1  A    between atoms: N_1  and  C_2
REMARK    2  A    between atoms: C_2  and  C_3
REMARK    3  A    between atoms: C_10  and  C_11
REMARK    4  A    between atoms: C_11  and  O_13
REMARK    5  A    between atoms: O_13  and  C_14
REMARK                            x       y       z     vdW  Elec       q    Type
REMARK                         _______ _______ _______ _____ _____    ______ ____
ROOT
ATOM      1  C   UNL     1       5.920   3.390  12.440  0.00  0.00    +0.000 A 
ATOM      2  C   UNL     1       7.194   3.957  12.275  0.00  0.00    +0.000 A 
ATOM      3  C   UNL     1       7.730   4.789  13.259  0.00  0.00    +0.000 A 
ATOM      4  C   UNL     1       6.984   5.057  14.401  0.00  0.00    +0.000 A 
ATOM      5  O   UNL     1       7.560   5.888  15.380  0.00  0.00    +0.000 OA
ATOM      6  C   UNL     1       6.910   6.186  16.575  0.00  0.00    +0.000 A 
ATOM      7  O   UNL     1       7.493   6.805  17.457  0.00  0.00    +0.000 OA
ATOM      8  C   UNL     1       5.518   5.696  16.717  0.00  0.00    +0.000 A 
ATOM      9  C   UNL     1       4.974   4.890  15.786  0.00  0.00    +0.000 A 
ATOM     10  C   UNL     1       5.716   4.524  14.590  0.00  0.00    +0.000 A 
ATOM     11  C   UNL     1       5.188   3.678  13.609  0.00  0.00    +0.000 A 
ENDROOT
BRANCH   8  12
ATOM     12  C   UNL     1       4.676   5.999  17.900  0.00  0.00    +0.000 C 
ATOM     13  O   UNL     1       4.031   7.035  18.017  0.00  0.00    +0.000 OA
BRANCH  12  14
ATOM     14  O   UNL     1       4.739   4.978  18.837  0.00  0.00    +0.000 OA
BRANCH  14  15
ATOM     15  C   UNL     1       3.665   4.070  18.942  0.00  0.00    +0.000 A 
ATOM     16  C   UNL     1       3.787   2.739  18.537  0.00  0.00    +0.000 A 
ATOM     17  C   UNL     1       2.738   1.845  18.759  0.00  0.00    +0.000 A 
ATOM     18  C   UNL     1       1.582   2.279  19.403  0.00  0.00    +0.000 A 
ATOM     19  C   UNL     1       1.483   3.603  19.820  0.00  0.00    +0.000 A 
ATOM     20  F   UNL     1       0.375   4.006  20.458  0.00  0.00    +0.000 F 
ATOM     21  C   UNL     1       2.518   4.510  19.601  0.00  0.00    +0.000 A 
ENDBRANCH  14  15
ENDBRANCH  12  14
ENDBRANCH   8  12
BRANCH   1  22
ATOM     22  C   UNL     1       5.343   2.482  11.381  0.00  0.00    +0.000 C 
BRANCH  22  23
ATOM     23  N   UNL     1       6.089   1.233  11.295  0.00  0.00    +0.000 NA
ATOM     24  H   UNL     1       5.440   0.467  11.124  0.00  0.00    +0.000 HD
ATOM     25  H   UNL     1       6.521   1.044  12.200  0.00  0.00    +0.000 HD
ENDBRANCH  22  23
ENDBRANCH   1  22
TORSDOF 5
ENDMDL
MODEL 4
REMARK VINA RESULT:      -8.3      0.989      1.201
REMARK  Name = 
REMARK  5 active torsions:
REMARK  status: ('A' for Active; 'I' for Inactive)
REMARK    1  A    between atoms: N_1  and  C_2
REMARK    2  A    between atoms: C_2  and  C_3
REMARK    3  A    between atoms: C_10  and  C_11
REMARK    4  A    between atoms: C_11  and  O_13
REMARK    5  A    between atoms: O_13  and  C_14
REMARK                            x       y       z     vdW  Elec       q    Type
REMARK                         _______ _______ _______ _____ _____    ______ ____
ROOT
ATOM      1  C   UNL     1       6.014   3.416  12.465  0.00  0.00    +0.000 A 
ATOM      2  C   UNL     1       7.159   4.180  12.193  0.00  0.00    +0.000 A 
ATOM      3  C   UNL     1       7.706   5.009  13.174  0.00  0.00    +0.000 A 
ATOM      4  C   UNL     1       7.098   5.075  14.422  0.00  0.00    +0.000 A 
ATOM      5  O   UNL     1       7.683   5.909  15.393  0.00  0.00    +0.000 OA
ATOM      6  C   UNL     1       7.172   6.015  16.685  0.00  0.00    +0.000 A 
ATOM      7  O   UNL     1       7.780   6.648  17.539  0.00  0.00    +0.000 OA
ATOM      8  C   UNL     1       5.897   5.310  16.956  0.00  0.00    +0.000 A 
ATOM      9  C   UNL     1       5.346   4.502  16.031  0.00  0.00    +0.000 A 
ATOM     10  C   UNL     1       5.957   4.343  14.721  0.00  0.00    +0.000 A 
ATOM     11  C   UNL     1       5.421   3.502  13.740  0.00  0.00    +0.000 A 
ENDROOT
BRANCH   8  12
ATOM     12  C   UNL     1       5.195   5.393  18.261  0.00  0.00    +0.000 C 
ATOM     13  O   UNL     1       5.781   5.453  19.336  0.00  0.00    +0.000 OA
BRANCH  12  14
ATOM     14  O   UNL     1       3.818   5.372  18.093  0.00  0.00    +0.000 OA
BRANCH  14  15
ATOM     15  C   UNL     1       3.085   4.252  18.537  0.00  0.00    +0.000 A 
ATOM     16  C   UNL     1       1.751   4.360  18.938  0.00  0.00    +0.000 A 
ATOM     17  C   UNL     1       1.027   3.213  19.265  0.00  0.00    +0.000 A 
ATOM     18  C   UNL     1       1.632   1.961  19.170  0.00  0.00    +0.000 A 
ATOM     19  C   UNL     1       2.955   1.868  18.749  0.00  0.00    +0.000 A 
ATOM     20  F   UNL     1       3.521   0.658  18.639  0.00  0.00    +0.000 F 
ATOM     21  C   UNL     1       3.694   3.004  18.424  0.00  0.00    +0.000 A 
ENDBRANCH  14  15
ENDBRANCH  12  14
ENDBRANCH   8  12
BRANCH   1  22
ATOM     22  C   UNL     1       5.428   2.512  11.408  0.00  0.00    +0.000 C 
BRANCH  22  23
ATOM     23  N   UNL     1       6.110   1.224  11.378  0.00  0.00    +0.000 NA
ATOM     24  H   UNL     1       6.242   0.893  12.332  0.00  0.00    +0.000 HD
ATOM     25  H   UNL     1       7.044   1.356  10.990  0.00  0.00    +0.000 HD
ENDBRANCH  22  23
ENDBRANCH   1  22
TORSDOF 5
ENDMDL
MODEL 5
REMARK VINA RESULT:      -8.2      1.376      1.609
REMARK  Name = 
REMARK  5 active torsions:
REMARK  status: ('A' for Active; 'I' for Inactive)
REMARK    1  A    between atoms: N_1  and  C_2
REMARK    2  A    between atoms: C_2  and  C_3
REMARK    3  A    between atoms: C_10  and  C_11
REMARK    4  A    between atoms: C_11  and  O_13
REMARK    5  A    between atoms: O_13  and  C_14
REMARK                            x       y       z     vdW  Elec       q    Type
REMARK                         _______ _______ _______ _____ _____    ______ ____
ROOT
ATOM      1  C   UNL     1       5.868   3.531  12.601  0.00  0.00    +0.000 A 
ATOM      2  C   UNL     1       7.167   4.049  12.481  0.00  0.00    +0.000 A 
ATOM      3  C   UNL     1       7.698   4.866  13.481  0.00  0.00    +0.000 A 
ATOM      4  C   UNL     1       6.921   5.168  14.593  0.00  0.00    +0.000 A 
ATOM      5  O   UNL     1       7.490   5.982  15.589  0.00  0.00    +0.000 OA
ATOM      6  C   UNL     1       6.808   6.310  16.759  0.00  0.00    +0.000 A 
ATOM      7  O   UNL     1       7.382   6.911  17.659  0.00  0.00    +0.000 OA
ATOM      8  C   UNL     1       5.395   5.872  16.851  0.00  0.00    +0.000 A 
ATOM      9  C   UNL     1       4.856   5.082  15.903  0.00  0.00    +0.000 A 
ATOM     10  C   UNL     1       5.628   4.682  14.737  0.00  0.00    +0.000 A 
ATOM     11  C   UNL     1       5.105   3.852  13.741  0.00  0.00    +0.000 A 
ENDROOT
BRANCH   8  12
ATOM     12  C   UNL     1       4.522   6.213  18.001  0.00  0.00    +0.000 C 
ATOM     13  O   UNL     1       3.742   7.158  17.994  0.00  0.00    +0.000 OA
BRANCH  12  14
ATOM     14  O   UNL     1       4.727   5.343  19.062  0.00  0.00    +0.000 OA
BRANCH  14  15
ATOM     15  C   UNL     1       3.813   4.290  19.278  0.00  0.00    +0.000 A 
ATOM     16  C   UNL     1       2.526   4.525  19.767  0.00  0.00    +0.000 A 
ATOM     17  C   UNL     1       1.615   3.471  19.863  0.00  0.00    +0.000 A 
ATOM     18  C   UNL     1       1.988   2.194  19.451  0.00  0.00    +0.000 A 
ATOM     19  C   UNL     1       3.267   1.980  18.947  0.00  0.00    +0.000 A 
ATOM     20  F   UNL     1       3.609   0.751  18.533  0.00  0.00    +0.000 F 
ATOM     21  C   UNL     1       4.190   3.019  18.850  0.00  0.00    +0.000 A 
ENDBRANCH  14  15
ENDBRANCH  12  14
ENDBRANCH   8  12
BRANCH   1  22
ATOM     22  C   UNL     1       5.298   2.639  11.524  0.00  0.00    +0.000 C 
BRANCH  22  23
ATOM     23  N   UNL     1       3.965   3.077  11.129  0.00  0.00    +0.000 NA
ATOM     24  H   UNL     1       3.270   2.524  11.627  0.00  0.00    +0.000 HD
ATOM     25  H   UNL     1       3.833   2.876  10.137  0.00  0.00    +0.000 HD
ENDBRANCH  22  23
ENDBRANCH   1  22
TORSDOF 5
ENDMDL
MODEL 6
REMARK VINA RESULT:      -8.2      1.158      1.496
REMARK  Name = 
REMARK  5 active torsions:
REMARK  status: ('A' for Active; 'I' for Inactive)
REMARK    1  A    between atoms: N_1  and  C_2
REMARK    2  A    between atoms: C_2  and  C_3
REMARK    3  A    between atoms: C_10  and  C_11
REMARK    4  A    between atoms: C_11  and  O_13
REMARK    5  A    between atoms: O_13  and  C_14
REMARK                            x       y       z     vdW  Elec       q    Type
REMARK                         _______ _______ _______ _____ _____    ______ ____
ROOT
ATOM      1  C   UNL     1       6.054   3.269  12.408  0.00  0.00    +0.000 A 
ATOM      2  C   UNL     1       7.051   4.197  12.069  0.00  0.00    +0.000 A 
ATOM      3  C   UNL     1       7.578   5.053  13.037  0.00  0.00    +0.000 A 
ATOM      4  C   UNL     1       7.098   4.981  14.341  0.00  0.00    +0.000 A 
ATOM      5  O   UNL     1       7.661   5.848  15.295  0.00  0.00    +0.000 OA
ATOM      6  C   UNL     1       7.277   5.827  16.634  0.00  0.00    +0.000 A 
ATOM      7  O   UNL     1       7.879   6.503  17.459  0.00  0.00    +0.000 OA
ATOM      8  C   UNL     1       6.144   4.938  16.988  0.00  0.00    +0.000 A 
ATOM      9  C   UNL     1       5.616   4.100  16.076  0.00  0.00    +0.000 A 
ATOM     10  C   UNL     1       6.105   4.083  14.706  0.00  0.00    +0.000 A 
ATOM     11  C   UNL     1       5.589   3.217  13.737  0.00  0.00    +0.000 A 
ENDROOT
BRANCH   8  12
ATOM     12  C   UNL     1       5.576   4.867  18.357  0.00  0.00    +0.000 C 
ATOM     13  O   UNL     1       5.996   4.103  19.218  0.00  0.00    +0.000 OA
BRANCH  12  14
ATOM     14  O   UNL     1       4.518   5.751  18.508  0.00  0.00    +0.000 OA
BRANCH  14  15
ATOM     15  C   UNL     1       3.299   5.285  19.043  0.00  0.00    +0.000 A 
ATOM     16  C   UNL     1       2.896   3.955  18.901  0.00  0.00    +0.000 A 
ATOM     17  C   UNL     1       1.739   3.506  19.539  0.00  0.00    +0.000 A 
ATOM     18  C   UNL     1       1.001   4.382  20.333  0.00  0.00    +0.000 A 
ATOM     19  C   UNL     1       1.427   5.698  20.482  0.00  0.00    +0.000 A 
ATOM     20  F   UNL     1       0.723   6.527  21.266  0.00  0.00    +0.000 F 
ATOM     21  C   UNL     1       2.577   6.164  19.848  0.00  0.00    +0.000 A 
ENDBRANCH  14  15
ENDBRANCH  12  14
ENDBRANCH   8  12
BRANCH   1  22
ATOM     22  C   UNL     1       5.490   2.336  11.363  0.00  0.00    +0.000 C 
BRANCH  22  23
ATOM     23  N   UNL     1       6.314   1.142  11.223  0.00  0.00    +0.000 NA
ATOM     24  H   UNL     1       7.115   1.213  11.848  0.00  0.00    +0.000 HD
ATOM     25  H   UNL     1       6.691   1.111  10.276  0.00  0.00    +0.000 HD
ENDBRANCH  22  23
ENDBRANCH   1  22
TORSDOF 5
ENDMDL
MODEL 7
REMARK VINA RESULT:      -8.1      2.151      2.505
REMARK  Name = 
REMARK  5 active torsions:
REMARK  status: ('A' for Active; 'I' for Inactive)
REMARK    1  A    between atoms: N_1  and  C_2
REMARK    2  A    between atoms: C_2  and  C_3
REMARK    3  A    between atoms: C_10  and  C_11
REMARK    4  A    between atoms: C_11  and  O_13
REMARK    5  A    between atoms: O_13  and  C_14
REMARK                            x       y       z     vdW  Elec       q    Type
REMARK                         _______ _______ _______ _____ _____    ______ ____
ROOT
ATOM      1  C   UNL     1       5.941   3.505  12.607  0.00  0.00    +0.000 A 
ATOM      2  C   UNL     1       7.090   4.277  12.374  0.00  0.00    +0.000 A 
ATOM      3  C   UNL     1       7.623   5.077  13.386  0.00  0.00    +0.000 A 
ATOM      4  C   UNL     1       6.996   5.107  14.627  0.00  0.00    +0.000 A 
ATOM      5  O   UNL     1       7.566   5.912  15.630  0.00  0.00    +0.000 OA
ATOM      6  C   UNL     1       7.036   5.981  16.916  0.00  0.00    +0.000 A 
ATOM      7  O   UNL     1       7.632   6.589  17.797  0.00  0.00    +0.000 OA
ATOM      8  C   UNL     1       5.758   5.268  17.149  0.00  0.00    +0.000 A 
ATOM      9  C   UNL     1       5.220   4.488  16.192  0.00  0.00    +0.000 A 
ATOM     10  C   UNL     1       5.851   4.366  14.887  0.00  0.00    +0.000 A 
ATOM     11  C   UNL     1       5.329   3.555  13.875  0.00  0.00    +0.000 A 
ENDROOT
BRANCH   8  12
ATOM     12  C   UNL     1       5.036   5.314  18.445  0.00  0.00    +0.000 C 
ATOM     13  O   UNL     1       5.607   5.344  19.529  0.00  0.00    +0.000 OA
BRANCH  12  14
ATOM     14  O   UNL     1       3.662   5.296  18.256  0.00  0.00    +0.000 OA
BRANCH  14  15
ATOM     15  C   UNL     1       2.895   6.405  18.669  0.00  0.00    +0.000 A 
ATOM     16  C   UNL     1       2.333   6.475  19.946  0.00  0.00    +0.000 A 
ATOM     17  C   UNL     1       1.674   7.635  20.355  0.00  0.00    +0.000 A 
ATOM     18  C   UNL     1       1.597   8.728  19.494  0.00  0.00    +0.000 A 
ATOM     19  C   UNL     1       2.179   8.651  18.232  0.00  0.00    +0.000 A 
ATOM     20  F   UNL     1       2.119   9.716  17.420  0.00  0.00    +0.000 F 
ATOM     21  C   UNL     1       2.836   7.499  17.806  0.00  0.00    +0.000 A 
ENDBRANCH  14  15
ENDBRANCH  12  14
ENDBRANCH   8  12
BRANCH   1  22
ATOM     22  C   UNL     1       5.371   2.632  11.515  0.00  0.00    +0.000 C 
BRANCH  22  23
ATOM     23  N   UNL     1       5.961   1.300  11.544  0.00  0.00    +0.000 NA
ATOM     24  H   UNL     1       6.489   1.186  12.408  0.00  0.00    +0.000 HD
ATOM     25  H   UNL     1       6.636   1.222  10.784  0.00  0.00    +0.000 HD
ENDBRANCH  22  23
ENDBRANCH   1  22
TORSDOF 5
ENDMDL
MODEL 8
REMARK VINA RESULT:      -8.1      1.970      2.444
REMARK  Name = 
REMARK  5 active torsions:
REMARK  status: ('A' for Active; 'I' for Inactive)
REMARK    1  A    between atoms: N_1  and  C_2
REMARK    2  A    between atoms: C_2  and  C_3
REMARK    3  A    between atoms: C_10  and  C_11
REMARK    4  A    between atoms: C_11  and  O_13
REMARK    5  A    between atoms: O_13  and  C_14
REMARK                            x       y       z     vdW  Elec       q    Type
REMARK                         _______ _______ _______ _____ _____    ______ ____
ROOT
ATOM      1  C   UNL     1       5.800   3.403  12.466  0.00  0.00    +0.000 A 
ATOM      2  C   UNL     1       6.909   4.209  12.166  0.00  0.00    +0.000 A 
ATOM      3  C   UNL     1       7.512   4.981  13.160  0.00  0.00    +0.000 A 
ATOM      4  C   UNL     1       6.996   4.949  14.451  0.00  0.00    +0.000 A 
ATOM      5  O   UNL     1       7.636   5.727  15.433  0.00  0.00    +0.000 OA
ATOM      6  C   UNL     1       7.219   5.734  16.762  0.00  0.00    +0.000 A 
ATOM      7  O   UNL     1       7.878   6.321  17.612  0.00  0.00    +0.000 OA
ATOM      8  C   UNL     1       5.980   4.984  17.075  0.00  0.00    +0.000 A 
ATOM      9  C   UNL     1       5.376   4.229  16.137  0.00  0.00    +0.000 A 
ATOM     10  C   UNL     1       5.892   4.173  14.779  0.00  0.00    +0.000 A 
ATOM     11  C   UNL     1       5.300   3.389  13.784  0.00  0.00    +0.000 A 
ENDROOT
BRANCH   8  12
ATOM     12  C   UNL     1       5.374   4.963  18.429  0.00  0.00    +0.000 C 
ATOM     13  O   UNL     1       6.034   4.881  19.458  0.00  0.00    +0.000 OA
BRANCH  12  14
ATOM     14  O   UNL     1       3.990   5.026  18.362  0.00  0.00    +0.000 OA
BRANCH  14  15
ATOM     15  C   UNL     1       3.342   6.257  18.595  0.00  0.00    +0.000 A 
ATOM     16  C   UNL     1       3.305   7.262  17.625  0.00  0.00    +0.000 A 
ATOM     17  C   UNL     1       2.561   8.421  17.851  0.00  0.00    +0.000 A 
ATOM     18  C   UNL     1       1.842   8.563  19.036  0.00  0.00    +0.000 A 
ATOM     19  C   UNL     1       1.873   7.544  19.985  0.00  0.00    +0.000 A 
ATOM     20  F   UNL     1       1.160   7.680  21.112  0.00  0.00    +0.000 F 
ATOM     21  C   UNL     1       2.614   6.383  19.777  0.00  0.00    +0.000 A 
ENDBRANCH  14  15
ENDBRANCH  12  14
ENDBRANCH   8  12
BRANCH   1  22
ATOM     22  C   UNL     1       5.153   2.560  11.394  0.00  0.00    +0.000 C 
BRANCH  22  23
ATOM     23  N   UNL     1       3.914   3.165  10.924  0.00  0.00    +0.000 NA
ATOM     24  H   UNL     1       4.032   4.175  10.874  0.00  0.00    +0.000 HD
ATOM     25  H   UNL     1       3.183   2.997  11.615  0.00  0.00    +0.000 HD
ENDBRANCH  22  23
ENDBRANCH   1  22
TORSDOF 5
ENDMDL
MODEL 9
REMARK VINA RESULT:      -7.9      1.429      1.455
REMARK  Name = 
REMARK  5 active torsions:
REMARK  status: ('A' for Active; 'I' for Inactive)
REMARK    1  A    between atoms: N_1  and  C_2
REMARK    2  A    between atoms: C_2  and  C_3
REMARK    3  A    between atoms: C_10  and  C_11
REMARK    4  A    between atoms: C_11  and  O_13
REMARK    5  A    between atoms: O_13  and  C_14
REMARK                            x       y       z     vdW  Elec       q    Type
REMARK                         _______ _______ _______ _____ _____    ______ ____
ROOT
ATOM      1  C   UNL     1       5.856   3.446  12.354  0.00  0.00    +0.000 A 
ATOM      2  C   UNL     1       7.052   4.151  12.150  0.00  0.00    +0.000 A 
ATOM      3  C   UNL     1       7.608   4.914  13.179  0.00  0.00    +0.000 A 
ATOM      4  C   UNL     1       6.958   4.973  14.407  0.00  0.00    +0.000 A 
ATOM      5  O   UNL     1       7.552   5.738  15.426  0.00  0.00    +0.000 OA
ATOM      6  C   UNL     1       7.000   5.830  16.702  0.00  0.00    +0.000 A 
ATOM      7  O   UNL     1       7.611   6.398  17.599  0.00  0.00    +0.000 OA
ATOM      8  C   UNL     1       5.678   5.191  16.903  0.00  0.00    +0.000 A 
ATOM      9  C   UNL     1       5.117   4.448  15.930  0.00  0.00    +0.000 A 
ATOM     10  C   UNL     1       5.767   4.298  14.638  0.00  0.00    +0.000 A 
ATOM     11  C   UNL     1       5.221   3.523  13.610  0.00  0.00    +0.000 A 
ENDROOT
BRANCH   8  12
ATOM     12  C   UNL     1       4.933   5.271  18.184  0.00  0.00    +0.000 C 
ATOM     13  O   UNL     1       5.414   5.736  19.211  0.00  0.00    +0.000 OA
BRANCH  12  14
ATOM     14  O   UNL     1       3.659   4.738  18.059  0.00  0.00    +0.000 OA
BRANCH  14  15
ATOM     15  C   UNL     1       2.983   4.285  19.210  0.00  0.00    +0.000 A 
ATOM     16  C   UNL     1       1.683   4.700  19.510  0.00  0.00    +0.000 A 
ATOM     17  C   UNL     1       1.008   4.145  20.598  0.00  0.00    +0.000 A 
ATOM     18  C   UNL     1       1.626   3.162  21.369  0.00  0.00    +0.000 A 
ATOM     19  C   UNL     1       2.913   2.743  21.045  0.00  0.00    +0.000 A 
ATOM     20  F   UNL     1       3.490   1.781  21.779  0.00  0.00    +0.000 F 
ATOM     21  C   UNL     1       3.603   3.291  19.966  0.00  0.00    +0.000 A 
ENDBRANCH  14  15
ENDBRANCH  12  14
ENDBRANCH   8  12
BRANCH   1  22
ATOM     22  C   UNL     1       5.259   2.613  11.245  0.00  0.00    +0.000 C 
BRANCH  22  23
ATOM     23  N   UNL     1       3.873   2.986  10.993  0.00  0.00    +0.000 NA
ATOM     24  H   UNL     1       3.752   3.978  11.192  0.00  0.00    +0.000 HD
ATOM     25  H   UNL     1       3.273   2.488  11.650  0.00  0.00    +0.000 HD
ENDBRANCH  22  23
ENDBRANCH   1  22
TORSDOF 5
ENDMDL
