MODEL 1
REMARK VINA RESULT:      -7.3      0.000      0.000
REMARK  Name = 
REMARK  3 active torsions:
REMARK  status: ('A' for Active; 'I' for Inactive)
REMARK    1  A    between atoms: C_1  and  N_2
REMARK    2  A    between atoms: C_4  and  C_5
REMARK    3  A    between atoms: C_8  and  O_9
REMARK                            x       y       z     vdW  Elec       q    Type
REMARK                         _______ _______ _______ _____ _____    ______ ____
ROOT
ATOM      1  C   UNL     1       4.602   4.002  18.830  0.00  0.00    +0.000 A 
ATOM      2  N   UNL     1       4.719   2.768  19.391  0.00  0.00    +0.000 NA
ATOM      3  N   UNL     1       3.904   2.399  20.415  0.00  0.00    +0.000 NA
ATOM      4  C   UNL     1       3.000   3.282  20.872  0.00  0.00    +0.000 A 
ATOM      5  C   UNL     1       2.811   4.556  20.346  0.00  0.00    +0.000 A 
ATOM      6  C   UNL     1       1.851   5.459  20.864  0.00  0.00    +0.000 A 
ATOM      7  C   UNL     1       1.681   6.724  20.304  0.00  0.00    +0.000 A 
ATOM      8  C   UNL     1       2.435   7.095  19.201  0.00  0.00    +0.000 A 
ATOM      9  C   UNL     1       3.376   6.208  18.675  0.00  0.00    +0.000 A 
ATOM     10  C   UNL     1       3.621   4.935  19.255  0.00  0.00    +0.000 A 
ENDROOT
BRANCH   1  14
ATOM     11  C   UNL     1       6.885   4.593  14.451  0.00  0.00    +0.000 C 
ATOM     12  N   UNL     1       6.591   4.531  15.862  0.00  0.00    +0.000 N 
ATOM     13  C   UNL     1       5.416   4.164  16.451  0.00  0.00    +0.000 A 
ATOM     14  C   UNL     1       5.605   4.295  17.814  0.00  0.00    +0.000 A 
ATOM     15  C   UNL     1       6.963   4.672  17.926  0.00  0.00    +0.000 A 
ATOM     16  N   UNL     1       7.552   4.857  16.743  0.00  0.00    +0.000 NA
ENDBRANCH   1  14
BRANCH   4  17
ATOM     17  O   UNL     1       2.249   2.823  21.914  0.00  0.00    +0.000 OA
ATOM     18  H   UNL     1       1.438   3.354  21.812  0.00  0.00    +0.000 HD
ENDBRANCH   4  17
TORSDOF 2
ENDMDL
MODEL 2
REMARK VINA RESULT:      -7.0      1.304      1.626
REMARK  Name = 
REMARK  3 active torsions:
REMARK  status: ('A' for Active; 'I' for Inactive)
REMARK    1  A    between atoms: C_1  and  N_2
REMARK    2  A    between atoms: C_4  and  C_5
REMARK    3  A    between atoms: C_8  and  O_9
REMARK                            x       y       z     vdW  Elec       q    Type
REMARK                         _______ _______ _______ _____ _____    ______ ____
ROOT
ATOM      1  C   UNL     1       4.524   5.075  17.900  0.00  0.00    +0.000 A 
ATOM      2  N   UNL     1       4.586   3.969  18.691  0.00  0.00    +0.000 NA
ATOM      3  N   UNL     1       3.845   3.897  19.829  0.00  0.00    +0.000 NA
ATOM      4  C   UNL     1       3.070   4.942  20.163  0.00  0.00    +0.000 A 
ATOM      5  C   UNL     1       2.944   6.102  19.405  0.00  0.00    +0.000 A 
ATOM      6  C   UNL     1       2.123   7.184  19.800  0.00  0.00    +0.000 A 
ATOM      7  C   UNL     1       2.011   8.327  19.009  0.00  0.00    +0.000 A 
ATOM      8  C   UNL     1       2.685   8.392  17.798  0.00  0.00    +0.000 A 
ATOM      9  C   UNL     1       3.489   7.325  17.393  0.00  0.00    +0.000 A 
ATOM     10  C   UNL     1       3.675   6.172  18.200  0.00  0.00    +0.000 A 
ENDROOT
BRANCH   1  14
ATOM     11  C   UNL     1       6.609   4.076  13.496  0.00  0.00    +0.000 C 
ATOM     12  N   UNL     1       6.349   4.580  14.823  0.00  0.00    +0.000 N 
ATOM     13  C   UNL     1       5.266   4.325  15.611  0.00  0.00    +0.000 A 
ATOM     14  C   UNL     1       5.446   5.055  16.771  0.00  0.00    +0.000 A 
ATOM     15  C   UNL     1       6.716   5.650  16.594  0.00  0.00    +0.000 A 
ATOM     16  N   UNL     1       7.248   5.398  15.396  0.00  0.00    +0.000 NA
ENDBRANCH   1  14
BRANCH   4  17
ATOM     17  O   UNL     1       2.386   4.779  21.332  0.00  0.00    +0.000 OA
ATOM     18  H   UNL     1       2.069   5.685  21.496  0.00  0.00    +0.000 HD
ENDBRANCH   4  17
TORSDOF 2
ENDMDL
MODEL 3
REMARK VINA RESULT:      -7.0      3.532      5.429
REMARK  Name = 
REMARK  3 active torsions:
REMARK  status: ('A' for Active; 'I' for Inactive)
REMARK    1  A    between atoms: C_1  and  N_2
REMARK    2  A    between atoms: C_4  and  C_5
REMARK    3  A    between atoms: C_8  and  O_9
REMARK                            x       y       z     vdW  Elec       q    Type
REMARK                         _______ _______ _______ _____ _____    ______ ____
ROOT
ATOM      1  C   UNL     1       3.322   6.267  17.897  0.00  0.00    +0.000 A 
ATOM      2  N   UNL     1       4.507   6.667  17.359  0.00  0.00    +0.000 NA
ATOM      3  N   UNL     1       5.368   5.752  16.838  0.00  0.00    +0.000 NA
ATOM      4  C   UNL     1       5.034   4.451  16.883  0.00  0.00    +0.000 A 
ATOM      5  C   UNL     1       3.839   3.964  17.404  0.00  0.00    +0.000 A 
ATOM      6  C   UNL     1       3.532   2.583  17.440  0.00  0.00    +0.000 A 
ATOM      7  C   UNL     1       2.320   2.131  17.959  0.00  0.00    +0.000 A 
ATOM      8  C   UNL     1       1.383   3.047  18.415  0.00  0.00    +0.000 A 
ATOM      9  C   UNL     1       1.672   4.412  18.374  0.00  0.00    +0.000 A 
ATOM     10  C   UNL     1       2.919   4.907  17.909  0.00  0.00    +0.000 A 
ENDROOT
BRANCH   1  14
ATOM     11  C   UNL     1       0.804  10.502  18.578  0.00  0.00    +0.000 C 
ATOM     12  N   UNL     1       1.455   9.230  18.779  0.00  0.00    +0.000 N 
ATOM     13  C   UNL     1       2.141   8.493  17.859  0.00  0.00    +0.000 A 
ATOM     14  C   UNL     1       2.550   7.342  18.506  0.00  0.00    +0.000 A 
ATOM     15  C   UNL     1       2.115   7.539  19.837  0.00  0.00    +0.000 A 
ATOM     16  N   UNL     1       1.415   8.663  19.997  0.00  0.00    +0.000 NA
ENDBRANCH   1  14
BRANCH   4  17
ATOM     17  O   UNL     1       5.974   3.615  16.355  0.00  0.00    +0.000 OA
ATOM     18  H   UNL     1       6.349   3.218  17.162  0.00  0.00    +0.000 HD
ENDBRANCH   4  17
TORSDOF 2
ENDMDL
MODEL 4
REMARK VINA RESULT:      -7.0      3.490      5.531
REMARK  Name = 
REMARK  3 active torsions:
REMARK  status: ('A' for Active; 'I' for Inactive)
REMARK    1  A    between atoms: C_1  and  N_2
REMARK    2  A    between atoms: C_4  and  C_5
REMARK    3  A    between atoms: C_8  and  O_9
REMARK                            x       y       z     vdW  Elec       q    Type
REMARK                         _______ _______ _______ _____ _____    ______ ____
ROOT
ATOM      1  C   UNL     1       3.381   6.364  17.888  0.00  0.00    +0.000 A 
ATOM      2  N   UNL     1       4.603   6.751  17.431  0.00  0.00    +0.000 NA
ATOM      3  N   UNL     1       5.491   5.826  16.978  0.00  0.00    +0.000 NA
ATOM      4  C   UNL     1       5.146   4.528  17.010  0.00  0.00    +0.000 A 
ATOM      5  C   UNL     1       3.915   4.053  17.452  0.00  0.00    +0.000 A 
ATOM      6  C   UNL     1       3.595   2.675  17.478  0.00  0.00    +0.000 A 
ATOM      7  C   UNL     1       2.347   2.235  17.916  0.00  0.00    +0.000 A 
ATOM      8  C   UNL     1       1.388   3.161  18.298  0.00  0.00    +0.000 A 
ATOM      9  C   UNL     1       1.688   4.524  18.266  0.00  0.00    +0.000 A 
ATOM     10  C   UNL     1       2.968   5.006  17.884  0.00  0.00    +0.000 A 
ENDROOT
BRANCH   1  14
ATOM     11  C   UNL     1       0.811   9.254  21.016  0.00  0.00    +0.000 C 
ATOM     12  N   UNL     1       1.433   8.697  19.839  0.00  0.00    +0.000 N 
ATOM     13  C   UNL     1       2.160   7.546  19.749  0.00  0.00    +0.000 A 
ATOM     14  C   UNL     1       2.576   7.449  18.434  0.00  0.00    +0.000 A 
ATOM     15  C   UNL     1       1.969   8.563  17.811  0.00  0.00    +0.000 A 
ATOM     16  N   UNL     1       1.309   9.345  18.668  0.00  0.00    +0.000 NA
ENDBRANCH   1  14
BRANCH   4  17
ATOM     17  O   UNL     1       6.114   3.681  16.556  0.00  0.00    +0.000 OA
ATOM     18  H   UNL     1       5.773   2.821  16.863  0.00  0.00    +0.000 HD
ENDBRANCH   4  17
TORSDOF 2
ENDMDL
MODEL 5
REMARK VINA RESULT:      -6.8      1.985      2.401
REMARK  Name = 
REMARK  3 active torsions:
REMARK  status: ('A' for Active; 'I' for Inactive)
REMARK    1  A    between atoms: C_1  and  N_2
REMARK    2  A    between atoms: C_4  and  C_5
REMARK    3  A    between atoms: C_8  and  O_9
REMARK                            x       y       z     vdW  Elec       q    Type
REMARK                         _______ _______ _______ _____ _____    ______ ____
ROOT
ATOM      1  C   UNL     1       3.977   4.390  17.781  0.00  0.00    +0.000 A 
ATOM      2  N   UNL     1       4.102   3.161  17.210  0.00  0.00    +0.000 NA
ATOM      3  N   UNL     1       3.292   2.139  17.597  0.00  0.00    +0.000 NA
ATOM      4  C   UNL     1       2.385   2.364  18.564  0.00  0.00    +0.000 A 
ATOM      5  C   UNL     1       2.189   3.591  19.188  0.00  0.00    +0.000 A 
ATOM      6  C   UNL     1       1.228   3.781  20.209  0.00  0.00    +0.000 A 
ATOM      7  C   UNL     1       1.050   5.029  20.805  0.00  0.00    +0.000 A 
ATOM      8  C   UNL     1       1.799   6.111  20.368  0.00  0.00    +0.000 A 
ATOM      9  C   UNL     1       2.742   5.938  19.353  0.00  0.00    +0.000 A 
ATOM     10  C   UNL     1       2.994   4.670  18.765  0.00  0.00    +0.000 A 
ENDROOT
BRANCH   1  14
ATOM     11  C   UNL     1       7.818   7.550  17.727  0.00  0.00    +0.000 C 
ATOM     12  N   UNL     1       6.670   6.760  17.355  0.00  0.00    +0.000 N 
ATOM     13  C   UNL     1       5.956   5.908  18.146  0.00  0.00    +0.000 A 
ATOM     14  C   UNL     1       4.976   5.357  17.342  0.00  0.00    +0.000 A 
ATOM     15  C   UNL     1       5.154   6.016  16.104  0.00  0.00    +0.000 A 
ATOM     16  N   UNL     1       6.206   6.837  16.096  0.00  0.00    +0.000 NA
ENDBRANCH   1  14
BRANCH   4  17
ATOM     17  O   UNL     1       1.640   1.270  18.894  0.00  0.00    +0.000 OA
ATOM     18  H   UNL     1       0.856   1.396  18.328  0.00  0.00    +0.000 HD
ENDBRANCH   4  17
TORSDOF 2
ENDMDL
MODEL 6
REMARK VINA RESULT:      -6.7      1.581      1.880
REMARK  Name = 
REMARK  3 active torsions:
REMARK  status: ('A' for Active; 'I' for Inactive)
REMARK    1  A    between atoms: C_1  and  N_2
REMARK    2  A    between atoms: C_4  and  C_5
REMARK    3  A    between atoms: C_8  and  O_9
REMARK                            x       y       z     vdW  Elec       q    Type
REMARK                         _______ _______ _______ _____ _____    ______ ____
ROOT
ATOM      1  C   UNL     1       4.537   4.464  16.980  0.00  0.00    +0.000 A 
ATOM      2  N   UNL     1       4.355   3.170  17.358  0.00  0.00    +0.000 NA
ATOM      3  N   UNL     1       3.467   2.860  18.341  0.00  0.00    +0.000 NA
ATOM      4  C   UNL     1       2.792   3.856  18.940  0.00  0.00    +0.000 A 
ATOM      5  C   UNL     1       2.914   5.200  18.604  0.00  0.00    +0.000 A 
ATOM      6  C   UNL     1       2.190   6.219  19.268  0.00  0.00    +0.000 A 
ATOM      7  C   UNL     1       2.327   7.556  18.898  0.00  0.00    +0.000 A 
ATOM      8  C   UNL     1       3.157   7.893  17.839  0.00  0.00    +0.000 A 
ATOM      9  C   UNL     1       3.867   6.895  17.169  0.00  0.00    +0.000 A 
ATOM     10  C   UNL     1       3.800   5.531  17.557  0.00  0.00    +0.000 A 
ENDROOT
BRANCH   1  14
ATOM     11  C   UNL     1       7.089   4.464  12.711  0.00  0.00    +0.000 C 
ATOM     12  N   UNL     1       6.697   4.626  14.090  0.00  0.00    +0.000 N 
ATOM     13  C   UNL     1       5.511   4.273  14.664  0.00  0.00    +0.000 A 
ATOM     14  C   UNL     1       5.589   4.656  15.990  0.00  0.00    +0.000 A 
ATOM     15  C   UNL     1       6.905   5.157  16.113  0.00  0.00    +0.000 A 
ATOM     16  N   UNL     1       7.566   5.179  14.954  0.00  0.00    +0.000 NA
ENDBRANCH   1  14
BRANCH   4  17
ATOM     17  O   UNL     1       1.945   3.442  19.926  0.00  0.00    +0.000 OA
ATOM     18  H   UNL     1       2.191   4.043  20.652  0.00  0.00    +0.000 HD
ENDBRANCH   4  17
TORSDOF 2
ENDMDL
MODEL 7
REMARK VINA RESULT:      -6.7      2.641      3.715
REMARK  Name = 
REMARK  3 active torsions:
REMARK  status: ('A' for Active; 'I' for Inactive)
REMARK    1  A    between atoms: C_1  and  N_2
REMARK    2  A    between atoms: C_4  and  C_5
REMARK    3  A    between atoms: C_8  and  O_9
REMARK                            x       y       z     vdW  Elec       q    Type
REMARK                         _______ _______ _______ _____ _____    ______ ____
ROOT
ATOM      1  C   UNL     1       6.675   4.564  16.420  0.00  0.00    +0.000 A 
ATOM      2  N   UNL     1       7.937   4.534  16.927  0.00  0.00    +0.000 NA
ATOM      3  N   UNL     1       8.153   4.778  18.247  0.00  0.00    +0.000 NA
ATOM      4  C   UNL     1       7.100   5.067  19.031  0.00  0.00    +0.000 A 
ATOM      5  C   UNL     1       5.781   5.107  18.592  0.00  0.00    +0.000 A 
ATOM      6  C   UNL     1       4.702   5.425  19.451  0.00  0.00    +0.000 A 
ATOM      7  C   UNL     1       3.390   5.444  18.979  0.00  0.00    +0.000 A 
ATOM      8  C   UNL     1       3.130   5.111  17.659  0.00  0.00    +0.000 A 
ATOM      9  C   UNL     1       4.186   4.784  16.805  0.00  0.00    +0.000 A 
ATOM     10  C   UNL     1       5.540   4.813  17.233  0.00  0.00    +0.000 A 
ENDROOT
BRANCH   1  14
ATOM     11  C   UNL     1       5.392   2.937  11.897  0.00  0.00    +0.000 C 
ATOM     12  N   UNL     1       6.028   3.632  12.990  0.00  0.00    +0.000 N 
ATOM     13  C   UNL     1       5.781   3.486  14.324  0.00  0.00    +0.000 A 
ATOM     14  C   UNL     1       6.607   4.384  14.975  0.00  0.00    +0.000 A 
ATOM     15  C   UNL     1       7.362   4.959  13.927  0.00  0.00    +0.000 A 
ATOM     16  N   UNL     1       6.986   4.536  12.719  0.00  0.00    +0.000 NA
ENDBRANCH   1  14
BRANCH   4  17
ATOM     17  O   UNL     1       7.426   5.317  20.332  0.00  0.00    +0.000 OA
ATOM     18  H   UNL     1       6.995   6.180  20.473  0.00  0.00    +0.000 HD
ENDBRANCH   4  17
TORSDOF 2
ENDMDL
MODEL 8
REMARK VINA RESULT:      -6.7      2.696      3.364
REMARK  Name = 
REMARK  3 active torsions:
REMARK  status: ('A' for Active; 'I' for Inactive)
REMARK    1  A    between atoms: C_1  and  N_2
REMARK    2  A    between atoms: C_4  and  C_5
REMARK    3  A    between atoms: C_8  and  O_9
REMARK                            x       y       z     vdW  Elec       q    Type
REMARK                         _______ _______ _______ _____ _____    ______ ____
ROOT
ATOM      1  C   UNL     1       4.592   5.511  16.799  0.00  0.00    +0.000 A 
ATOM      2  N   UNL     1       4.601   6.845  17.067  0.00  0.00    +0.000 NA
ATOM      3  N   UNL     1       3.693   7.377  17.929  0.00  0.00    +0.000 NA
ATOM      4  C   UNL     1       2.782   6.565  18.491  0.00  0.00    +0.000 A 
ATOM      5  C   UNL     1       2.715   5.192  18.277  0.00  0.00    +0.000 A 
ATOM      6  C   UNL     1       1.732   4.375  18.883  0.00  0.00    +0.000 A 
ATOM      7  C   UNL     1       1.701   3.000  18.656  0.00  0.00    +0.000 A 
ATOM      8  C   UNL     1       2.669   2.415  17.853  0.00  0.00    +0.000 A 
ATOM      9  C   UNL     1       3.650   3.210  17.259  0.00  0.00    +0.000 A 
ATOM     10  C   UNL     1       3.678   4.621  17.418  0.00  0.00    +0.000 A 
ENDROOT
BRANCH   1  14
ATOM     11  C   UNL     1       6.595   3.733  12.607  0.00  0.00    +0.000 C 
ATOM     12  N   UNL     1       6.408   4.292  13.924  0.00  0.00    +0.000 N 
ATOM     13  C   UNL     1       5.228   4.527  14.567  0.00  0.00    +0.000 A 
ATOM     14  C   UNL     1       5.553   5.100  15.783  0.00  0.00    +0.000 A 
ATOM     15  C   UNL     1       6.967   5.087  15.787  0.00  0.00    +0.000 A 
ATOM     16  N   UNL     1       7.489   4.636  14.645  0.00  0.00    +0.000 NA
ENDBRANCH   1  14
BRANCH   4  17
ATOM     17  O   UNL     1       1.905   7.201  19.321  0.00  0.00    +0.000 OA
ATOM     18  H   UNL     1       1.901   6.600  20.088  0.00  0.00    +0.000 HD
ENDBRANCH   4  17
TORSDOF 2
ENDMDL
MODEL 9
REMARK VINA RESULT:      -6.7      2.109      2.855
REMARK  Name = 
REMARK  3 active torsions:
REMARK  status: ('A' for Active; 'I' for Inactive)
REMARK    1  A    between atoms: C_1  and  N_2
REMARK    2  A    between atoms: C_4  and  C_5
REMARK    3  A    between atoms: C_8  and  O_9
REMARK                            x       y       z     vdW  Elec       q    Type
REMARK                         _______ _______ _______ _____ _____    ______ ____
ROOT
ATOM      1  C   UNL     1       4.404   5.452  18.030  0.00  0.00    +0.000 A 
ATOM      2  N   UNL     1       3.921   6.720  17.931  0.00  0.00    +0.000 NA
ATOM      3  N   UNL     1       2.955   7.155  18.784  0.00  0.00    +0.000 NA
ATOM      4  C   UNL     1       2.479   6.304  19.709  0.00  0.00    +0.000 A 
ATOM      5  C   UNL     1       2.928   4.999  19.881  0.00  0.00    +0.000 A 
ATOM      6  C   UNL     1       2.391   4.133  20.863  0.00  0.00    +0.000 A 
ATOM      7  C   UNL     1       2.873   2.834  21.016  0.00  0.00    +0.000 A 
ATOM      8  C   UNL     1       3.919   2.392  20.220  0.00  0.00    +0.000 A 
ATOM      9  C   UNL     1       4.464   3.241  19.256  0.00  0.00    +0.000 A 
ATOM     10  C   UNL     1       3.959   4.549  19.030  0.00  0.00    +0.000 A 
ENDROOT
BRANCH   1  14
ATOM     11  C   UNL     1       6.382   3.870  13.749  0.00  0.00    +0.000 C 
ATOM     12  N   UNL     1       6.203   4.372  15.089  0.00  0.00    +0.000 N 
ATOM     13  C   UNL     1       5.027   4.567  15.754  0.00  0.00    +0.000 A 
ATOM     14  C   UNL     1       5.359   5.094  16.988  0.00  0.00    +0.000 A 
ATOM     15  C   UNL     1       6.772   5.096  16.979  0.00  0.00    +0.000 A 
ATOM     16  N   UNL     1       7.287   4.698  15.814  0.00  0.00    +0.000 NA
ENDBRANCH   1  14
BRANCH   4  17
ATOM     17  O   UNL     1       1.499   6.831  20.499  0.00  0.00    +0.000 OA
ATOM     18  H   UNL     1       1.741   7.774  20.498  0.00  0.00    +0.000 HD
ENDBRANCH   4  17
TORSDOF 2
ENDMDL
