MODEL 1
REMARK VINA RESULT:      -7.9      0.000      0.000
REMARK  Name = 
REMARK  16 active torsions:
REMARK  status: ('A' for Active; 'I' for Inactive)
REMARK    1  A    between atoms: C_1  and  O_2
REMARK    2  A    between atoms: O_2  and  C_3
REMARK    3  A    between atoms: C_5  and  C_6
REMARK    4  A    between atoms: N_8  and  C_9
REMARK    5  A    between atoms: C_9  and  C_10
REMARK    6  A    between atoms: C_9  and  C_26
REMARK    7  A    between atoms: C_12  and  C_13
REMARK    8  A    between atoms: N_15  and  C_16
REMARK    9  A    between atoms: C_16  and  C_17
REMARK   10  A    between atoms: C_17  and  C_18
REMARK   11  A    between atoms: C_26  and  C_27
REMARK   12  A    between atoms: C_26  and  C_28
REMARK   13  A    between atoms: C_30  and  O_31
REMARK   14  A    between atoms: O_31  and  C_32
REMARK   15  A    between atoms: C_33  and  O_34
REMARK   16  A    between atoms: O_34  and  C_35
REMARK                            x       y       z     vdW  Elec       q    Type
REMARK                         _______ _______ _______ _____ _____    ______ ____
ROOT
ATOM      1  C   UNL     1       2.423   4.890  19.245  0.00  0.00    +0.000 C 
ENDROOT
BRANCH   1   2
ATOM      2  C   UNL     1       2.161   6.385  19.454  0.00  0.00    +0.000 A 
ATOM      3  N   UNL     1       1.691   6.924  20.570  0.00  0.00    +0.000 NA
ATOM      4  C   UNL     1       1.610   8.318  20.434  0.00  0.00    +0.000 A 
ATOM      5  C   UNL     1       1.996   8.792  19.194  0.00  0.00    +0.000 A 
ATOM      6  S   UNL     1       2.349   7.502  18.146  0.00  0.00    +0.000 S 
BRANCH   4   7
ATOM      7  C   UNL     1       1.154   9.221  21.496  0.00  0.00    +0.000 C 
ATOM      8  O   UNL     1       1.605   9.160  22.640  0.00  0.00    +0.000 OA
ATOM      9  N   UNL     1       0.217  10.161  21.114  0.00  0.00    +0.000 N 
ATOM     10  H   UNL     1       0.032  10.239  20.119  0.00  0.00    +0.000 HD
BRANCH   9  11
ATOM     11  C   UNL     1      -0.143  11.213  22.049  0.00  0.00    +0.000 C 
BRANCH  11  12
ATOM     12  C   UNL     1      -1.278  10.844  22.995  0.00  0.00    +0.000 C 
BRANCH  12  13
ATOM     13  C   UNL     1      -2.104  12.061  23.339  0.00  0.00    +0.000 A 
ATOM     14  C   UNL     1      -1.582  13.341  23.186  0.00  0.00    +0.000 A 
ATOM     15  C   UNL     1      -2.383  14.442  23.493  0.00  0.00    +0.000 A 
ATOM     16  C   UNL     1      -3.683  14.234  23.935  0.00  0.00    +0.000 A 
ATOM     17  C   UNL     1      -4.131  12.929  24.046  0.00  0.00    +0.000 A 
ATOM     18  N   UNL     1      -3.374  11.843  23.759  0.00  0.00    +0.000 NA
ENDBRANCH  12  13
ENDBRANCH  11  12
ENDBRANCH   9  11
ENDBRANCH   4   7
ENDBRANCH   1   2
BRANCH   1  21
ATOM     19  C   UNL     1       3.782   4.105  17.299  0.00  0.00    +0.000 C 
ATOM     20  O   UNL     1       2.891   3.404  16.836  0.00  0.00    +0.000 OA
ATOM     21  N   UNL     1       3.690   4.756  18.513  0.00  0.00    +0.000 N 
ATOM     22  H   UNL     1       4.382   5.460  18.729  0.00  0.00    +0.000 HD
BRANCH  19  25
ATOM     23  C   UNL     1       6.183   3.999  14.362  0.00  0.00    +0.000 A 
ATOM     24  C   UNL     1       5.176   3.663  15.285  0.00  0.00    +0.000 A 
ATOM     25  C   UNL     1       5.018   4.373  16.477  0.00  0.00    +0.000 A 
ATOM     26  C   UNL     1       5.965   5.345  16.795  0.00  0.00    +0.000 A 
ATOM     27  C   UNL     1       6.997   5.685  15.901  0.00  0.00    +0.000 A 
ATOM     28  C   UNL     1       7.111   5.023  14.659  0.00  0.00    +0.000 A 
BRANCH  23  30
ATOM     29  C   UNL     1       5.205   3.341  12.290  0.00  0.00    +0.000 C 
ATOM     30  O   UNL     1       6.311   3.302  13.189  0.00  0.00    +0.000 OA
ENDBRANCH  23  30
BRANCH  27  31
ATOM     31  O   UNL     1       7.774   6.695  16.414  0.00  0.00    +0.000 OA
ATOM     32  C   UNL     1       7.388   7.341  17.617  0.00  0.00    +0.000 C 
ENDBRANCH  27  31
BRANCH  28  33
ATOM     33  O   UNL     1       8.156   5.400  13.856  0.00  0.00    +0.000 OA
ATOM     34  C   UNL     1       7.921   5.733  12.496  0.00  0.00    +0.000 C 
ENDBRANCH  28  33
ENDBRANCH  19  25
ENDBRANCH   1  21
BRANCH   1  35
ATOM     35  C   UNL     1       2.302   4.023  20.535  0.00  0.00    +0.000 C 
ATOM     36  C   UNL     1       0.953   3.328  20.749  0.00  0.00    +0.000 C 
ATOM     37  C   UNL     1       3.434   2.993  20.640  0.00  0.00    +0.000 C 
ENDBRANCH   1  35
TORSDOF 11
ENDMDL
MODEL 2
REMARK VINA RESULT:      -7.8      1.397      1.997
REMARK  Name = 
REMARK  16 active torsions:
REMARK  status: ('A' for Active; 'I' for Inactive)
REMARK    1  A    between atoms: C_1  and  O_2
REMARK    2  A    between atoms: O_2  and  C_3
REMARK    3  A    between atoms: C_5  and  C_6
REMARK    4  A    between atoms: N_8  and  C_9
REMARK    5  A    between atoms: C_9  and  C_10
REMARK    6  A    between atoms: C_9  and  C_26
REMARK    7  A    between atoms: C_12  and  C_13
REMARK    8  A    between atoms: N_15  and  C_16
REMARK    9  A    between atoms: C_16  and  C_17
REMARK   10  A    between atoms: C_17  and  C_18
REMARK   11  A    between atoms: C_26  and  C_27
REMARK   12  A    between atoms: C_26  and  C_28
REMARK   13  A    between atoms: C_30  and  O_31
REMARK   14  A    between atoms: O_31  and  C_32
REMARK   15  A    between atoms: C_33  and  O_34
REMARK   16  A    between atoms: O_34  and  C_35
REMARK                            x       y       z     vdW  Elec       q    Type
REMARK                         _______ _______ _______ _____ _____    ______ ____
ROOT
ATOM      1  C   UNL     1       2.473   4.631  19.383  0.00  0.00    +0.000 C 
ENDROOT
BRANCH   1   2
ATOM      2  C   UNL     1       2.184   6.116  19.627  0.00  0.00    +0.000 A 
ATOM      3  N   UNL     1       1.715   6.622  20.759  0.00  0.00    +0.000 NA
ATOM      4  C   UNL     1       1.605   8.017  20.654  0.00  0.00    +0.000 A 
ATOM      5  C   UNL     1       1.970   8.524  19.422  0.00  0.00    +0.000 A 
ATOM      6  S   UNL     1       2.338   7.265  18.342  0.00  0.00    +0.000 S 
BRANCH   4   7
ATOM      7  C   UNL     1       1.143   8.887  21.739  0.00  0.00    +0.000 C 
ATOM      8  O   UNL     1       1.888   9.240  22.654  0.00  0.00    +0.000 OA
ATOM      9  N   UNL     1      -0.169   9.309  21.644  0.00  0.00    +0.000 N 
ATOM     10  H   UNL     1      -0.650   9.102  20.774  0.00  0.00    +0.000 HD
BRANCH   9  11
ATOM     11  C   UNL     1      -0.649  10.324  22.567  0.00  0.00    +0.000 C 
BRANCH  11  12
ATOM     12  C   UNL     1      -1.247  11.550  21.888  0.00  0.00    +0.000 C 
BRANCH  12  13
ATOM     13  C   UNL     1      -0.184  12.591  21.633  0.00  0.00    +0.000 A 
ATOM     14  C   UNL     1      -0.250  13.839  22.243  0.00  0.00    +0.000 A 
ATOM     15  C   UNL     1       0.763  14.768  22.000  0.00  0.00    +0.000 A 
ATOM     16  C   UNL     1       1.816  14.421  21.163  0.00  0.00    +0.000 A 
ATOM     17  C   UNL     1       1.814  13.154  20.607  0.00  0.00    +0.000 A 
ATOM     18  N   UNL     1       0.842  12.236  20.822  0.00  0.00    +0.000 NA
ENDBRANCH  12  13
ENDBRANCH  11  12
ENDBRANCH   9  11
ENDBRANCH   4   7
ENDBRANCH   1   2
BRANCH   1  21
ATOM     19  C   UNL     1       3.794   4.014  17.353  0.00  0.00    +0.000 C 
ATOM     20  O   UNL     1       2.880   3.388  16.829  0.00  0.00    +0.000 OA
ATOM     21  N   UNL     1       3.730   4.538  18.628  0.00  0.00    +0.000 N 
ATOM     22  H   UNL     1       4.444   5.197  18.908  0.00  0.00    +0.000 HD
BRANCH  19  25
ATOM     23  C   UNL     1       6.208   4.067  14.425  0.00  0.00    +0.000 A 
ATOM     24  C   UNL     1       5.201   3.679  15.326  0.00  0.00    +0.000 A 
ATOM     25  C   UNL     1       5.032   4.330  16.551  0.00  0.00    +0.000 A 
ATOM     26  C   UNL     1       5.970   5.292  16.919  0.00  0.00    +0.000 A 
ATOM     27  C   UNL     1       7.003   5.683  16.047  0.00  0.00    +0.000 A 
ATOM     28  C   UNL     1       7.127   5.083  14.775  0.00  0.00    +0.000 A 
BRANCH  23  30
ATOM     29  C   UNL     1       5.186   3.346  12.396  0.00  0.00    +0.000 C 
ATOM     30  O   UNL     1       6.347   3.428  13.221  0.00  0.00    +0.000 OA
ENDBRANCH  23  30
BRANCH  27  31
ATOM     31  O   UNL     1       7.770   6.674  16.611  0.00  0.00    +0.000 OA
ATOM     32  C   UNL     1       7.183   7.585  17.528  0.00  0.00    +0.000 C 
ENDBRANCH  27  31
BRANCH  28  33
ATOM     33  O   UNL     1       8.172   5.506  13.996  0.00  0.00    +0.000 OA
ATOM     34  C   UNL     1       7.971   5.748  12.611  0.00  0.00    +0.000 C 
ENDBRANCH  28  33
ENDBRANCH  19  25
ENDBRANCH   1  21
BRANCH   1  35
ATOM     35  C   UNL     1       2.390   3.736  20.657  0.00  0.00    +0.000 C 
ATOM     36  C   UNL     1       1.028   3.093  20.934  0.00  0.00    +0.000 C 
ATOM     37  C   UNL     1       3.481   2.657  20.668  0.00  0.00    +0.000 C 
ENDBRANCH   1  35
TORSDOF 11
ENDMDL
MODEL 3
REMARK VINA RESULT:      -7.6      3.269      9.518
REMARK  Name = 
REMARK  16 active torsions:
REMARK  status: ('A' for Active; 'I' for Inactive)
REMARK    1  A    between atoms: C_1  and  O_2
REMARK    2  A    between atoms: O_2  and  C_3
REMARK    3  A    between atoms: C_5  and  C_6
REMARK    4  A    between atoms: N_8  and  C_9
REMARK    5  A    between atoms: C_9  and  C_10
REMARK    6  A    between atoms: C_9  and  C_26
REMARK    7  A    between atoms: C_12  and  C_13
REMARK    8  A    between atoms: N_15  and  C_16
REMARK    9  A    between atoms: C_16  and  C_17
REMARK   10  A    between atoms: C_17  and  C_18
REMARK   11  A    between atoms: C_26  and  C_27
REMARK   12  A    between atoms: C_26  and  C_28
REMARK   13  A    between atoms: C_30  and  O_31
REMARK   14  A    between atoms: O_31  and  C_32
REMARK   15  A    between atoms: C_33  and  O_34
REMARK   16  A    between atoms: O_34  and  C_35
REMARK                            x       y       z     vdW  Elec       q    Type
REMARK                         _______ _______ _______ _____ _____    ______ ____
ROOT
ATOM      1  C   UNL     1       3.194   4.935  19.793  0.00  0.00    +0.000 C 
ENDROOT
BRANCH   1   2
ATOM      2  C   UNL     1       4.236   5.027  18.673  0.00  0.00    +0.000 A 
ATOM      3  N   UNL     1       5.198   5.937  18.604  0.00  0.00    +0.000 NA
ATOM      4  C   UNL     1       5.996   5.708  17.473  0.00  0.00    +0.000 A 
ATOM      5  C   UNL     1       5.590   4.639  16.698  0.00  0.00    +0.000 A 
ATOM      6  S   UNL     1       4.143   3.981  17.298  0.00  0.00    +0.000 S 
BRANCH   4   7
ATOM      7  C   UNL     1       7.164   6.519  17.117  0.00  0.00    +0.000 C 
ATOM      8  O   UNL     1       7.751   6.381  16.043  0.00  0.00    +0.000 OA
ATOM      9  N   UNL     1       7.535   7.467  18.050  0.00  0.00    +0.000 N 
ATOM     10  H   UNL     1       6.896   7.617  18.824  0.00  0.00    +0.000 HD
BRANCH   9  11
ATOM     11  C   UNL     1       8.556   8.439  17.696  0.00  0.00    +0.000 C 
BRANCH  11  12
ATOM     12  C   UNL     1       8.154   9.886  17.951  0.00  0.00    +0.000 C 
BRANCH  12  13
ATOM     13  C   UNL     1       9.276  10.642  18.621  0.00  0.00    +0.000 A 
ATOM     14  C   UNL     1      10.258  11.274  17.866  0.00  0.00    +0.000 A 
ATOM     15  C   UNL     1      11.268  11.981  18.520  0.00  0.00    +0.000 A 
ATOM     16  C   UNL     1      11.263  12.045  19.907  0.00  0.00    +0.000 A 
ATOM     17  C   UNL     1      10.243  11.400  20.584  0.00  0.00    +0.000 A 
ATOM     18  N   UNL     1       9.254  10.703  19.974  0.00  0.00    +0.000 NA
ENDBRANCH  12  13
ENDBRANCH  11  12
ENDBRANCH   9  11
ENDBRANCH   4   7
ENDBRANCH   1   2
BRANCH   1  21
ATOM     19  C   UNL     1       2.252   7.170  19.191  0.00  0.00    +0.000 C 
ATOM     20  O   UNL     1       2.291   6.969  17.983  0.00  0.00    +0.000 OA
ATOM     21  N   UNL     1       2.776   6.303  20.128  0.00  0.00    +0.000 N 
ATOM     22  H   UNL     1       2.533   6.448  21.099  0.00  0.00    +0.000 HD
BRANCH  19  25
ATOM     23  C   UNL     1       0.962   9.738  21.670  0.00  0.00    +0.000 A 
ATOM     24  C   UNL     1       1.449   8.546  21.104  0.00  0.00    +0.000 A 
ATOM     25  C   UNL     1       1.509   8.372  19.719  0.00  0.00    +0.000 A 
ATOM     26  C   UNL     1       0.954   9.359  18.907  0.00  0.00    +0.000 A 
ATOM     27  C   UNL     1       0.438  10.551  19.448  0.00  0.00    +0.000 A 
ATOM     28  C   UNL     1       0.450  10.764  20.843  0.00  0.00    +0.000 A 
BRANCH  23  30
ATOM     29  C   UNL     1      -0.216   9.388  23.713  0.00  0.00    +0.000 C 
ATOM     30  O   UNL     1       0.928   9.898  23.031  0.00  0.00    +0.000 OA
ENDBRANCH  23  30
BRANCH  27  31
ATOM     31  O   UNL     1      -0.011  11.385  18.452  0.00  0.00    +0.000 OA
ATOM     32  C   UNL     1      -1.347  11.275  17.988  0.00  0.00    +0.000 C 
ENDBRANCH  27  31
BRANCH  28  33
ATOM     33  O   UNL     1      -0.090  11.943  21.289  0.00  0.00    +0.000 OA
ATOM     34  C   UNL     1      -1.480  12.025  21.569  0.00  0.00    +0.000 C 
ENDBRANCH  28  33
ENDBRANCH  19  25
ENDBRANCH   1  21
BRANCH   1  35
ATOM     35  C   UNL     1       2.034   3.930  19.519  0.00  0.00    +0.000 C 
ATOM     36  C   UNL     1       2.390   2.445  19.655  0.00  0.00    +0.000 C 
ATOM     37  C   UNL     1       0.795   4.241  20.369  0.00  0.00    +0.000 C 
ENDBRANCH   1  35
TORSDOF 11
ENDMDL
MODEL 4
REMARK VINA RESULT:      -7.5      2.835      5.687
REMARK  Name = 
REMARK  16 active torsions:
REMARK  status: ('A' for Active; 'I' for Inactive)
REMARK    1  A    between atoms: C_1  and  O_2
REMARK    2  A    between atoms: O_2  and  C_3
REMARK    3  A    between atoms: C_5  and  C_6
REMARK    4  A    between atoms: N_8  and  C_9
REMARK    5  A    between atoms: C_9  and  C_10
REMARK    6  A    between atoms: C_9  and  C_26
REMARK    7  A    between atoms: C_12  and  C_13
REMARK    8  A    between atoms: N_15  and  C_16
REMARK    9  A    between atoms: C_16  and  C_17
REMARK   10  A    between atoms: C_17  and  C_18
REMARK   11  A    between atoms: C_26  and  C_27
REMARK   12  A    between atoms: C_26  and  C_28
REMARK   13  A    between atoms: C_30  and  O_31
REMARK   14  A    between atoms: O_31  and  C_32
REMARK   15  A    between atoms: C_33  and  O_34
REMARK   16  A    between atoms: O_34  and  C_35
REMARK                            x       y       z     vdW  Elec       q    Type
REMARK                         _______ _______ _______ _____ _____    ______ ____
ROOT
ATOM      1  C   UNL     1       0.957  10.242  19.611  0.00  0.00    +0.000 C 
ENDROOT
BRANCH   1   2
ATOM      2  C   UNL     1       0.232  10.415  20.950  0.00  0.00    +0.000 A 
ATOM      3  N   UNL     1      -0.472  11.482  21.300  0.00  0.00    +0.000 NA
ATOM      4  C   UNL     1      -1.032  11.294  22.572  0.00  0.00    +0.000 A 
ATOM      5  C   UNL     1      -0.704  10.090  23.165  0.00  0.00    +0.000 A 
ATOM      6  S   UNL     1       0.400   9.230  22.200  0.00  0.00    +0.000 S 
BRANCH   4   7
ATOM      7  C   UNL     1      -1.891  12.274  23.243  0.00  0.00    +0.000 C 
ATOM      8  O   UNL     1      -1.456  13.353  23.648  0.00  0.00    +0.000 OA
ATOM      9  N   UNL     1      -3.221  11.919  23.355  0.00  0.00    +0.000 N 
ATOM     10  H   UNL     1      -3.514  11.090  22.848  0.00  0.00    +0.000 HD
BRANCH   9  11
ATOM     11  C   UNL     1      -4.175  12.908  23.829  0.00  0.00    +0.000 C 
BRANCH  11  12
ATOM     12  C   UNL     1      -4.578  13.937  22.781  0.00  0.00    +0.000 C 
BRANCH  12  13
ATOM     13  C   UNL     1      -5.308  13.275  21.637  0.00  0.00    +0.000 A 
ATOM     14  C   UNL     1      -5.137  13.722  20.330  0.00  0.00    +0.000 A 
ATOM     15  C   UNL     1      -5.812  13.071  19.296  0.00  0.00    +0.000 A 
ATOM     16  C   UNL     1      -6.630  11.990  19.594  0.00  0.00    +0.000 A 
ATOM     17  C   UNL     1      -6.736  11.600  20.918  0.00  0.00    +0.000 A 
ATOM     18  N   UNL     1      -6.096  12.216  21.940  0.00  0.00    +0.000 NA
ENDBRANCH  12  13
ENDBRANCH  11  12
ENDBRANCH   9  11
ENDBRANCH   4   7
ENDBRANCH   1   2
BRANCH   1  21
ATOM     19  C   UNL     1       2.076   8.341  18.435  0.00  0.00    +0.000 C 
ATOM     20  O   UNL     1       2.385   9.004  17.452  0.00  0.00    +0.000 OA
ATOM     21  N   UNL     1       1.286   8.818  19.462  0.00  0.00    +0.000 N 
ATOM     22  H   UNL     1       1.239   8.278  20.316  0.00  0.00    +0.000 HD
BRANCH  19  25
ATOM     23  C   UNL     1       2.345   4.717  19.529  0.00  0.00    +0.000 A 
ATOM     24  C   UNL     1       1.997   6.078  19.470  0.00  0.00    +0.000 A 
ATOM     25  C   UNL     1       2.656   6.960  18.610  0.00  0.00    +0.000 A 
ATOM     26  C   UNL     1       3.759   6.487  17.902  0.00  0.00    +0.000 A 
ATOM     27  C   UNL     1       4.145   5.135  17.961  0.00  0.00    +0.000 A 
ATOM     28  C   UNL     1       3.429   4.224  18.768  0.00  0.00    +0.000 A 
BRANCH  23  30
ATOM     29  C   UNL     1       2.224   3.670  21.668  0.00  0.00    +0.000 C 
ATOM     30  O   UNL     1       1.674   3.864  20.366  0.00  0.00    +0.000 OA
ENDBRANCH  23  30
BRANCH  27  31
ATOM     31  O   UNL     1       5.227   4.900  17.147  0.00  0.00    +0.000 OA
ATOM     32  C   UNL     1       6.536   4.908  17.694  0.00  0.00    +0.000 C 
ENDBRANCH  27  31
BRANCH  28  33
ATOM     33  O   UNL     1       3.883   2.931  18.785  0.00  0.00    +0.000 OA
ATOM     34  C   UNL     1       3.271   1.954  17.955  0.00  0.00    +0.000 C 
ENDBRANCH  28  33
ENDBRANCH  19  25
ENDBRANCH   1  21
BRANCH   1  35
ATOM     35  C   UNL     1       0.233  10.892  18.393  0.00  0.00    +0.000 C 
ATOM     36  C   UNL     1      -1.185  10.385  18.110  0.00  0.00    +0.000 C 
ATOM     37  C   UNL     1       0.223  12.423  18.485  0.00  0.00    +0.000 C 
ENDBRANCH   1  35
TORSDOF 11
ENDMDL
MODEL 5
REMARK VINA RESULT:      -7.5      3.670      9.359
REMARK  Name = 
REMARK  16 active torsions:
REMARK  status: ('A' for Active; 'I' for Inactive)
REMARK    1  A    between atoms: C_1  and  O_2
REMARK    2  A    between atoms: O_2  and  C_3
REMARK    3  A    between atoms: C_5  and  C_6
REMARK    4  A    between atoms: N_8  and  C_9
REMARK    5  A    between atoms: C_9  and  C_10
REMARK    6  A    between atoms: C_9  and  C_26
REMARK    7  A    between atoms: C_12  and  C_13
REMARK    8  A    between atoms: N_15  and  C_16
REMARK    9  A    between atoms: C_16  and  C_17
REMARK   10  A    between atoms: C_17  and  C_18
REMARK   11  A    between atoms: C_26  and  C_27
REMARK   12  A    between atoms: C_26  and  C_28
REMARK   13  A    between atoms: C_30  and  O_31
REMARK   14  A    between atoms: O_31  and  C_32
REMARK   15  A    between atoms: C_33  and  O_34
REMARK   16  A    between atoms: O_34  and  C_35
REMARK                            x       y       z     vdW  Elec       q    Type
REMARK                         _______ _______ _______ _____ _____    ______ ____
ROOT
ATOM      1  C   UNL     1       3.281   4.589  18.537  0.00  0.00    +0.000 C 
ENDROOT
BRANCH   1   2
ATOM      2  C   UNL     1       4.625   5.056  17.967  0.00  0.00    +0.000 A 
ATOM      3  N   UNL     1       5.392   5.995  18.504  0.00  0.00    +0.000 NA
ATOM      4  C   UNL     1       6.565   6.147  17.751  0.00  0.00    +0.000 A 
ATOM      5  C   UNL     1       6.637   5.330  16.639  0.00  0.00    +0.000 A 
ATOM      6  S   UNL     1       5.194   4.453  16.449  0.00  0.00    +0.000 S 
BRANCH   4   7
ATOM      7  C   UNL     1       7.640   7.085  18.088  0.00  0.00    +0.000 C 
ATOM      8  O   UNL     1       8.553   6.782  18.857  0.00  0.00    +0.000 OA
ATOM      9  N   UNL     1       7.576   8.312  17.457  0.00  0.00    +0.000 N 
ATOM     10  H   UNL     1       6.885   8.408  16.720  0.00  0.00    +0.000 HD
BRANCH   9  11
ATOM     11  C   UNL     1       8.699   9.226  17.583  0.00  0.00    +0.000 C 
BRANCH  11  12
ATOM     12  C   UNL     1       8.665  10.086  18.840  0.00  0.00    +0.000 C 
BRANCH  12  13
ATOM     13  C   UNL     1       9.893  10.960  18.923  0.00  0.00    +0.000 A 
ATOM     14  C   UNL     1      10.527  11.408  17.768  0.00  0.00    +0.000 A 
ATOM     15  C   UNL     1      11.648  12.231  17.885  0.00  0.00    +0.000 A 
ATOM     16  C   UNL     1      12.098  12.591  19.148  0.00  0.00    +0.000 A 
ATOM     17  C   UNL     1      11.403  12.114  20.246  0.00  0.00    +0.000 A 
ATOM     18  N   UNL     1      10.316  11.310  20.161  0.00  0.00    +0.000 NA
ENDBRANCH  12  13
ENDBRANCH  11  12
ENDBRANCH   9  11
ENDBRANCH   4   7
ENDBRANCH   1   2
BRANCH   1  21
ATOM     19  C   UNL     1       2.101   6.241  19.994  0.00  0.00    +0.000 C 
ATOM     20  O   UNL     1       2.268   5.599  21.024  0.00  0.00    +0.000 OA
ATOM     21  N   UNL     1       2.444   5.778  18.740  0.00  0.00    +0.000 N 
ATOM     22  H   UNL     1       2.451   6.439  17.975  0.00  0.00    +0.000 HD
BRANCH  19  25
ATOM     23  C   UNL     1       1.237   9.774  18.909  0.00  0.00    +0.000 A 
ATOM     24  C   UNL     1       1.852   8.513  19.007  0.00  0.00    +0.000 A 
ATOM     25  C   UNL     1       1.588   7.657  20.079  0.00  0.00    +0.000 A 
ATOM     26  C   UNL     1       0.796   8.134  21.122  0.00  0.00    +0.000 A 
ATOM     27  C   UNL     1       0.188   9.401  21.062  0.00  0.00    +0.000 A 
ATOM     28  C   UNL     1       0.389  10.236  19.942  0.00  0.00    +0.000 A 
BRANCH  23  30
ATOM     29  C   UNL     1       2.373  11.693  18.067  0.00  0.00    +0.000 C 
ATOM     30  O   UNL     1       1.495  10.592  17.841  0.00  0.00    +0.000 OA
ENDBRANCH  23  30
BRANCH  27  31
ATOM     31  O   UNL     1      -0.576   9.629  22.181  0.00  0.00    +0.000 OA
ATOM     32  C   UNL     1      -0.006   9.465  23.470  0.00  0.00    +0.000 C 
ENDBRANCH  27  31
BRANCH  28  33
ATOM     33  O   UNL     1      -0.223  11.462  19.972  0.00  0.00    +0.000 OA
ATOM     34  C   UNL     1      -1.612  11.568  19.694  0.00  0.00    +0.000 C 
ENDBRANCH  28  33
ENDBRANCH  19  25
ENDBRANCH   1  21
BRANCH   1  35
ATOM     35  C   UNL     1       2.610   3.426  17.745  0.00  0.00    +0.000 C 
ATOM     36  C   UNL     1       3.166   2.024  18.016  0.00  0.00    +0.000 C 
ATOM     37  C   UNL     1       1.086   3.418  17.923  0.00  0.00    +0.000 C 
ENDBRANCH   1  35
TORSDOF 11
ENDMDL
MODEL 6
REMARK VINA RESULT:      -7.3      3.992     11.685
REMARK  Name = 
REMARK  16 active torsions:
REMARK  status: ('A' for Active; 'I' for Inactive)
REMARK    1  A    between atoms: C_1  and  O_2
REMARK    2  A    between atoms: O_2  and  C_3
REMARK    3  A    between atoms: C_5  and  C_6
REMARK    4  A    between atoms: N_8  and  C_9
REMARK    5  A    between atoms: C_9  and  C_10
REMARK    6  A    between atoms: C_9  and  C_26
REMARK    7  A    between atoms: C_12  and  C_13
REMARK    8  A    between atoms: N_15  and  C_16
REMARK    9  A    between atoms: C_16  and  C_17
REMARK   10  A    between atoms: C_17  and  C_18
REMARK   11  A    between atoms: C_26  and  C_27
REMARK   12  A    between atoms: C_26  and  C_28
REMARK   13  A    between atoms: C_30  and  O_31
REMARK   14  A    between atoms: O_31  and  C_32
REMARK   15  A    between atoms: C_33  and  O_34
REMARK   16  A    between atoms: O_34  and  C_35
REMARK                            x       y       z     vdW  Elec       q    Type
REMARK                         _______ _______ _______ _____ _____    ______ ____
ROOT
ATOM      1  C   UNL     1       0.805  11.344  19.175  0.00  0.00    +0.000 C 
ENDROOT
BRANCH   1   2
ATOM      2  C   UNL     1       1.020  10.041  19.953  0.00  0.00    +0.000 A 
ATOM      3  N   UNL     1       1.404   8.891  19.417  0.00  0.00    +0.000 NA
ATOM      4  C   UNL     1       1.541   7.917  20.417  0.00  0.00    +0.000 A 
ATOM      5  C   UNL     1       1.224   8.356  21.687  0.00  0.00    +0.000 A 
ATOM      6  S   UNL     1       0.636   9.950  21.638  0.00  0.00    +0.000 S 
BRANCH   4   7
ATOM      7  C   UNL     1       1.978   6.540  20.165  0.00  0.00    +0.000 C 
ATOM      8  O   UNL     1       1.475   5.579  20.749  0.00  0.00    +0.000 OA
ATOM      9  N   UNL     1       2.960   6.395  19.205  0.00  0.00    +0.000 N 
ATOM     10  H   UNL     1       3.192   7.222  18.664  0.00  0.00    +0.000 HD
BRANCH   9  11
ATOM     11  C   UNL     1       3.313   5.059  18.756  0.00  0.00    +0.000 C 
BRANCH  11  12
ATOM     12  C   UNL     1       4.698   4.600  19.193  0.00  0.00    +0.000 C 
BRANCH  12  13
ATOM     13  C   UNL     1       5.760   5.543  18.679  0.00  0.00    +0.000 A 
ATOM     14  C   UNL     1       7.015   5.594  19.277  0.00  0.00    +0.000 A 
ATOM     15  C   UNL     1       7.978   6.463  18.761  0.00  0.00    +0.000 A 
ATOM     16  C   UNL     1       7.663   7.248  17.661  0.00  0.00    +0.000 A 
ATOM     17  C   UNL     1       6.396   7.128  17.116  0.00  0.00    +0.000 A 
ATOM     18  N   UNL     1       5.443   6.297  17.600  0.00  0.00    +0.000 NA
ENDBRANCH  12  13
ENDBRANCH  11  12
ENDBRANCH   9  11
ENDBRANCH   4   7
ENDBRANCH   1   2
BRANCH   1  21
ATOM     19  C   UNL     1      -1.600  11.938  18.840  0.00  0.00    +0.000 C 
ATOM     20  O   UNL     1      -1.600  11.670  17.645  0.00  0.00    +0.000 OA
ATOM     21  N   UNL     1      -0.465  11.929  19.626  0.00  0.00    +0.000 N 
ATOM     22  H   UNL     1      -0.581  11.973  20.629  0.00  0.00    +0.000 HD
BRANCH  19  25
ATOM     23  C   UNL     1      -4.027  13.199  21.471  0.00  0.00    +0.000 A 
ATOM     24  C   UNL     1      -2.864  12.733  20.832  0.00  0.00    +0.000 A 
ATOM     25  C   UNL     1      -2.909  12.199  19.542  0.00  0.00    +0.000 A 
ATOM     26  C   UNL     1      -4.156  12.016  18.949  0.00  0.00    +0.000 A 
ATOM     27  C   UNL     1      -5.339  12.450  19.576  0.00  0.00    +0.000 A 
ATOM     28  C   UNL     1      -5.288  13.065  20.846  0.00  0.00    +0.000 A 
BRANCH  23  30
ATOM     29  C   UNL     1      -2.721  13.605  23.424  0.00  0.00    +0.000 C 
ATOM     30  O   UNL     1      -3.960  13.737  22.730  0.00  0.00    +0.000 OA
ENDBRANCH  23  30
BRANCH  27  31
ATOM     31  O   UNL     1      -6.432  12.203  18.781  0.00  0.00    +0.000 OA
ATOM     32  C   UNL     1      -6.799  10.865  18.481  0.00  0.00    +0.000 C 
ENDBRANCH  27  31
BRANCH  28  33
ATOM     33  O   UNL     1      -6.486  13.440  21.395  0.00  0.00    +0.000 OA
ATOM     34  C   UNL     1      -7.266  12.492  22.110  0.00  0.00    +0.000 C 
ENDBRANCH  28  33
ENDBRANCH  19  25
ENDBRANCH   1  21
BRANCH   1  35
ATOM     35  C   UNL     1       2.027  12.312  19.181  0.00  0.00    +0.000 C 
ATOM     36  C   UNL     1       2.261  13.099  17.887  0.00  0.00    +0.000 C 
ATOM     37  C   UNL     1       1.983  13.280  20.370  0.00  0.00    +0.000 C 
ENDBRANCH   1  35
TORSDOF 11
ENDMDL
MODEL 7
REMARK VINA RESULT:      -7.3      4.078     10.611
REMARK  Name = 
REMARK  16 active torsions:
REMARK  status: ('A' for Active; 'I' for Inactive)
REMARK    1  A    between atoms: C_1  and  O_2
REMARK    2  A    between atoms: O_2  and  C_3
REMARK    3  A    between atoms: C_5  and  C_6
REMARK    4  A    between atoms: N_8  and  C_9
REMARK    5  A    between atoms: C_9  and  C_10
REMARK    6  A    between atoms: C_9  and  C_26
REMARK    7  A    between atoms: C_12  and  C_13
REMARK    8  A    between atoms: N_15  and  C_16
REMARK    9  A    between atoms: C_16  and  C_17
REMARK   10  A    between atoms: C_17  and  C_18
REMARK   11  A    between atoms: C_26  and  C_27
REMARK   12  A    between atoms: C_26  and  C_28
REMARK   13  A    between atoms: C_30  and  O_31
REMARK   14  A    between atoms: O_31  and  C_32
REMARK   15  A    between atoms: C_33  and  O_34
REMARK   16  A    between atoms: O_34  and  C_35
REMARK                            x       y       z     vdW  Elec       q    Type
REMARK                         _______ _______ _______ _____ _____    ______ ____
ROOT
ATOM      1  C   UNL     1       0.787   9.834  20.852  0.00  0.00    +0.000 C 
ENDROOT
BRANCH   1   2
ATOM      2  C   UNL     1       1.403   8.958  19.756  0.00  0.00    +0.000 A 
ATOM      3  N   UNL     1       1.704   7.674  19.891  0.00  0.00    +0.000 NA
ATOM      4  C   UNL     1       2.214   7.170  18.685  0.00  0.00    +0.000 A 
ATOM      5  C   UNL     1       2.312   8.106  17.674  0.00  0.00    +0.000 A 
ATOM      6  S   UNL     1       1.886   9.649  18.245  0.00  0.00    +0.000 S 
BRANCH   4   7
ATOM      7  C   UNL     1       2.620   5.775  18.485  0.00  0.00    +0.000 C 
ATOM      8  O   UNL     1       2.067   5.047  17.660  0.00  0.00    +0.000 OA
ATOM      9  N   UNL     1       3.683   5.350  19.257  0.00  0.00    +0.000 N 
ATOM     10  H   UNL     1       4.176   6.065  19.784  0.00  0.00    +0.000 HD
BRANCH   9  11
ATOM     11  C   UNL     1       4.272   4.050  18.987  0.00  0.00    +0.000 C 
BRANCH  11  12
ATOM     12  C   UNL     1       5.285   4.049  17.848  0.00  0.00    +0.000 C 
BRANCH  12  13
ATOM     13  C   UNL     1       6.299   5.152  18.035  0.00  0.00    +0.000 A 
ATOM     14  C   UNL     1       6.404   6.185  17.109  0.00  0.00    +0.000 A 
ATOM     15  C   UNL     1       7.339   7.199  17.327  0.00  0.00    +0.000 A 
ATOM     16  C   UNL     1       8.134   7.156  18.464  0.00  0.00    +0.000 A 
ATOM     17  C   UNL     1       7.957   6.101  19.342  0.00  0.00    +0.000 A 
ATOM     18  N   UNL     1       7.062   5.103  19.153  0.00  0.00    +0.000 NA
ENDBRANCH  12  13
ENDBRANCH  11  12
ENDBRANCH   9  11
ENDBRANCH   4   7
ENDBRANCH   1   2
BRANCH   1  21
ATOM     19  C   UNL     1      -0.790  11.545  19.940  0.00  0.00    +0.000 C 
ATOM     20  O   UNL     1      -0.014  12.481  20.091  0.00  0.00    +0.000 OA
ATOM     21  N   UNL     1      -0.539  10.264  20.388  0.00  0.00    +0.000 N 
ATOM     22  H   UNL     1      -1.136   9.519  20.056  0.00  0.00    +0.000 HD
BRANCH  19  25
ATOM     23  C   UNL     1      -3.153  11.499  16.970  0.00  0.00    +0.000 A 
ATOM     24  C   UNL     1      -1.988  11.536  17.757  0.00  0.00    +0.000 A 
ATOM     25  C   UNL     1      -2.050  11.749  19.137  0.00  0.00    +0.000 A 
ATOM     26  C   UNL     1      -3.288  12.053  19.700  0.00  0.00    +0.000 A 
ATOM     27  C   UNL     1      -4.466  12.047  18.931  0.00  0.00    +0.000 A 
ATOM     28  C   UNL     1      -4.416  11.753  17.552  0.00  0.00    +0.000 A 
BRANCH  23  30
ATOM     29  C   UNL     1      -3.347   9.945  15.172  0.00  0.00    +0.000 C 
ATOM     30  O   UNL     1      -3.072  11.270  15.621  0.00  0.00    +0.000 OA
ENDBRANCH  23  30
BRANCH  27  31
ATOM     31  O   UNL     1      -5.560  12.332  19.712  0.00  0.00    +0.000 OA
ATOM     32  C   UNL     1      -5.636  13.573  20.395  0.00  0.00    +0.000 C 
ENDBRANCH  27  31
BRANCH  28  33
ATOM     33  O   UNL     1      -5.606  11.787  16.872  0.00  0.00    +0.000 OA
ATOM     34  C   UNL     1      -6.313  13.012  16.742  0.00  0.00    +0.000 C 
ENDBRANCH  28  33
ENDBRANCH  19  25
ENDBRANCH   1  21
BRANCH   1  35
ATOM     35  C   UNL     1       0.825   9.210  22.280  0.00  0.00    +0.000 C 
ATOM     36  C   UNL     1       2.136   9.390  23.053  0.00  0.00    +0.000 C 
ATOM     37  C   UNL     1      -0.351   9.685  23.143  0.00  0.00    +0.000 C 
ENDBRANCH   1  35
TORSDOF 11
ENDMDL
MODEL 8
REMARK VINA RESULT:      -7.3      2.732      3.415
REMARK  Name = 
REMARK  16 active torsions:
REMARK  status: ('A' for Active; 'I' for Inactive)
REMARK    1  A    between atoms: C_1  and  O_2
REMARK    2  A    between atoms: O_2  and  C_3
REMARK    3  A    between atoms: C_5  and  C_6
REMARK    4  A    between atoms: N_8  and  C_9
REMARK    5  A    between atoms: C_9  and  C_10
REMARK    6  A    between atoms: C_9  and  C_26
REMARK    7  A    between atoms: C_12  and  C_13
REMARK    8  A    between atoms: N_15  and  C_16
REMARK    9  A    between atoms: C_16  and  C_17
REMARK   10  A    between atoms: C_17  and  C_18
REMARK   11  A    between atoms: C_26  and  C_27
REMARK   12  A    between atoms: C_26  and  C_28
REMARK   13  A    between atoms: C_30  and  O_31
REMARK   14  A    between atoms: O_31  and  C_32
REMARK   15  A    between atoms: C_33  and  O_34
REMARK   16  A    between atoms: O_34  and  C_35
REMARK                            x       y       z     vdW  Elec       q    Type
REMARK                         _______ _______ _______ _____ _____    ______ ____
ROOT
ATOM      1  C   UNL     1       2.129   5.002  18.903  0.00  0.00    +0.000 C 
ENDROOT
BRANCH   1   2
ATOM      2  C   UNL     1       1.904   6.457  19.331  0.00  0.00    +0.000 A 
ATOM      3  N   UNL     1       1.905   7.498  18.511  0.00  0.00    +0.000 NA
ATOM      4  C   UNL     1       1.630   8.673  19.225  0.00  0.00    +0.000 A 
ATOM      5  C   UNL     1       1.458   8.486  20.583  0.00  0.00    +0.000 A 
ATOM      6  S   UNL     1       1.756   6.867  21.005  0.00  0.00    +0.000 S 
BRANCH   4   7
ATOM      7  C   UNL     1       1.531  10.001  18.612  0.00  0.00    +0.000 C 
ATOM      8  O   UNL     1       2.147  10.294  17.586  0.00  0.00    +0.000 OA
ATOM      9  N   UNL     1       0.673  10.883  19.240  0.00  0.00    +0.000 N 
ATOM     10  H   UNL     1       0.088  10.500  19.976  0.00  0.00    +0.000 HD
BRANCH   9  11
ATOM     11  C   UNL     1       0.368  12.148  18.593  0.00  0.00    +0.000 C 
BRANCH  11  12
ATOM     12  C   UNL     1      -1.106  12.533  18.643  0.00  0.00    +0.000 C 
BRANCH  12  13
ATOM     13  C   UNL     1      -1.935  11.580  17.815  0.00  0.00    +0.000 A 
ATOM     14  C   UNL     1      -2.087  11.775  16.446  0.00  0.00    +0.000 A 
ATOM     15  C   UNL     1      -2.843  10.862  15.710  0.00  0.00    +0.000 A 
ATOM     16  C   UNL     1      -3.417   9.777  16.359  0.00  0.00    +0.000 A 
ATOM     17  C   UNL     1      -3.207   9.648  17.721  0.00  0.00    +0.000 A 
ATOM     18  N   UNL     1      -2.482  10.522  18.459  0.00  0.00    +0.000 NA
ENDBRANCH  12  13
ENDBRANCH  11  12
ENDBRANCH   9  11
ENDBRANCH   4   7
ENDBRANCH   1   2
BRANCH   1  21
ATOM     19  C   UNL     1       3.717   4.128  17.182  0.00  0.00    +0.000 C 
ATOM     20  O   UNL     1       2.945   3.273  16.765  0.00  0.00    +0.000 OA
ATOM     21  N   UNL     1       3.459   4.919  18.283  0.00  0.00    +0.000 N 
ATOM     22  H   UNL     1       4.053   5.721  18.443  0.00  0.00    +0.000 HD
BRANCH  19  25
ATOM     23  C   UNL     1       6.212   4.143  14.322  0.00  0.00    +0.000 A 
ATOM     24  C   UNL     1       5.173   3.771  15.195  0.00  0.00    +0.000 A 
ATOM     25  C   UNL     1       4.981   4.425  16.414  0.00  0.00    +0.000 A 
ATOM     26  C   UNL     1       5.923   5.372  16.809  0.00  0.00    +0.000 A 
ATOM     27  C   UNL     1       6.986   5.746  15.966  0.00  0.00    +0.000 A 
ATOM     28  C   UNL     1       7.136   5.144  14.698  0.00  0.00    +0.000 A 
BRANCH  23  30
ATOM     29  C   UNL     1       5.199   3.288  12.340  0.00  0.00    +0.000 C 
ATOM     30  O   UNL     1       6.373   3.502  13.122  0.00  0.00    +0.000 OA
ENDBRANCH  23  30
BRANCH  27  31
ATOM     31  O   UNL     1       7.753   6.724  16.552  0.00  0.00    +0.000 OA
ATOM     32  C   UNL     1       7.711   6.906  17.959  0.00  0.00    +0.000 C 
ENDBRANCH  27  31
BRANCH  28  33
ATOM     33  O   UNL     1       8.209   5.550  13.948  0.00  0.00    +0.000 OA
ATOM     34  C   UNL     1       8.078   5.694  12.541  0.00  0.00    +0.000 C 
ENDBRANCH  28  33
ENDBRANCH  19  25
ENDBRANCH   1  21
BRANCH   1  35
ATOM     35  C   UNL     1       1.844   3.947  20.015  0.00  0.00    +0.000 C 
ATOM     36  C   UNL     1       0.855   2.837  19.644  0.00  0.00    +0.000 C 
ATOM     37  C   UNL     1       3.137   3.324  20.557  0.00  0.00    +0.000 C 
ENDBRANCH   1  35
TORSDOF 11
ENDMDL
MODEL 9
REMARK VINA RESULT:      -7.3      2.943      5.720
REMARK  Name = 
REMARK  16 active torsions:
REMARK  status: ('A' for Active; 'I' for Inactive)
REMARK    1  A    between atoms: C_1  and  O_2
REMARK    2  A    between atoms: O_2  and  C_3
REMARK    3  A    between atoms: C_5  and  C_6
REMARK    4  A    between atoms: N_8  and  C_9
REMARK    5  A    between atoms: C_9  and  C_10
REMARK    6  A    between atoms: C_9  and  C_26
REMARK    7  A    between atoms: C_12  and  C_13
REMARK    8  A    between atoms: N_15  and  C_16
REMARK    9  A    between atoms: C_16  and  C_17
REMARK   10  A    between atoms: C_17  and  C_18
REMARK   11  A    between atoms: C_26  and  C_27
REMARK   12  A    between atoms: C_26  and  C_28
REMARK   13  A    between atoms: C_30  and  O_31
REMARK   14  A    between atoms: O_31  and  C_32
REMARK   15  A    between atoms: C_33  and  O_34
REMARK   16  A    between atoms: O_34  and  C_35
REMARK                            x       y       z     vdW  Elec       q    Type
REMARK                         _______ _______ _______ _____ _____    ______ ____
ROOT
ATOM      1  C   UNL     1       0.050  10.556  19.121  0.00  0.00    +0.000 C 
ENDROOT
BRANCH   1   2
ATOM      2  C   UNL     1      -0.380  10.660  20.589  0.00  0.00    +0.000 A 
ATOM      3  N   UNL     1      -1.043  11.680  21.114  0.00  0.00    +0.000 NA
ATOM      4  C   UNL     1      -1.309  11.434  22.470  0.00  0.00    +0.000 A 
ATOM      5  C   UNL     1      -0.806  10.236  22.939  0.00  0.00    +0.000 A 
ATOM      6  S   UNL     1       0.107   9.459  21.735  0.00  0.00    +0.000 S 
BRANCH   4   7
ATOM      7  C   UNL     1      -2.051  12.352  23.339  0.00  0.00    +0.000 C 
ATOM      8  O   UNL     1      -1.599  13.450  23.666  0.00  0.00    +0.000 OA
ATOM      9  N   UNL     1      -3.301  11.916  23.734  0.00  0.00    +0.000 N 
ATOM     10  H   UNL     1      -3.652  11.077  23.282  0.00  0.00    +0.000 HD
BRANCH   9  11
ATOM     11  C   UNL     1      -4.179  12.839  24.433  0.00  0.00    +0.000 C 
BRANCH  11  12
ATOM     12  C   UNL     1      -5.011  13.724  23.513  0.00  0.00    +0.000 C 
BRANCH  12  13
ATOM     13  C   UNL     1      -5.851  12.886  22.580  0.00  0.00    +0.000 A 
ATOM     14  C   UNL     1      -7.158  12.546  22.913  0.00  0.00    +0.000 A 
ATOM     15  C   UNL     1      -7.911  11.787  22.015  0.00  0.00    +0.000 A 
ATOM     16  C   UNL     1      -7.342  11.398  20.810  0.00  0.00    +0.000 A 
ATOM     17  C   UNL     1      -6.040  11.789  20.550  0.00  0.00    +0.000 A 
ATOM     18  N   UNL     1      -5.286  12.521  21.405  0.00  0.00    +0.000 NA
ENDBRANCH  12  13
ENDBRANCH  11  12
ENDBRANCH   9  11
ENDBRANCH   4   7
ENDBRANCH   1   2
BRANCH   1  21
ATOM     19  C   UNL     1       1.800   9.042  18.175  0.00  0.00    +0.000 C 
ATOM     20  O   UNL     1       2.276   9.895  17.437  0.00  0.00    +0.000 OA
ATOM     21  N   UNL     1       0.657   9.233  18.926  0.00  0.00    +0.000 N 
ATOM     22  H   UNL     1       0.444   8.556  19.647  0.00  0.00    +0.000 HD
BRANCH  19  25
ATOM     23  C   UNL     1       4.476   6.380  17.781  0.00  0.00    +0.000 A 
ATOM     24  C   UNL     1       3.614   7.463  17.532  0.00  0.00    +0.000 A 
ATOM     25  C   UNL     1       2.533   7.739  18.373  0.00  0.00    +0.000 A 
ATOM     26  C   UNL     1       2.248   6.836  19.395  0.00  0.00    +0.000 A 
ATOM     27  C   UNL     1       3.079   5.730  19.651  0.00  0.00    +0.000 A 
ATOM     28  C   UNL     1       4.219   5.495  18.853  0.00  0.00    +0.000 A 
BRANCH  23  30
ATOM     29  C   UNL     1       5.310   6.240  15.552  0.00  0.00    +0.000 C 
ATOM     30  O   UNL     1       5.542   6.137  16.955  0.00  0.00    +0.000 OA
ENDBRANCH  23  30
BRANCH  27  31
ATOM     31  O   UNL     1       2.620   5.015  20.731  0.00  0.00    +0.000 OA
ATOM     32  C   UNL     1       1.369   4.349  20.657  0.00  0.00    +0.000 C 
ENDBRANCH  27  31
BRANCH  28  33
ATOM     33  O   UNL     1       4.963   4.385  19.157  0.00  0.00    +0.000 OA
ATOM     34  C   UNL     1       5.823   3.818  18.178  0.00  0.00    +0.000 C 
ENDBRANCH  28  33
ENDBRANCH  19  25
ENDBRANCH   1  21
BRANCH   1  35
ATOM     35  C   UNL     1      -1.055  10.942  18.092  0.00  0.00    +0.000 C 
ATOM     36  C   UNL     1      -2.380  10.182  18.218  0.00  0.00    +0.000 C 
ATOM     37  C   UNL     1      -1.328  12.452  18.086  0.00  0.00    +0.000 C 
ENDBRANCH   1  35
TORSDOF 11
ENDMDL
