MODEL 1
REMARK VINA RESULT:      -6.9      0.000      0.000
REMARK  Name = 
REMARK  5 active torsions:
REMARK  status: ('A' for Active; 'I' for Inactive)
REMARK    1  A    between atoms: C_1  and  C_2
REMARK    2  A    between atoms: C_5  and  P_6
REMARK    3  A    between atoms: P_6  and  O_8
REMARK    4  A    between atoms: P_6  and  C_9
REMARK    5  A    between atoms: C_12  and  C_13
REMARK                            x       y       z     vdW  Elec       q    Type
REMARK                         _______ _______ _______ _____ _____    ______ ____
ROOT
ATOM      1  P   UNL     1       6.422   5.020  17.991  0.00  0.00    +0.000 P 
ATOM      2  O   UNL     1       7.685   4.417  18.552  0.00  0.00    +0.000 OA
ENDROOT
BRANCH   1   7
ATOM      3  C   UNL     1       6.333   3.396  12.158  0.00  0.00    +0.000 C 
ATOM      4  C   UNL     1       6.251   4.005  13.529  0.00  0.00    +0.000 A 
ATOM      5  C   UNL     1       5.160   3.742  14.359  0.00  0.00    +0.000 A 
ATOM      6  C   UNL     1       5.170   4.167  15.689  0.00  0.00    +0.000 A 
ATOM      7  C   UNL     1       6.273   4.850  16.219  0.00  0.00    +0.000 A 
ATOM      8  C   UNL     1       7.314   5.212  15.350  0.00  0.00    +0.000 A 
ATOM      9  C   UNL     1       7.303   4.788  14.016  0.00  0.00    +0.000 A 
ENDBRANCH   1   7
BRANCH   1  10
ATOM     10  C   UNL     1       4.945   4.637  18.888  0.00  0.00    +0.000 A 
ATOM     11  C   UNL     1       4.696   3.313  19.277  0.00  0.00    +0.000 A 
ATOM     12  C   UNL     1       3.519   2.969  19.947  0.00  0.00    +0.000 A 
ATOM     13  C   UNL     1       2.567   3.947  20.246  0.00  0.00    +0.000 A 
ATOM     14  C   UNL     1       1.246   3.576  20.851  0.00  0.00    +0.000 C 
ATOM     15  C   UNL     1       2.843   5.282  19.930  0.00  0.00    +0.000 A 
ATOM     16  C   UNL     1       4.023   5.623  19.261  0.00  0.00    +0.000 A 
ENDBRANCH   1  10
BRANCH   1  17
ATOM     17  O   UNL     1       6.577   6.633  18.129  0.00  0.00    +0.000 OA
ATOM     18  H   UNL     1       7.328   6.854  18.717  0.00  0.00    +0.000 HD
ENDBRANCH   1  17
TORSDOF 3
ENDMDL
MODEL 2
REMARK VINA RESULT:      -6.9      1.563      6.228
REMARK  Name = 
REMARK  5 active torsions:
REMARK  status: ('A' for Active; 'I' for Inactive)
REMARK    1  A    between atoms: C_1  and  C_2
REMARK    2  A    between atoms: C_5  and  P_6
REMARK    3  A    between atoms: P_6  and  O_8
REMARK    4  A    between atoms: P_6  and  C_9
REMARK    5  A    between atoms: C_12  and  C_13
REMARK                            x       y       z     vdW  Elec       q    Type
REMARK                         _______ _______ _______ _____ _____    ______ ____
ROOT
ATOM      1  P   UNL     1       5.454   4.624  18.857  0.00  0.00    +0.000 P 
ATOM      2  O   UNL     1       6.595   5.135  19.700  0.00  0.00    +0.000 OA
ENDROOT
BRANCH   1   7
ATOM      3  C   UNL     1       0.715   7.744  20.973  0.00  0.00    +0.000 C 
ATOM      4  C   UNL     1       1.731   6.870  20.294  0.00  0.00    +0.000 A 
ATOM      5  C   UNL     1       2.484   7.356  19.223  0.00  0.00    +0.000 A 
ATOM      6  C   UNL     1       3.542   6.604  18.710  0.00  0.00    +0.000 A 
ATOM      7  C   UNL     1       3.878   5.361  19.263  0.00  0.00    +0.000 A 
ATOM      8  C   UNL     1       3.047   4.828  20.261  0.00  0.00    +0.000 A 
ATOM      9  C   UNL     1       1.985   5.581  20.774  0.00  0.00    +0.000 A 
ENDBRANCH   1   7
BRANCH   1  10
ATOM     10  C   UNL     1       5.789   4.528  17.121  0.00  0.00    +0.000 A 
ATOM     11  C   UNL     1       4.780   4.099  16.246  0.00  0.00    +0.000 A 
ATOM     12  C   UNL     1       5.025   3.969  14.876  0.00  0.00    +0.000 A 
ATOM     13  C   UNL     1       6.285   4.271  14.353  0.00  0.00    +0.000 A 
ATOM     14  C   UNL     1       6.601   4.019  12.909  0.00  0.00    +0.000 C 
ATOM     15  C   UNL     1       7.272   4.774  15.209  0.00  0.00    +0.000 A 
ATOM     16  C   UNL     1       7.023   4.904  16.578  0.00  0.00    +0.000 A 
ENDBRANCH   1  10
BRANCH   1  17
ATOM     17  O   UNL     1       5.196   3.084  19.310  0.00  0.00    +0.000 OA
ATOM     18  H   UNL     1       6.034   2.668  19.597  0.00  0.00    +0.000 HD
ENDBRANCH   1  17
TORSDOF 3
ENDMDL
MODEL 3
REMARK VINA RESULT:      -6.9      1.120      5.909
REMARK  Name = 
REMARK  5 active torsions:
REMARK  status: ('A' for Active; 'I' for Inactive)
REMARK    1  A    between atoms: C_1  and  C_2
REMARK    2  A    between atoms: C_5  and  P_6
REMARK    3  A    between atoms: P_6  and  O_8
REMARK    4  A    between atoms: P_6  and  C_9
REMARK    5  A    between atoms: C_12  and  C_13
REMARK                            x       y       z     vdW  Elec       q    Type
REMARK                         _______ _______ _______ _____ _____    ______ ____
ROOT
ATOM      1  P   UNL     1       5.935   5.140  17.618  0.00  0.00    +0.000 P 
ATOM      2  O   UNL     1       6.281   6.539  18.060  0.00  0.00    +0.000 OA
ENDROOT
BRANCH   1   7
ATOM      3  C   UNL     1       0.645   2.460  18.842  0.00  0.00    +0.000 C 
ATOM      4  C   UNL     1       1.919   3.249  18.744  0.00  0.00    +0.000 A 
ATOM      5  C   UNL     1       3.113   2.735  19.253  0.00  0.00    +0.000 A 
ATOM      6  C   UNL     1       4.322   3.390  19.007  0.00  0.00    +0.000 A 
ATOM      7  C   UNL     1       4.363   4.561  18.239  0.00  0.00    +0.000 A 
ATOM      8  C   UNL     1       3.149   5.134  17.829  0.00  0.00    +0.000 A 
ATOM      9  C   UNL     1       1.937   4.479  18.077  0.00  0.00    +0.000 A 
ENDBRANCH   1   7
BRANCH   1  10
ATOM     10  C   UNL     1       6.208   4.806  15.901  0.00  0.00    +0.000 A 
ATOM     11  C   UNL     1       5.245   4.091  15.174  0.00  0.00    +0.000 A 
ATOM     12  C   UNL     1       5.451   3.773  13.829  0.00  0.00    +0.000 A 
ATOM     13  C   UNL     1       6.624   4.169  13.181  0.00  0.00    +0.000 A 
ATOM     14  C   UNL     1       6.915   3.730  11.777  0.00  0.00    +0.000 C 
ATOM     15  C   UNL     1       7.552   4.950  13.878  0.00  0.00    +0.000 A 
ATOM     16  C   UNL     1       7.343   5.268  15.224  0.00  0.00    +0.000 A 
ENDBRANCH   1  10
BRANCH   1  17
ATOM     17  O   UNL     1       6.955   4.141  18.396  0.00  0.00    +0.000 OA
ATOM     18  H   UNL     1       7.878   4.451  18.296  0.00  0.00    +0.000 HD
ENDBRANCH   1  17
TORSDOF 3
ENDMDL
MODEL 4
REMARK VINA RESULT:      -6.8      1.311      5.962
REMARK  Name = 
REMARK  5 active torsions:
REMARK  status: ('A' for Active; 'I' for Inactive)
REMARK    1  A    between atoms: C_1  and  C_2
REMARK    2  A    between atoms: C_5  and  P_6
REMARK    3  A    between atoms: P_6  and  O_8
REMARK    4  A    between atoms: P_6  and  C_9
REMARK    5  A    between atoms: C_12  and  C_13
REMARK                            x       y       z     vdW  Elec       q    Type
REMARK                         _______ _______ _______ _____ _____    ______ ____
ROOT
ATOM      1  P   UNL     1       6.945   5.800  16.703  0.00  0.00    +0.000 P 
ATOM      2  O   UNL     1       7.759   7.061  16.562  0.00  0.00    +0.000 OA
ENDROOT
BRANCH   1   7
ATOM      3  C   UNL     1       1.855   5.426  19.962  0.00  0.00    +0.000 C 
ATOM      4  C   UNL     1       3.174   5.705  19.299  0.00  0.00    +0.000 A 
ATOM      5  C   UNL     1       4.325   5.021  19.694  0.00  0.00    +0.000 A 
ATOM      6  C   UNL     1       5.508   5.155  18.964  0.00  0.00    +0.000 A 
ATOM      7  C   UNL     1       5.561   5.963  17.820  0.00  0.00    +0.000 A 
ATOM      8  C   UNL     1       4.435   6.736  17.497  0.00  0.00    +0.000 A 
ATOM      9  C   UNL     1       3.250   6.603  18.230  0.00  0.00    +0.000 A 
ENDBRANCH   1   7
BRANCH   1  10
ATOM     10  C   UNL     1       6.561   4.980  15.181  0.00  0.00    +0.000 A 
ATOM     11  C   UNL     1       5.357   4.271  15.063  0.00  0.00    +0.000 A 
ATOM     12  C   UNL     1       5.045   3.576  13.891  0.00  0.00    +0.000 A 
ATOM     13  C   UNL     1       5.931   3.580  12.811  0.00  0.00    +0.000 A 
ATOM     14  C   UNL     1       5.670   2.740  11.597  0.00  0.00    +0.000 C 
ATOM     15  C   UNL     1       7.097   4.349  12.894  0.00  0.00    +0.000 A 
ATOM     16  C   UNL     1       7.406   5.044  14.067  0.00  0.00    +0.000 A 
ENDBRANCH   1  10
BRANCH   1  17
ATOM     17  O   UNL     1       7.870   4.739  17.517  0.00  0.00    +0.000 OA
ATOM     18  H   UNL     1       7.847   3.863  17.082  0.00  0.00    +0.000 HD
ENDBRANCH   1  17
TORSDOF 3
ENDMDL
MODEL 5
REMARK VINA RESULT:      -6.8      0.152      1.176
REMARK  Name = 
REMARK  5 active torsions:
REMARK  status: ('A' for Active; 'I' for Inactive)
REMARK    1  A    between atoms: C_1  and  C_2
REMARK    2  A    between atoms: C_5  and  P_6
REMARK    3  A    between atoms: P_6  and  O_8
REMARK    4  A    between atoms: P_6  and  C_9
REMARK    5  A    between atoms: C_12  and  C_13
REMARK                            x       y       z     vdW  Elec       q    Type
REMARK                         _______ _______ _______ _____ _____    ______ ____
ROOT
ATOM      1  P   UNL     1       6.391   5.092  17.910  0.00  0.00    +0.000 P 
ATOM      2  O   UNL     1       7.687   4.578  18.485  0.00  0.00    +0.000 OA
ENDROOT
BRANCH   1   7
ATOM      3  C   UNL     1       6.413   3.398  12.097  0.00  0.00    +0.000 C 
ATOM      4  C   UNL     1       6.299   4.021  13.459  0.00  0.00    +0.000 A 
ATOM      5  C   UNL     1       5.205   3.739  14.280  0.00  0.00    +0.000 A 
ATOM      6  C   UNL     1       5.189   4.180  15.605  0.00  0.00    +0.000 A 
ATOM      7  C   UNL     1       6.268   4.897  16.139  0.00  0.00    +0.000 A 
ATOM      8  C   UNL     1       7.309   5.275  15.278  0.00  0.00    +0.000 A 
ATOM      9  C   UNL     1       7.325   4.836  13.949  0.00  0.00    +0.000 A 
ENDBRANCH   1   7
BRANCH   1  10
ATOM     10  C   UNL     1       4.935   4.620  18.800  0.00  0.00    +0.000 A 
ATOM     11  C   UNL     1       3.941   5.576  19.055  0.00  0.00    +0.000 A 
ATOM     12  C   UNL     1       2.800   5.247  19.792  0.00  0.00    +0.000 A 
ATOM     13  C   UNL     1       2.629   3.952  20.287  0.00  0.00    +0.000 A 
ATOM     14  C   UNL     1       1.475   3.616  21.183  0.00  0.00    +0.000 C 
ATOM     15  C   UNL     1       3.579   2.974  19.970  0.00  0.00    +0.000 A 
ATOM     16  C   UNL     1       4.718   3.306  19.230  0.00  0.00    +0.000 A 
ENDBRANCH   1  10
BRANCH   1  17
ATOM     17  O   UNL     1       6.439   6.713  18.035  0.00  0.00    +0.000 OA
ATOM     18  H   UNL     1       5.895   7.125  17.333  0.00  0.00    +0.000 HD
ENDBRANCH   1  17
TORSDOF 3
ENDMDL
MODEL 6
REMARK VINA RESULT:      -6.7      0.725      6.120
REMARK  Name = 
REMARK  5 active torsions:
REMARK  status: ('A' for Active; 'I' for Inactive)
REMARK    1  A    between atoms: C_1  and  C_2
REMARK    2  A    between atoms: C_5  and  P_6
REMARK    3  A    between atoms: P_6  and  O_8
REMARK    4  A    between atoms: P_6  and  C_9
REMARK    5  A    between atoms: C_12  and  C_13
REMARK                            x       y       z     vdW  Elec       q    Type
REMARK                         _______ _______ _______ _____ _____    ______ ____
ROOT
ATOM      1  P   UNL     1       5.848   5.024  17.692  0.00  0.00    +0.000 P 
ATOM      2  O   UNL     1       6.023   6.459  18.119  0.00  0.00    +0.000 OA
ENDROOT
BRANCH   1   7
ATOM      3  C   UNL     1       1.009   3.140  20.807  0.00  0.00    +0.000 C 
ATOM      4  C   UNL     1       2.137   3.449  19.864  0.00  0.00    +0.000 A 
ATOM      5  C   UNL     1       2.034   4.503  18.954  0.00  0.00    +0.000 A 
ATOM      6  C   UNL     1       3.144   4.895  18.203  0.00  0.00    +0.000 A 
ATOM      7  C   UNL     1       4.380   4.253  18.356  0.00  0.00    +0.000 A 
ATOM      8  C   UNL     1       4.447   3.123  19.185  0.00  0.00    +0.000 A 
ATOM      9  C   UNL     1       3.334   2.728  19.936  0.00  0.00    +0.000 A 
ENDBRANCH   1   7
BRANCH   1  10
ATOM     10  C   UNL     1       6.120   4.714  15.970  0.00  0.00    +0.000 A 
ATOM     11  C   UNL     1       5.131   4.059  15.221  0.00  0.00    +0.000 A 
ATOM     12  C   UNL     1       5.333   3.761  13.871  0.00  0.00    +0.000 A 
ATOM     13  C   UNL     1       6.528   4.115  13.241  0.00  0.00    +0.000 A 
ATOM     14  C   UNL     1       6.811   3.693  11.830  0.00  0.00    +0.000 C 
ATOM     15  C   UNL     1       7.486   4.838  13.962  0.00  0.00    +0.000 A 
ATOM     16  C   UNL     1       7.281   5.137  15.312  0.00  0.00    +0.000 A 
ENDBRANCH   1  10
BRANCH   1  17
ATOM     17  O   UNL     1       7.008   4.170  18.449  0.00  0.00    +0.000 OA
ATOM     18  H   UNL     1       7.423   3.536  17.830  0.00  0.00    +0.000 HD
ENDBRANCH   1  17
TORSDOF 3
ENDMDL
MODEL 7
REMARK VINA RESULT:      -6.7      2.091      3.149
REMARK  Name = 
REMARK  5 active torsions:
REMARK  status: ('A' for Active; 'I' for Inactive)
REMARK    1  A    between atoms: C_1  and  C_2
REMARK    2  A    between atoms: C_5  and  P_6
REMARK    3  A    between atoms: P_6  and  O_8
REMARK    4  A    between atoms: P_6  and  C_9
REMARK    5  A    between atoms: C_12  and  C_13
REMARK                            x       y       z     vdW  Elec       q    Type
REMARK                         _______ _______ _______ _____ _____    ______ ____
ROOT
ATOM      1  P   UNL     1       4.919   4.648  18.769  0.00  0.00    +0.000 P 
ATOM      2  O   UNL     1       4.439   3.371  19.412  0.00  0.00    +0.000 OA
ENDROOT
BRANCH   1   7
ATOM      3  C   UNL     1       7.313   4.924  13.214  0.00  0.00    +0.000 C 
ATOM      4  C   UNL     1       6.793   4.624  14.591  0.00  0.00    +0.000 A 
ATOM      5  C   UNL     1       7.574   4.888  15.718  0.00  0.00    +0.000 A 
ATOM      6  C   UNL     1       7.025   4.771  16.997  0.00  0.00    +0.000 A 
ATOM      7  C   UNL     1       5.685   4.402  17.174  0.00  0.00    +0.000 A 
ATOM      8  C   UNL     1       4.941   4.026  16.045  0.00  0.00    +0.000 A 
ATOM      9  C   UNL     1       5.492   4.141  14.763  0.00  0.00    +0.000 A 
ENDBRANCH   1   7
BRANCH   1  10
ATOM     10  C   UNL     1       3.770   5.994  18.827  0.00  0.00    +0.000 A 
ATOM     11  C   UNL     1       3.735   6.918  17.772  0.00  0.00    +0.000 A 
ATOM     12  C   UNL     1       2.872   8.017  17.808  0.00  0.00    +0.000 A 
ATOM     13  C   UNL     1       2.022   8.211  18.899  0.00  0.00    +0.000 A 
ATOM     14  C   UNL     1       1.182   9.447  19.012  0.00  0.00    +0.000 C 
ATOM     15  C   UNL     1       1.996   7.250  19.918  0.00  0.00    +0.000 A 
ATOM     16  C   UNL     1       2.860   6.152  19.878  0.00  0.00    +0.000 A 
ENDBRANCH   1  10
BRANCH   1  17
ATOM     17  O   UNL     1       6.192   5.158  19.642  0.00  0.00    +0.000 OA
ATOM     18  H   UNL     1       6.426   6.077  19.399  0.00  0.00    +0.000 HD
ENDBRANCH   1  17
TORSDOF 3
ENDMDL
MODEL 8
REMARK VINA RESULT:      -6.7      2.047      6.349
REMARK  Name = 
REMARK  5 active torsions:
REMARK  status: ('A' for Active; 'I' for Inactive)
REMARK    1  A    between atoms: C_1  and  C_2
REMARK    2  A    between atoms: C_5  and  P_6
REMARK    3  A    between atoms: P_6  and  O_8
REMARK    4  A    between atoms: P_6  and  C_9
REMARK    5  A    between atoms: C_12  and  C_13
REMARK                            x       y       z     vdW  Elec       q    Type
REMARK                         _______ _______ _______ _____ _____    ______ ____
ROOT
ATOM      1  P   UNL     1       4.377   3.736  18.528  0.00  0.00    +0.000 P 
ATOM      2  O   UNL     1       5.184   3.147  19.658  0.00  0.00    +0.000 OA
ENDROOT
BRANCH   1   7
ATOM      3  C   UNL     1       1.253   8.342  20.913  0.00  0.00    +0.000 C 
ATOM      4  C   UNL     1       1.823   7.150  20.200  0.00  0.00    +0.000 A 
ATOM      5  C   UNL     1       2.520   7.306  19.000  0.00  0.00    +0.000 A 
ATOM      6  C   UNL     1       3.194   6.223  18.432  0.00  0.00    +0.000 A 
ATOM      7  C   UNL     1       3.198   4.969  19.057  0.00  0.00    +0.000 A 
ATOM      8  C   UNL     1       2.403   4.790  20.200  0.00  0.00    +0.000 A 
ATOM      9  C   UNL     1       1.725   5.875  20.768  0.00  0.00    +0.000 A 
ENDBRANCH   1   7
BRANCH   1  10
ATOM     10  C   UNL     1       5.313   4.189  17.095  0.00  0.00    +0.000 A 
ATOM     11  C   UNL     1       4.714   4.121  15.829  0.00  0.00    +0.000 A 
ATOM     12  C   UNL     1       5.439   4.429  14.674  0.00  0.00    +0.000 A 
ATOM     13  C   UNL     1       6.778   4.816  14.764  0.00  0.00    +0.000 A 
ATOM     14  C   UNL     1       7.603   5.029  13.530  0.00  0.00    +0.000 C 
ATOM     15  C   UNL     1       7.358   4.962  16.029  0.00  0.00    +0.000 A 
ATOM     16  C   UNL     1       6.631   4.655  17.182  0.00  0.00    +0.000 A 
ENDBRANCH   1  10
BRANCH   1  17
ATOM     17  O   UNL     1       3.378   2.562  18.010  0.00  0.00    +0.000 OA
ATOM     18  H   UNL     1       2.582   2.951  17.595  0.00  0.00    +0.000 HD
ENDBRANCH   1  17
TORSDOF 3
ENDMDL
MODEL 9
REMARK VINA RESULT:      -6.7      1.546      2.153
REMARK  Name = 
REMARK  5 active torsions:
REMARK  status: ('A' for Active; 'I' for Inactive)
REMARK    1  A    between atoms: C_1  and  C_2
REMARK    2  A    between atoms: C_5  and  P_6
REMARK    3  A    between atoms: P_6  and  O_8
REMARK    4  A    between atoms: P_6  and  C_9
REMARK    5  A    between atoms: C_12  and  C_13
REMARK                            x       y       z     vdW  Elec       q    Type
REMARK                         _______ _______ _______ _____ _____    ______ ____
ROOT
ATOM      1  P   UNL     1       6.851   5.425  16.711  0.00  0.00    +0.000 P 
ATOM      2  O   UNL     1       7.883   4.574  17.406  0.00  0.00    +0.000 OA
ENDROOT
BRANCH   1   7
ATOM      3  C   UNL     1       6.108   2.689  11.360  0.00  0.00    +0.000 C 
ATOM      4  C   UNL     1       6.191   3.561  12.580  0.00  0.00    +0.000 A 
ATOM      5  C   UNL     1       5.176   3.540  13.539  0.00  0.00    +0.000 A 
ATOM      6  C   UNL     1       5.338   4.218  14.749  0.00  0.00    +0.000 A 
ATOM      7  C   UNL     1       6.519   4.918  15.031  0.00  0.00    +0.000 A 
ATOM      8  C   UNL     1       7.485   5.031  14.018  0.00  0.00    +0.000 A 
ATOM      9  C   UNL     1       7.322   4.354  12.805  0.00  0.00    +0.000 A 
ENDBRANCH   1   7
BRANCH   1  10
ATOM     10  C   UNL     1       5.403   5.779  17.666  0.00  0.00    +0.000 A 
ATOM     11  C   UNL     1       4.493   6.744  17.210  0.00  0.00    +0.000 A 
ATOM     12  C   UNL     1       3.364   7.079  17.961  0.00  0.00    +0.000 A 
ATOM     13  C   UNL     1       3.119   6.450  19.185  0.00  0.00    +0.000 A 
ATOM     14  C   UNL     1       1.982   6.884  20.061  0.00  0.00    +0.000 C 
ATOM     15  C   UNL     1       3.980   5.431  19.608  0.00  0.00    +0.000 A 
ATOM     16  C   UNL     1       5.109   5.098  18.853  0.00  0.00    +0.000 A 
ENDBRANCH   1  10
BRANCH   1  17
ATOM     17  O   UNL     1       7.540   6.877  16.459  0.00  0.00    +0.000 OA
ATOM     18  H   UNL     1       8.023   7.168  17.259  0.00  0.00    +0.000 HD
ENDBRANCH   1  17
TORSDOF 3
ENDMDL
