MODEL 1
REMARK VINA RESULT:      -8.8      0.000      0.000
REMARK  Name = 
REMARK  6 active torsions:
REMARK  status: ('A' for Active; 'I' for Inactive)
REMARK    1  A    between atoms: C_1  and  C_2
REMARK    2  A    between atoms: C_4  and  C_5
REMARK    3  A    between atoms: C_9  and  C_10
REMARK    4  A    between atoms: C_15  and  O_16
REMARK    5  A    between atoms: O_16  and  C_17
REMARK    6  A    between atoms: C_17  and  C_18
REMARK                            x       y       z     vdW  Elec       q    Type
REMARK                         _______ _______ _______ _____ _____    ______ ____
ROOT
ATOM      1  C   UNL     1       6.261   3.825  13.990  0.00  0.00    +0.000 C 
ATOM      2  C   UNL     1       5.666   4.604  15.119  0.00  0.00    +0.000 A 
ATOM      3  C   UNL     1       4.689   4.060  15.940  0.00  0.00    +0.000 A 
ATOM      4  C   UNL     1       4.148   4.790  17.019  0.00  0.00    +0.000 A 
ATOM      5  C   UNL     1       4.640   6.095  17.155  0.00  0.00    +0.000 A 
ATOM      6  N   UNL     1       5.588   6.601  16.329  0.00  0.00    +0.000 NA
ATOM      7  N   UNL     1       6.106   5.859  15.308  0.00  0.00    +0.000 NA
ENDROOT
BRANCH   4   8
ATOM      8  C   UNL     1       3.098   4.147  17.858  0.00  0.00    +0.000 A 
ATOM      9  C   UNL     1       1.785   3.983  17.360  0.00  0.00    +0.000 A 
ATOM     10  C   UNL     1       0.732   3.550  18.168  0.00  0.00    +0.000 A 
ATOM     11  C   UNL     1       0.970   3.216  19.494  0.00  0.00    +0.000 A 
ATOM     12  C   UNL     1       2.268   3.291  20.014  0.00  0.00    +0.000 A 
ATOM     13  C   UNL     1       3.315   3.763  19.191  0.00  0.00    +0.000 A 
BRANCH  12  14
ATOM     14  C   UNL     1       2.555   2.879  21.436  0.00  0.00    +0.000 C 
ATOM     15  F   UNL     1       3.752   2.246  21.588  0.00  0.00    +0.000 F 
ATOM     16  F   UNL     1       2.587   3.943  22.286  0.00  0.00    +0.000 F 
ATOM     17  F   UNL     1       1.618   2.027  21.934  0.00  0.00    +0.000 F 
ENDBRANCH  12  14
ENDBRANCH   4   8
BRANCH   5  18
ATOM     18  O   UNL     1       4.200   6.898  18.189  0.00  0.00    +0.000 OA
BRANCH  18  19
ATOM     19  C   UNL     1       3.081   7.718  17.809  0.00  0.00    +0.000 C 
BRANCH  19  20
ATOM     20  C   UNL     1       2.168   8.017  18.985  0.00  0.00    +0.000 A 
ATOM     21  C   UNL     1       2.026   7.100  20.042  0.00  0.00    +0.000 A 
ATOM     22  C   UNL     1       1.202   7.387  21.134  0.00  0.00    +0.000 A 
ATOM     23  C   UNL     1       0.518   8.599  21.190  0.00  0.00    +0.000 A 
ATOM     24 CL   UNL     1      -0.506   8.940  22.529  0.00  0.00    +0.000 Cl
ATOM     25  C   UNL     1       0.662   9.535  20.172  0.00  0.00    +0.000 A 
ATOM     26  C   UNL     1       1.487   9.246  19.080  0.00  0.00    +0.000 A 
ATOM     27 CL   UNL     1       1.646  10.467  17.865  0.00  0.00    +0.000 Cl
ENDBRANCH  19  20
ENDBRANCH  18  19
ENDBRANCH   5  18
TORSDOF 5
ENDMDL
MODEL 2
REMARK VINA RESULT:      -8.6      1.153      1.804
REMARK  Name = 
REMARK  6 active torsions:
REMARK  status: ('A' for Active; 'I' for Inactive)
REMARK    1  A    between atoms: C_1  and  C_2
REMARK    2  A    between atoms: C_4  and  C_5
REMARK    3  A    between atoms: C_9  and  C_10
REMARK    4  A    between atoms: C_15  and  O_16
REMARK    5  A    between atoms: O_16  and  C_17
REMARK    6  A    between atoms: C_17  and  C_18
REMARK                            x       y       z     vdW  Elec       q    Type
REMARK                         _______ _______ _______ _____ _____    ______ ____
ROOT
ATOM      1  C   UNL     1       6.208   3.929  13.742  0.00  0.00    +0.000 C 
ATOM      2  C   UNL     1       5.651   4.730  14.876  0.00  0.00    +0.000 A 
ATOM      3  C   UNL     1       5.187   4.122  16.034  0.00  0.00    +0.000 A 
ATOM      4  C   UNL     1       4.686   4.883  17.110  0.00  0.00    +0.000 A 
ATOM      5  C   UNL     1       4.657   6.267  16.893  0.00  0.00    +0.000 A 
ATOM      6  N   UNL     1       5.109   6.829  15.745  0.00  0.00    +0.000 NA
ATOM      7  N   UNL     1       5.609   6.064  14.732  0.00  0.00    +0.000 NA
ENDROOT
BRANCH   4   8
ATOM      8  C   UNL     1       4.198   4.166  18.322  0.00  0.00    +0.000 A 
ATOM      9  C   UNL     1       5.099   3.450  19.142  0.00  0.00    +0.000 A 
ATOM     10  C   UNL     1       4.664   2.623  20.180  0.00  0.00    +0.000 A 
ATOM     11  C   UNL     1       3.309   2.527  20.466  0.00  0.00    +0.000 A 
ATOM     12  C   UNL     1       2.382   3.275  19.730  0.00  0.00    +0.000 A 
ATOM     13  C   UNL     1       2.837   4.079  18.661  0.00  0.00    +0.000 A 
BRANCH  12  14
ATOM     14  C   UNL     1       0.912   3.225  20.062  0.00  0.00    +0.000 C 
ATOM     15  F   UNL     1       0.156   2.633  19.096  0.00  0.00    +0.000 F 
ATOM     16  F   UNL     1       0.664   2.530  21.207  0.00  0.00    +0.000 F 
ATOM     17  F   UNL     1       0.376   4.462  20.248  0.00  0.00    +0.000 F 
ENDBRANCH  12  14
ENDBRANCH   4   8
BRANCH   5  18
ATOM     18  O   UNL     1       4.207   7.116  17.885  0.00  0.00    +0.000 OA
BRANCH  18  19
ATOM     19  C   UNL     1       2.904   7.653  17.597  0.00  0.00    +0.000 C 
BRANCH  19  20
ATOM     20  C   UNL     1       2.150   8.027  18.861  0.00  0.00    +0.000 A 
ATOM     21  C   UNL     1       2.130   7.166  19.973  0.00  0.00    +0.000 A 
ATOM     22  C   UNL     1       1.453   7.522  21.143  0.00  0.00    +0.000 A 
ATOM     23  C   UNL     1       0.797   8.748  21.222  0.00  0.00    +0.000 A 
ATOM     24 CL   UNL     1      -0.045   9.175  22.660  0.00  0.00    +0.000 Cl
ATOM     25  C   UNL     1       0.825   9.631  20.148  0.00  0.00    +0.000 A 
ATOM     26  C   UNL     1       1.503   9.273  18.978  0.00  0.00    +0.000 A 
ATOM     27 CL   UNL     1       1.524  10.430  17.692  0.00  0.00    +0.000 Cl
ENDBRANCH  19  20
ENDBRANCH  18  19
ENDBRANCH   5  18
TORSDOF 5
ENDMDL
MODEL 3
REMARK VINA RESULT:      -8.3      1.011      1.197
REMARK  Name = 
REMARK  6 active torsions:
REMARK  status: ('A' for Active; 'I' for Inactive)
REMARK    1  A    between atoms: C_1  and  C_2
REMARK    2  A    between atoms: C_4  and  C_5
REMARK    3  A    between atoms: C_9  and  C_10
REMARK    4  A    between atoms: C_15  and  O_16
REMARK    5  A    between atoms: O_16  and  C_17
REMARK    6  A    between atoms: C_17  and  C_18
REMARK                            x       y       z     vdW  Elec       q    Type
REMARK                         _______ _______ _______ _____ _____    ______ ____
ROOT
ATOM      1  C   UNL     1       6.769   4.605  13.998  0.00  0.00    +0.000 C 
ATOM      2  C   UNL     1       5.980   5.114  15.162  0.00  0.00    +0.000 A 
ATOM      3  C   UNL     1       5.241   4.259  15.966  0.00  0.00    +0.000 A 
ATOM      4  C   UNL     1       4.518   4.740  17.077  0.00  0.00    +0.000 A 
ATOM      5  C   UNL     1       4.575   6.128  17.263  0.00  0.00    +0.000 A 
ATOM      6  N   UNL     1       5.300   6.938  16.452  0.00  0.00    +0.000 NA
ATOM      7  N   UNL     1       6.006   6.435  15.399  0.00  0.00    +0.000 NA
ENDROOT
BRANCH   4   8
ATOM      8  C   UNL     1       3.739   3.768  17.895  0.00  0.00    +0.000 A 
ATOM      9  C   UNL     1       3.608   2.424  17.478  0.00  0.00    +0.000 A 
ATOM     10  C   UNL     1       2.748   1.528  18.116  0.00  0.00    +0.000 A 
ATOM     11  C   UNL     1       2.027   1.935  19.230  0.00  0.00    +0.000 A 
ATOM     12  C   UNL     1       2.179   3.236  19.726  0.00  0.00    +0.000 A 
ATOM     13  C   UNL     1       3.028   4.139  19.048  0.00  0.00    +0.000 A 
BRANCH  12  14
ATOM     14  C   UNL     1       1.446   3.679  20.967  0.00  0.00    +0.000 C 
ATOM     15  F   UNL     1       2.234   4.347  21.855  0.00  0.00    +0.000 F 
ATOM     16  F   UNL     1       0.411   4.518  20.685  0.00  0.00    +0.000 F 
ATOM     17  F   UNL     1       0.908   2.637  21.658  0.00  0.00    +0.000 F 
ENDBRANCH  12  14
ENDBRANCH   4   8
BRANCH   5  18
ATOM     18  O   UNL     1       3.924   6.712  18.332  0.00  0.00    +0.000 OA
BRANCH  18  19
ATOM     19  C   UNL     1       2.950   7.686  17.915  0.00  0.00    +0.000 C 
BRANCH  19  20
ATOM     20  C   UNL     1       2.082   8.154  19.070  0.00  0.00    +0.000 A 
ATOM     21  C   UNL     1       1.919   7.361  20.220  0.00  0.00    +0.000 A 
ATOM     22  C   UNL     1       1.137   7.803  21.290  0.00  0.00    +0.000 A 
ATOM     23  C   UNL     1       0.516   9.048  21.231  0.00  0.00    +0.000 A 
ATOM     24 CL   UNL     1      -0.457   9.581  22.545  0.00  0.00    +0.000 Cl
ATOM     25  C   UNL     1       0.683   9.864  20.118  0.00  0.00    +0.000 A 
ATOM     26  C   UNL     1       1.467   9.420  19.048  0.00  0.00    +0.000 A 
ATOM     27 CL   UNL     1       1.658  10.498  17.708  0.00  0.00    +0.000 Cl
ENDBRANCH  19  20
ENDBRANCH  18  19
ENDBRANCH   5  18
TORSDOF 5
ENDMDL
MODEL 4
REMARK VINA RESULT:      -8.3      1.115      1.727
REMARK  Name = 
REMARK  6 active torsions:
REMARK  status: ('A' for Active; 'I' for Inactive)
REMARK    1  A    between atoms: C_1  and  C_2
REMARK    2  A    between atoms: C_4  and  C_5
REMARK    3  A    between atoms: C_9  and  C_10
REMARK    4  A    between atoms: C_15  and  O_16
REMARK    5  A    between atoms: O_16  and  C_17
REMARK    6  A    between atoms: C_17  and  C_18
REMARK                            x       y       z     vdW  Elec       q    Type
REMARK                         _______ _______ _______ _____ _____    ______ ____
ROOT
ATOM      1  C   UNL     1       6.610   4.057  14.303  0.00  0.00    +0.000 C 
ATOM      2  C   UNL     1       5.821   4.813  15.324  0.00  0.00    +0.000 A 
ATOM      3  C   UNL     1       4.855   4.191  16.101  0.00  0.00    +0.000 A 
ATOM      4  C   UNL     1       4.131   4.903  17.079  0.00  0.00    +0.000 A 
ATOM      5  C   UNL     1       4.435   6.268  17.163  0.00  0.00    +0.000 A 
ATOM      6  N   UNL     1       5.378   6.849  16.381  0.00  0.00    +0.000 NA
ATOM      7  N   UNL     1       6.076   6.125  15.459  0.00  0.00    +0.000 NA
ENDROOT
BRANCH   4   8
ATOM      8  C   UNL     1       3.103   4.174  17.874  0.00  0.00    +0.000 A 
ATOM      9  C   UNL     1       1.857   3.839  17.298  0.00  0.00    +0.000 A 
ATOM     10  C   UNL     1       0.804   3.317  18.053  0.00  0.00    +0.000 A 
ATOM     11  C   UNL     1       0.982   3.064  19.406  0.00  0.00    +0.000 A 
ATOM     12  C   UNL     1       2.223   3.310  20.008  0.00  0.00    +0.000 A 
ATOM     13  C   UNL     1       3.266   3.869  19.236  0.00  0.00    +0.000 A 
BRANCH  12  14
ATOM     14  C   UNL     1       2.452   2.988  21.463  0.00  0.00    +0.000 C 
ATOM     15  F   UNL     1       2.668   4.090  22.235  0.00  0.00    +0.000 F 
ATOM     16  F   UNL     1       1.391   2.344  22.024  0.00  0.00    +0.000 F 
ATOM     17  F   UNL     1       3.529   2.180  21.658  0.00  0.00    +0.000 F 
ENDBRANCH  12  14
ENDBRANCH   4   8
BRANCH   5  18
ATOM     18  O   UNL     1       3.805   7.063  18.100  0.00  0.00    +0.000 OA
BRANCH  18  19
ATOM     19  C   UNL     1       2.513   7.516  17.655  0.00  0.00    +0.000 C 
BRANCH  19  20
ATOM     20  C   UNL     1       1.927   8.565  18.584  0.00  0.00    +0.000 A 
ATOM     21  C   UNL     1       1.683   9.875  18.133  0.00  0.00    +0.000 A 
ATOM     22  C   UNL     1       1.124  10.833  18.984  0.00  0.00    +0.000 A 
ATOM     23  C   UNL     1       0.789  10.492  20.292  0.00  0.00    +0.000 A 
ATOM     24 CL   UNL     1       0.114  11.678  21.338  0.00  0.00    +0.000 Cl
ATOM     25  C   UNL     1       0.994   9.197  20.755  0.00  0.00    +0.000 A 
ATOM     26  C   UNL     1       1.554   8.239  19.902  0.00  0.00    +0.000 A 
ATOM     27 CL   UNL     1       1.752   6.640  20.532  0.00  0.00    +0.000 Cl
ENDBRANCH  19  20
ENDBRANCH  18  19
ENDBRANCH   5  18
TORSDOF 5
ENDMDL
MODEL 5
REMARK VINA RESULT:      -7.7      3.267      4.757
REMARK  Name = 
REMARK  6 active torsions:
REMARK  status: ('A' for Active; 'I' for Inactive)
REMARK    1  A    between atoms: C_1  and  C_2
REMARK    2  A    between atoms: C_4  and  C_5
REMARK    3  A    between atoms: C_9  and  C_10
REMARK    4  A    between atoms: C_15  and  O_16
REMARK    5  A    between atoms: O_16  and  C_17
REMARK    6  A    between atoms: C_17  and  C_18
REMARK                            x       y       z     vdW  Elec       q    Type
REMARK                         _______ _______ _______ _____ _____    ______ ____
ROOT
ATOM      1  C   UNL     1       0.803   1.894  18.699  0.00  0.00    +0.000 C 
ATOM      2  C   UNL     1       1.286   3.230  19.167  0.00  0.00    +0.000 A 
ATOM      3  C   UNL     1       2.416   3.824  18.622  0.00  0.00    +0.000 A 
ATOM      4  C   UNL     1       2.853   5.094  19.049  0.00  0.00    +0.000 A 
ATOM      5  C   UNL     1       2.092   5.667  20.076  0.00  0.00    +0.000 A 
ATOM      6  N   UNL     1       0.998   5.056  20.594  0.00  0.00    +0.000 NA
ATOM      7  N   UNL     1       0.590   3.835  20.142  0.00  0.00    +0.000 NA
ENDROOT
BRANCH   4   8
ATOM      8  C   UNL     1       4.078   5.672  18.426  0.00  0.00    +0.000 A 
ATOM      9  C   UNL     1       4.010   6.304  17.165  0.00  0.00    +0.000 A 
ATOM     10  C   UNL     1       5.154   6.700  16.468  0.00  0.00    +0.000 A 
ATOM     11  C   UNL     1       6.407   6.522  17.038  0.00  0.00    +0.000 A 
ATOM     12  C   UNL     1       6.522   5.968  18.319  0.00  0.00    +0.000 A 
ATOM     13  C   UNL     1       5.356   5.542  18.994  0.00  0.00    +0.000 A 
BRANCH  12  14
ATOM     14  C   UNL     1       7.870   5.818  18.977  0.00  0.00    +0.000 C 
ATOM     15  F   UNL     1       8.675   6.907  18.822  0.00  0.00    +0.000 F 
ATOM     16  F   UNL     1       7.771   5.619  20.321  0.00  0.00    +0.000 F 
ATOM     17  F   UNL     1       8.576   4.762  18.490  0.00  0.00    +0.000 F 
ENDBRANCH  12  14
ENDBRANCH   4   8
BRANCH   5  18
ATOM     18  O   UNL     1       2.411   6.921  20.561  0.00  0.00    +0.000 OA
BRANCH  18  19
ATOM     19  C   UNL     1       1.835   7.977  19.771  0.00  0.00    +0.000 C 
BRANCH  19  20
ATOM     20  C   UNL     1       1.003   8.928  20.614  0.00  0.00    +0.000 A 
ATOM     21  C   UNL     1       0.599   8.578  21.915  0.00  0.00    +0.000 A 
ATOM     22  C   UNL     1      -0.149   9.464  22.696  0.00  0.00    +0.000 A 
ATOM     23  C   UNL     1      -0.492  10.716  22.193  0.00  0.00    +0.000 A 
ATOM     24 CL   UNL     1      -1.424  11.796  23.154  0.00  0.00    +0.000 Cl
ATOM     25  C   UNL     1      -0.083  11.098  20.920  0.00  0.00    +0.000 A 
ATOM     26  C   UNL     1       0.666  10.211  20.140  0.00  0.00    +0.000 A 
ATOM     27 CL   UNL     1       1.169  10.762  18.579  0.00  0.00    +0.000 Cl
ENDBRANCH  19  20
ENDBRANCH  18  19
ENDBRANCH   5  18
TORSDOF 5
ENDMDL
MODEL 6
REMARK VINA RESULT:      -7.6      3.275      5.027
REMARK  Name = 
REMARK  6 active torsions:
REMARK  status: ('A' for Active; 'I' for Inactive)
REMARK    1  A    between atoms: C_1  and  C_2
REMARK    2  A    between atoms: C_4  and  C_5
REMARK    3  A    between atoms: C_9  and  C_10
REMARK    4  A    between atoms: C_15  and  O_16
REMARK    5  A    between atoms: O_16  and  C_17
REMARK    6  A    between atoms: C_17  and  C_18
REMARK                            x       y       z     vdW  Elec       q    Type
REMARK                         _______ _______ _______ _____ _____    ______ ____
ROOT
ATOM      1  C   UNL     1       0.881   1.792  18.774  0.00  0.00    +0.000 C 
ATOM      2  C   UNL     1       1.322   3.147  19.228  0.00  0.00    +0.000 A 
ATOM      3  C   UNL     1       2.435   3.769  18.680  0.00  0.00    +0.000 A 
ATOM      4  C   UNL     1       2.832   5.057  19.094  0.00  0.00    +0.000 A 
ATOM      5  C   UNL     1       2.050   5.618  20.112  0.00  0.00    +0.000 A 
ATOM      6  N   UNL     1       0.974   4.979  20.634  0.00  0.00    +0.000 NA
ATOM      7  N   UNL     1       0.604   3.742  20.194  0.00  0.00    +0.000 NA
ENDROOT
BRANCH   4   8
ATOM      8  C   UNL     1       4.041   5.665  18.469  0.00  0.00    +0.000 A 
ATOM      9  C   UNL     1       3.945   6.336  17.229  0.00  0.00    +0.000 A 
ATOM     10  C   UNL     1       5.073   6.763  16.525  0.00  0.00    +0.000 A 
ATOM     11  C   UNL     1       6.337   6.579  17.067  0.00  0.00    +0.000 A 
ATOM     12  C   UNL     1       6.480   5.985  18.328  0.00  0.00    +0.000 A 
ATOM     13  C   UNL     1       5.330   5.528  19.010  0.00  0.00    +0.000 A 
BRANCH  12  14
ATOM     14  C   UNL     1       7.841   5.827  18.957  0.00  0.00    +0.000 C 
ATOM     15  F   UNL     1       8.556   4.784  18.450  0.00  0.00    +0.000 F 
ATOM     16  F   UNL     1       8.621   6.930  18.786  0.00  0.00    +0.000 F 
ATOM     17  F   UNL     1       7.776   5.616  20.300  0.00  0.00    +0.000 F 
ENDBRANCH  12  14
ENDBRANCH   4   8
BRANCH   5  18
ATOM     18  O   UNL     1       2.330   6.886  20.584  0.00  0.00    +0.000 OA
BRANCH  18  19
ATOM     19  C   UNL     1       1.144   7.596  20.985  0.00  0.00    +0.000 C 
BRANCH  19  20
ATOM     20  C   UNL     1       1.070   8.978  20.360  0.00  0.00    +0.000 A 
ATOM     21  C   UNL     1       1.439   9.187  19.019  0.00  0.00    +0.000 A 
ATOM     22  C   UNL     1       1.350  10.457  18.441  0.00  0.00    +0.000 A 
ATOM     23  C   UNL     1       0.880  11.532  19.191  0.00  0.00    +0.000 A 
ATOM     24 CL   UNL     1       0.785  13.094  18.478  0.00  0.00    +0.000 Cl
ATOM     25  C   UNL     1       0.482  11.347  20.511  0.00  0.00    +0.000 A 
ATOM     26  C   UNL     1       0.571  10.076  21.087  0.00  0.00    +0.000 A 
ATOM     27 CL   UNL     1       0.030   9.911  22.723  0.00  0.00    +0.000 Cl
ENDBRANCH  19  20
ENDBRANCH  18  19
ENDBRANCH   5  18
TORSDOF 5
ENDMDL
MODEL 7
REMARK VINA RESULT:      -7.4      3.839      6.955
REMARK  Name = 
REMARK  6 active torsions:
REMARK  status: ('A' for Active; 'I' for Inactive)
REMARK    1  A    between atoms: C_1  and  C_2
REMARK    2  A    between atoms: C_4  and  C_5
REMARK    3  A    between atoms: C_9  and  C_10
REMARK    4  A    between atoms: C_15  and  O_16
REMARK    5  A    between atoms: O_16  and  C_17
REMARK    6  A    between atoms: C_17  and  C_18
REMARK                            x       y       z     vdW  Elec       q    Type
REMARK                         _______ _______ _______ _____ _____    ______ ____
ROOT
ATOM      1  C   UNL     1       1.364   2.620  21.959  0.00  0.00    +0.000 C 
ATOM      2  C   UNL     1       2.238   3.459  21.082  0.00  0.00    +0.000 A 
ATOM      3  C   UNL     1       1.853   4.727  20.675  0.00  0.00    +0.000 A 
ATOM      4  C   UNL     1       2.692   5.524  19.869  0.00  0.00    +0.000 A 
ATOM      5  C   UNL     1       3.897   4.918  19.489  0.00  0.00    +0.000 A 
ATOM      6  N   UNL     1       4.240   3.671  19.897  0.00  0.00    +0.000 NA
ATOM      7  N   UNL     1       3.413   2.936  20.695  0.00  0.00    +0.000 NA
ENDROOT
BRANCH   4   8
ATOM      8  C   UNL     1       2.214   6.876  19.462  0.00  0.00    +0.000 A 
ATOM      9  C   UNL     1       2.423   7.342  18.144  0.00  0.00    +0.000 A 
ATOM     10  C   UNL     1       2.151   8.660  17.770  0.00  0.00    +0.000 A 
ATOM     11  C   UNL     1       1.610   9.544  18.693  0.00  0.00    +0.000 A 
ATOM     12  C   UNL     1       1.316   9.108  19.991  0.00  0.00    +0.000 A 
ATOM     13  C   UNL     1       1.628   7.781  20.362  0.00  0.00    +0.000 A 
BRANCH  12  14
ATOM     14  C   UNL     1       0.677  10.039  20.991  0.00  0.00    +0.000 C 
ATOM     15  F   UNL     1       0.770   9.601  22.278  0.00  0.00    +0.000 F 
ATOM     16  F   UNL     1       1.241  11.278  20.978  0.00  0.00    +0.000 F 
ATOM     17  F   UNL     1      -0.651  10.226  20.758  0.00  0.00    +0.000 F 
ENDBRANCH  12  14
ENDBRANCH   4   8
BRANCH   5  18
ATOM     18  O   UNL     1       4.810   5.611  18.718  0.00  0.00    +0.000 OA
BRANCH  18  19
ATOM     19  C   UNL     1       5.961   4.814  18.384  0.00  0.00    +0.000 C 
BRANCH  19  20
ATOM     20  C   UNL     1       6.129   4.657  16.883  0.00  0.00    +0.000 A 
ATOM     21  C   UNL     1       7.264   5.162  16.224  0.00  0.00    +0.000 A 
ATOM     22  C   UNL     1       7.426   4.997  14.846  0.00  0.00    +0.000 A 
ATOM     23  C   UNL     1       6.461   4.314  14.109  0.00  0.00    +0.000 A 
ATOM     24 CL   UNL     1       6.660   4.126  12.411  0.00  0.00    +0.000 Cl
ATOM     25  C   UNL     1       5.343   3.780  14.739  0.00  0.00    +0.000 A 
ATOM     26  C   UNL     1       5.183   3.946  16.119  0.00  0.00    +0.000 A 
ATOM     27 CL   UNL     1       3.785   3.229  16.844  0.00  0.00    +0.000 Cl
ENDBRANCH  19  20
ENDBRANCH  18  19
ENDBRANCH   5  18
TORSDOF 5
ENDMDL
MODEL 8
REMARK VINA RESULT:      -7.3      1.423      1.457
REMARK  Name = 
REMARK  6 active torsions:
REMARK  status: ('A' for Active; 'I' for Inactive)
REMARK    1  A    between atoms: C_1  and  C_2
REMARK    2  A    between atoms: C_4  and  C_5
REMARK    3  A    between atoms: C_9  and  C_10
REMARK    4  A    between atoms: C_15  and  O_16
REMARK    5  A    between atoms: O_16  and  C_17
REMARK    6  A    between atoms: C_17  and  C_18
REMARK                            x       y       z     vdW  Elec       q    Type
REMARK                         _______ _______ _______ _____ _____    ______ ____
ROOT
ATOM      1  C   UNL     1       7.784   5.531  17.530  0.00  0.00    +0.000 C 
ATOM      2  C   UNL     1       6.344   5.935  17.519  0.00  0.00    +0.000 A 
ATOM      3  C   UNL     1       5.351   5.093  17.998  0.00  0.00    +0.000 A 
ATOM      4  C   UNL     1       3.997   5.488  18.009  0.00  0.00    +0.000 A 
ATOM      5  C   UNL     1       3.747   6.755  17.464  0.00  0.00    +0.000 A 
ATOM      6  N   UNL     1       4.740   7.550  16.994  0.00  0.00    +0.000 NA
ATOM      7  N   UNL     1       6.042   7.144  17.020  0.00  0.00    +0.000 NA
ENDROOT
BRANCH   4   8
ATOM      8  C   UNL     1       2.981   4.533  18.533  0.00  0.00    +0.000 A 
ATOM      9  C   UNL     1       1.919   4.094  17.709  0.00  0.00    +0.000 A 
ATOM     10  C   UNL     1       0.852   3.344  18.207  0.00  0.00    +0.000 A 
ATOM     11  C   UNL     1       0.839   2.961  19.542  0.00  0.00    +0.000 A 
ATOM     12  C   UNL     1       1.906   3.308  20.381  0.00  0.00    +0.000 A 
ATOM     13  C   UNL     1       2.960   4.096  19.868  0.00  0.00    +0.000 A 
BRANCH  12  14
ATOM     14  C   UNL     1       1.936   2.854  21.818  0.00  0.00    +0.000 C 
ATOM     15  F   UNL     1       2.808   1.833  22.048  0.00  0.00    +0.000 F 
ATOM     16  F   UNL     1       2.302   3.853  22.669  0.00  0.00    +0.000 F 
ATOM     17  F   UNL     1       0.724   2.413  22.254  0.00  0.00    +0.000 F 
ENDBRANCH  12  14
ENDBRANCH   4   8
BRANCH   5  18
ATOM     18  O   UNL     1       2.461   7.259  17.441  0.00  0.00    +0.000 OA
BRANCH  18  19
ATOM     19  C   UNL     1       2.406   8.638  17.847  0.00  0.00    +0.000 C 
BRANCH  19  20
ATOM     20  C   UNL     1       1.721   8.809  19.192  0.00  0.00    +0.000 A 
ATOM     21  C   UNL     1       1.779   7.796  20.167  0.00  0.00    +0.000 A 
ATOM     22  C   UNL     1       1.167   7.964  21.412  0.00  0.00    +0.000 A 
ATOM     23  C   UNL     1       0.499   9.150  21.704  0.00  0.00    +0.000 A 
ATOM     24 CL   UNL     1      -0.265   9.345  23.233  0.00  0.00    +0.000 Cl
ATOM     25  C   UNL     1       0.450  10.178  20.770  0.00  0.00    +0.000 A 
ATOM     26  C   UNL     1       1.064  10.009  19.524  0.00  0.00    +0.000 A 
ATOM     27 CL   UNL     1       0.993  11.339  18.421  0.00  0.00    +0.000 Cl
ENDBRANCH  19  20
ENDBRANCH  18  19
ENDBRANCH   5  18
TORSDOF 5
ENDMDL
MODEL 9
REMARK VINA RESULT:      -7.3      1.511      2.100
REMARK  Name = 
REMARK  6 active torsions:
REMARK  status: ('A' for Active; 'I' for Inactive)
REMARK    1  A    between atoms: C_1  and  C_2
REMARK    2  A    between atoms: C_4  and  C_5
REMARK    3  A    between atoms: C_9  and  C_10
REMARK    4  A    between atoms: C_15  and  O_16
REMARK    5  A    between atoms: O_16  and  C_17
REMARK    6  A    between atoms: C_17  and  C_18
REMARK                            x       y       z     vdW  Elec       q    Type
REMARK                         _______ _______ _______ _____ _____    ______ ____
ROOT
ATOM      1  C   UNL     1       7.476   5.079  16.561  0.00  0.00    +0.000 C 
ATOM      2  C   UNL     1       6.111   5.601  16.879  0.00  0.00    +0.000 A 
ATOM      3  C   UNL     1       5.144   4.794  17.460  0.00  0.00    +0.000 A 
ATOM      4  C   UNL     1       3.866   5.296  17.781  0.00  0.00    +0.000 A 
ATOM      5  C   UNL     1       3.652   6.635  17.428  0.00  0.00    +0.000 A 
ATOM      6  N   UNL     1       4.616   7.395  16.852  0.00  0.00    +0.000 NA
ATOM      7  N   UNL     1       5.850   6.882  16.576  0.00  0.00    +0.000 NA
ENDROOT
BRANCH   4   8
ATOM      8  C   UNL     1       2.872   4.373  18.397  0.00  0.00    +0.000 A 
ATOM      9  C   UNL     1       1.767   3.908  17.649  0.00  0.00    +0.000 A 
ATOM     10  C   UNL     1       0.722   3.189  18.234  0.00  0.00    +0.000 A 
ATOM     11  C   UNL     1       0.776   2.865  19.583  0.00  0.00    +0.000 A 
ATOM     12  C   UNL     1       1.886   3.239  20.350  0.00  0.00    +0.000 A 
ATOM     13  C   UNL     1       2.917   3.996  19.749  0.00  0.00    +0.000 A 
BRANCH  12  14
ATOM     14  C   UNL     1       1.987   2.848  21.803  0.00  0.00    +0.000 C 
ATOM     15  F   UNL     1       2.884   1.849  22.036  0.00  0.00    +0.000 F 
ATOM     16  F   UNL     1       2.377   3.888  22.592  0.00  0.00    +0.000 F 
ATOM     17  F   UNL     1       0.803   2.412  22.311  0.00  0.00    +0.000 F 
ENDBRANCH  12  14
ENDBRANCH   4   8
BRANCH   5  18
ATOM     18  O   UNL     1       2.446   7.244  17.713  0.00  0.00    +0.000 OA
BRANCH  18  19
ATOM     19  C   UNL     1       2.424   7.830  19.028  0.00  0.00    +0.000 C 
BRANCH  19  20
ATOM     20  C   UNL     1       1.337   8.881  19.165  0.00  0.00    +0.000 A 
ATOM     21  C   UNL     1       0.735   9.453  18.029  0.00  0.00    +0.000 A 
ATOM     22  C   UNL     1      -0.280  10.405  18.158  0.00  0.00    +0.000 A 
ATOM     23  C   UNL     1      -0.717  10.789  19.423  0.00  0.00    +0.000 A 
ATOM     24 CL   UNL     1      -1.957  11.971  19.575  0.00  0.00    +0.000 Cl
ATOM     25  C   UNL     1      -0.159  10.219  20.562  0.00  0.00    +0.000 A 
ATOM     26  C   UNL     1       0.856   9.267  20.431  0.00  0.00    +0.000 A 
ATOM     27 CL   UNL     1       1.484   8.575  21.888  0.00  0.00    +0.000 Cl
ENDBRANCH  19  20
ENDBRANCH  18  19
ENDBRANCH   5  18
TORSDOF 5
ENDMDL
