MODEL 1
REMARK VINA RESULT:     -10.6      0.000      0.000
REMARK  Name = 
REMARK  5 active torsions:
REMARK  status: ('A' for Active; 'I' for Inactive)
REMARK    1  A    between atoms: C_2  and  C_22
REMARK    2  A    between atoms: N_3  and  C_4
REMARK    3  A    between atoms: C_7  and  O_8
REMARK    4  A    between atoms: O_8  and  C_9
REMARK    5  A    between atoms: C_28  and  O_29
REMARK                            x       y       z     vdW  Elec       q    Type
REMARK                         _______ _______ _______ _____ _____    ______ ____
ROOT
ATOM      1  C   UNL     1       8.055   7.308  18.367  0.00  0.00    +0.000 A 
ATOM      2  C   UNL     1       8.133   6.071  18.995  0.00  0.00    +0.000 A 
ATOM      3  C   UNL     1       7.360   4.999  18.541  0.00  0.00    +0.000 A 
ATOM      4  C   UNL     1       6.478   5.149  17.465  0.00  0.00    +0.000 A 
ATOM      5  C   UNL     1       6.338   6.416  16.885  0.00  0.00    +0.000 A 
ATOM      6 CL   UNL     1       5.125   6.823  15.718  0.00  0.00    +0.000 Cl
ATOM      7  C   UNL     1       7.162   7.471  17.303  0.00  0.00    +0.000 A 
ENDROOT
BRANCH   1  10
ATOM      8  O   UNL     1       7.729  10.153  17.606  0.00  0.00    +0.000 OA
ATOM      9  C   UNL     1       8.612   9.753  18.362  0.00  0.00    +0.000 C 
ATOM     10  N   UNL     1       8.794   8.441  18.753  0.00  0.00    +0.000 N 
ATOM     11  H   UNL     1       9.586   8.280  19.368  0.00  0.00    +0.000 HD
BRANCH   9  12
ATOM     12  C   UNL     1       9.594  10.745  18.906  0.00  0.00    +0.000 A 
ATOM     13  C   UNL     1      10.368  11.450  17.964  0.00  0.00    +0.000 A 
ATOM     14  C   UNL     1      11.308  12.386  18.389  0.00  0.00    +0.000 A 
ATOM     15 CL   UNL     1      12.250  13.240  17.229  0.00  0.00    +0.000 Cl
ATOM     16  C   UNL     1      11.496  12.637  19.745  0.00  0.00    +0.000 A 
ATOM     17  C   UNL     1      10.736  11.948  20.692  0.00  0.00    +0.000 A 
ATOM     18  C   UNL     1       9.792  11.004  20.272  0.00  0.00    +0.000 A 
BRANCH  18  19
ATOM     19  O   UNL     1       9.067  10.340  21.230  0.00  0.00    +0.000 OA
ATOM     20  H   UNL     1       8.427  10.957  21.629  0.00  0.00    +0.000 HD
ENDBRANCH  18  19
ENDBRANCH   9  12
ENDBRANCH   1  10
BRANCH   4  21
ATOM     21  O   UNL     1       5.756   4.012  17.187  0.00  0.00    +0.000 OA
BRANCH  21  22
ATOM     22  C   UNL     1       4.507   3.809  17.721  0.00  0.00    +0.000 A 
ATOM     23  C   UNL     1       3.302   4.067  17.071  0.00  0.00    +0.000 A 
ATOM     24  C   UNL     1       2.101   3.966  17.778  0.00  0.00    +0.000 A 
ATOM     25  C   UNL     1       2.086   3.528  19.111  0.00  0.00    +0.000 A 
ATOM     26  C   UNL     1       0.894   3.464  19.850  0.00  0.00    +0.000 A 
ATOM     27  C   UNL     1       0.895   2.989  21.162  0.00  0.00    +0.000 A 
ATOM     28  C   UNL     1       2.083   2.561  21.748  0.00  0.00    +0.000 A 
ATOM     29  C   UNL     1       3.279   2.638  21.036  0.00  0.00    +0.000 A 
ATOM     30  C   UNL     1       3.298   3.141  19.724  0.00  0.00    +0.000 A 
ATOM     31  C   UNL     1       4.499   3.288  19.017  0.00  0.00    +0.000 A 
ENDBRANCH  21  22
ENDBRANCH   4  21
TORSDOF 5
ENDMDL
MODEL 2
REMARK VINA RESULT:      -9.9      1.391      1.689
REMARK  Name = 
REMARK  5 active torsions:
REMARK  status: ('A' for Active; 'I' for Inactive)
REMARK    1  A    between atoms: C_2  and  C_22
REMARK    2  A    between atoms: N_3  and  C_4
REMARK    3  A    between atoms: C_7  and  O_8
REMARK    4  A    between atoms: O_8  and  C_9
REMARK    5  A    between atoms: C_28  and  O_29
REMARK                            x       y       z     vdW  Elec       q    Type
REMARK                         _______ _______ _______ _____ _____    ______ ____
ROOT
ATOM      1  C   UNL     1       8.058   7.383  18.472  0.00  0.00    +0.000 A 
ATOM      2  C   UNL     1       8.212   6.123  19.037  0.00  0.00    +0.000 A 
ATOM      3  C   UNL     1       7.498   5.032  18.534  0.00  0.00    +0.000 A 
ATOM      4  C   UNL     1       6.601   5.184  17.470  0.00  0.00    +0.000 A 
ATOM      5  C   UNL     1       6.385   6.468  16.954  0.00  0.00    +0.000 A 
ATOM      6 CL   UNL     1       5.142   6.861  15.814  0.00  0.00    +0.000 Cl
ATOM      7  C   UNL     1       7.149   7.547  17.421  0.00  0.00    +0.000 A 
ENDROOT
BRANCH   1  10
ATOM      8  O   UNL     1       7.958  10.162  17.448  0.00  0.00    +0.000 OA
ATOM      9  C   UNL     1       8.664   9.815  18.393  0.00  0.00    +0.000 C 
ATOM     10  N   UNL     1       8.733   8.536  18.911  0.00  0.00    +0.000 N 
ATOM     11  H   UNL     1       9.385   8.418  19.681  0.00  0.00    +0.000 HD
BRANCH   9  12
ATOM     12  C   UNL     1       9.543  10.838  19.045  0.00  0.00    +0.000 A 
ATOM     13  C   UNL     1       9.176  11.253  20.340  0.00  0.00    +0.000 A 
ATOM     14  C   UNL     1       9.936  12.206  21.014  0.00  0.00    +0.000 A 
ATOM     15 CL   UNL     1       9.477  12.706  22.595  0.00  0.00    +0.000 Cl
ATOM     16  C   UNL     1      11.066  12.761  20.419  0.00  0.00    +0.000 A 
ATOM     17  C   UNL     1      11.445  12.360  19.136  0.00  0.00    +0.000 A 
ATOM     18  C   UNL     1      10.683  11.405  18.453  0.00  0.00    +0.000 A 
BRANCH  18  19
ATOM     19  O   UNL     1      11.080  11.040  17.191  0.00  0.00    +0.000 OA
ATOM     20  H   UNL     1      12.040  11.183  17.106  0.00  0.00    +0.000 HD
ENDBRANCH  18  19
ENDBRANCH   9  12
ENDBRANCH   1  10
BRANCH   4  21
ATOM     21  O   UNL     1       5.943   4.022  17.139  0.00  0.00    +0.000 OA
BRANCH  21  22
ATOM     22  C   UNL     1       4.678   3.759  17.604  0.00  0.00    +0.000 A 
ATOM     23  C   UNL     1       3.510   3.844  16.850  0.00  0.00    +0.000 A 
ATOM     24  C   UNL     1       2.270   3.703  17.479  0.00  0.00    +0.000 A 
ATOM     25  C   UNL     1       2.189   3.394  18.846  0.00  0.00    +0.000 A 
ATOM     26  C   UNL     1       0.953   3.293  19.503  0.00  0.00    +0.000 A 
ATOM     27  C   UNL     1       0.891   2.947  20.854  0.00  0.00    +0.000 A 
ATOM     28  C   UNL     1       2.062   2.686  21.560  0.00  0.00    +0.000 A 
ATOM     29  C   UNL     1       3.299   2.803  20.928  0.00  0.00    +0.000 A 
ATOM     30  C   UNL     1       3.378   3.178  19.576  0.00  0.00    +0.000 A 
ATOM     31  C   UNL     1       4.613   3.366  18.942  0.00  0.00    +0.000 A 
ENDBRANCH  21  22
ENDBRANCH   4  21
TORSDOF 5
ENDMDL
MODEL 3
REMARK VINA RESULT:      -9.0      1.767      2.195
REMARK  Name = 
REMARK  5 active torsions:
REMARK  status: ('A' for Active; 'I' for Inactive)
REMARK    1  A    between atoms: C_2  and  C_22
REMARK    2  A    between atoms: N_3  and  C_4
REMARK    3  A    between atoms: C_7  and  O_8
REMARK    4  A    between atoms: O_8  and  C_9
REMARK    5  A    between atoms: C_28  and  O_29
REMARK                            x       y       z     vdW  Elec       q    Type
REMARK                         _______ _______ _______ _____ _____    ______ ____
ROOT
ATOM      1  C   UNL     1       8.110   8.336  17.993  0.00  0.00    +0.000 A 
ATOM      2  C   UNL     1       8.520   7.425  18.959  0.00  0.00    +0.000 A 
ATOM      3  C   UNL     1       8.037   6.114  18.942  0.00  0.00    +0.000 A 
ATOM      4  C   UNL     1       7.118   5.694  17.973  0.00  0.00    +0.000 A 
ATOM      5  C   UNL     1       6.643   6.634  17.050  0.00  0.00    +0.000 A 
ATOM      6 CL   UNL     1       5.337   6.343  15.951  0.00  0.00    +0.000 Cl
ATOM      7  C   UNL     1       7.179   7.931  17.033  0.00  0.00    +0.000 A 
ENDROOT
BRANCH   1  10
ATOM      8  O   UNL     1       9.280  10.066  20.095  0.00  0.00    +0.000 OA
ATOM      9  C   UNL     1       9.074  10.447  18.944  0.00  0.00    +0.000 C 
ATOM     10  N   UNL     1       8.543   9.673  17.931  0.00  0.00    +0.000 N 
ATOM     11  H   UNL     1       8.421  10.151  17.043  0.00  0.00    +0.000 HD
BRANCH   9  12
ATOM     12  C   UNL     1       9.403  11.865  18.588  0.00  0.00    +0.000 A 
ATOM     13  C   UNL     1       8.582  12.863  19.148  0.00  0.00    +0.000 A 
ATOM     14  C   UNL     1       8.817  14.206  18.861  0.00  0.00    +0.000 A 
ATOM     15 CL   UNL     1       7.806  15.417  19.549  0.00  0.00    +0.000 Cl
ATOM     16  C   UNL     1       9.861  14.579  18.021  0.00  0.00    +0.000 A 
ATOM     17  C   UNL     1      10.686  13.602  17.459  0.00  0.00    +0.000 A 
ATOM     18  C   UNL     1      10.452  12.251  17.740  0.00  0.00    +0.000 A 
BRANCH  18  19
ATOM     19  O   UNL     1      11.278  11.317  17.164  0.00  0.00    +0.000 OA
ATOM     20  H   UNL     1      12.050  11.769  16.779  0.00  0.00    +0.000 HD
ENDBRANCH  18  19
ENDBRANCH   9  12
ENDBRANCH   1  10
BRANCH   4  21
ATOM     21  O   UNL     1       6.706   4.393  18.137  0.00  0.00    +0.000 OA
BRANCH  21  22
ATOM     22  C   UNL     1       5.373   4.065  18.177  0.00  0.00    +0.000 A 
ATOM     23  C   UNL     1       4.628   3.590  17.099  0.00  0.00    +0.000 A 
ATOM     24  C   UNL     1       3.245   3.441  17.227  0.00  0.00    +0.000 A 
ATOM     25  C   UNL     1       2.607   3.684  18.453  0.00  0.00    +0.000 A 
ATOM     26  C   UNL     1       1.213   3.583  18.588  0.00  0.00    +0.000 A 
ATOM     27  C   UNL     1       0.601   3.791  19.825  0.00  0.00    +0.000 A 
ATOM     28  C   UNL     1       1.373   4.090  20.943  0.00  0.00    +0.000 A 
ATOM     29  C   UNL     1       2.756   4.215  20.822  0.00  0.00    +0.000 A 
ATOM     30  C   UNL     1       3.384   4.037  19.578  0.00  0.00    +0.000 A 
ATOM     31  C   UNL     1       4.764   4.225  19.424  0.00  0.00    +0.000 A 
ENDBRANCH  21  22
ENDBRANCH   4  21
TORSDOF 5
ENDMDL
MODEL 4
REMARK VINA RESULT:      -9.0      7.720     10.334
REMARK  Name = 
REMARK  5 active torsions:
REMARK  status: ('A' for Active; 'I' for Inactive)
REMARK    1  A    between atoms: C_2  and  C_22
REMARK    2  A    between atoms: N_3  and  C_4
REMARK    3  A    between atoms: C_7  and  O_8
REMARK    4  A    between atoms: O_8  and  C_9
REMARK    5  A    between atoms: C_28  and  O_29
REMARK                            x       y       z     vdW  Elec       q    Type
REMARK                         _______ _______ _______ _____ _____    ______ ____
ROOT
ATOM      1  C   UNL     1       1.439   8.510  19.948  0.00  0.00    +0.000 A 
ATOM      2  C   UNL     1       1.169   9.643  19.191  0.00  0.00    +0.000 A 
ATOM      3  C   UNL     1       0.673  10.798  19.801  0.00  0.00    +0.000 A 
ATOM      4  C   UNL     1       0.415  10.836  21.176  0.00  0.00    +0.000 A 
ATOM      5  C   UNL     1       0.609   9.669  21.926  0.00  0.00    +0.000 A 
ATOM      6 CL   UNL     1       0.112   9.478  23.573  0.00  0.00    +0.000 Cl
ATOM      7  C   UNL     1       1.167   8.533  21.320  0.00  0.00    +0.000 A 
ENDROOT
BRANCH   1  10
ATOM      8  O   UNL     1       3.271   8.037  17.668  0.00  0.00    +0.000 OA
ATOM      9  C   UNL     1       2.787   7.132  18.345  0.00  0.00    +0.000 C 
ATOM     10  N   UNL     1       1.940   7.306  19.422  0.00  0.00    +0.000 N 
ATOM     11  H   UNL     1       1.616   6.448  19.858  0.00  0.00    +0.000 HD
BRANCH   9  12
ATOM     12  C   UNL     1       3.114   5.715  17.985  0.00  0.00    +0.000 A 
ATOM     13  C   UNL     1       2.195   4.731  18.399  0.00  0.00    +0.000 A 
ATOM     14  C   UNL     1       2.429   3.388  18.110  0.00  0.00    +0.000 A 
ATOM     15 CL   UNL     1       1.300   2.194  18.622  0.00  0.00    +0.000 Cl
ATOM     16  C   UNL     1       3.569   3.001  17.412  0.00  0.00    +0.000 A 
ATOM     17  C   UNL     1       4.489   3.964  16.993  0.00  0.00    +0.000 A 
ATOM     18  C   UNL     1       4.262   5.314  17.284  0.00  0.00    +0.000 A 
BRANCH  18  19
ATOM     19  O   UNL     1       5.191   6.233  16.864  0.00  0.00    +0.000 OA
ATOM     20  H   UNL     1       5.476   6.769  17.626  0.00  0.00    +0.000 HD
ENDBRANCH  18  19
ENDBRANCH   9  12
ENDBRANCH   1  10
BRANCH   4  21
ATOM     21  O   UNL     1      -0.123  12.028  21.600  0.00  0.00    +0.000 OA
BRANCH  21  22
ATOM     22  C   UNL     1      -1.481  12.230  21.629  0.00  0.00    +0.000 A 
ATOM     23  C   UNL     1      -2.276  12.514  20.521  0.00  0.00    +0.000 A 
ATOM     24  C   UNL     1      -3.619  12.853  20.703  0.00  0.00    +0.000 A 
ATOM     25  C   UNL     1      -4.199  12.830  21.982  0.00  0.00    +0.000 A 
ATOM     26  C   UNL     1      -5.534  13.212  22.190  0.00  0.00    +0.000 A 
ATOM     27  C   UNL     1      -6.103  13.146  23.462  0.00  0.00    +0.000 A 
ATOM     28  C   UNL     1      -5.350  12.688  24.539  0.00  0.00    +0.000 A 
ATOM     29  C   UNL     1      -4.016  12.327  24.355  0.00  0.00    +0.000 A 
ATOM     30  C   UNL     1      -3.422  12.414  23.085  0.00  0.00    +0.000 A 
ATOM     31  C   UNL     1      -2.065  12.119  22.893  0.00  0.00    +0.000 A 
ENDBRANCH  21  22
ENDBRANCH   4  21
TORSDOF 5
ENDMDL
MODEL 5
REMARK VINA RESULT:      -9.0      8.009     10.412
REMARK  Name = 
REMARK  5 active torsions:
REMARK  status: ('A' for Active; 'I' for Inactive)
REMARK    1  A    between atoms: C_2  and  C_22
REMARK    2  A    between atoms: N_3  and  C_4
REMARK    3  A    between atoms: C_7  and  O_8
REMARK    4  A    between atoms: O_8  and  C_9
REMARK    5  A    between atoms: C_28  and  O_29
REMARK                            x       y       z     vdW  Elec       q    Type
REMARK                         _______ _______ _______ _____ _____    ______ ____
ROOT
ATOM      1  C   UNL     1      -1.018  10.438  18.965  0.00  0.00    +0.000 A 
ATOM      2  C   UNL     1      -0.251  10.114  17.853  0.00  0.00    +0.000 A 
ATOM      3  C   UNL     1       0.930   9.381  17.999  0.00  0.00    +0.000 A 
ATOM      4  C   UNL     1       1.377   8.976  19.262  0.00  0.00    +0.000 A 
ATOM      5  C   UNL     1       0.648   9.372  20.390  0.00  0.00    +0.000 A 
ATOM      6 CL   UNL     1       1.190   9.165  22.021  0.00  0.00    +0.000 Cl
ATOM      7  C   UNL     1      -0.568  10.054  20.233  0.00  0.00    +0.000 A 
ENDROOT
BRANCH   1  10
ATOM      8  O   UNL     1      -3.642   9.727  17.786  0.00  0.00    +0.000 OA
ATOM      9  C   UNL     1      -3.420  10.801  18.341  0.00  0.00    +0.000 C 
ATOM     10  N   UNL     1      -2.218  11.170  18.914  0.00  0.00    +0.000 N 
ATOM     11  H   UNL     1      -2.200  12.104  19.314  0.00  0.00    +0.000 HD
BRANCH   9  12
ATOM     12  C   UNL     1      -4.519  11.818  18.402  0.00  0.00    +0.000 A 
ATOM     13  C   UNL     1      -4.657  12.526  19.611  0.00  0.00    +0.000 A 
ATOM     14  C   UNL     1      -5.659  13.484  19.752  0.00  0.00    +0.000 A 
ATOM     15 CL   UNL     1      -5.820  14.343  21.235  0.00  0.00    +0.000 Cl
ATOM     16  C   UNL     1      -6.533  13.754  18.704  0.00  0.00    +0.000 A 
ATOM     17  C   UNL     1      -6.409  13.062  17.497  0.00  0.00    +0.000 A 
ATOM     18  C   UNL     1      -5.407  12.096  17.351  0.00  0.00    +0.000 A 
BRANCH  18  19
ATOM     19  O   UNL     1      -5.318  11.429  16.154  0.00  0.00    +0.000 OA
ATOM     20  H   UNL     1      -6.199  11.404  15.738  0.00  0.00    +0.000 HD
ENDBRANCH  18  19
ENDBRANCH   9  12
ENDBRANCH   1  10
BRANCH   4  21
ATOM     21  O   UNL     1       2.582   8.315  19.229  0.00  0.00    +0.000 OA
BRANCH  21  22
ATOM     22  C   UNL     1       2.651   6.965  18.985  0.00  0.00    +0.000 A 
ATOM     23  C   UNL     1       3.247   6.377  17.872  0.00  0.00    +0.000 A 
ATOM     24  C   UNL     1       3.113   5.002  17.662  0.00  0.00    +0.000 A 
ATOM     25  C   UNL     1       2.457   4.192  18.602  0.00  0.00    +0.000 A 
ATOM     26  C   UNL     1       2.274   2.817  18.386  0.00  0.00    +0.000 A 
ATOM     27  C   UNL     1       1.653   2.022  19.349  0.00  0.00    +0.000 A 
ATOM     28  C   UNL     1       1.219   2.587  20.545  0.00  0.00    +0.000 A 
ATOM     29  C   UNL     1       1.373   3.955  20.767  0.00  0.00    +0.000 A 
ATOM     30  C   UNL     1       1.971   4.773  19.794  0.00  0.00    +0.000 A 
ATOM     31  C   UNL     1       2.073   6.160  19.970  0.00  0.00    +0.000 A 
ENDBRANCH  21  22
ENDBRANCH   4  21
TORSDOF 5
ENDMDL
MODEL 6
REMARK VINA RESULT:      -8.9      1.269      1.532
REMARK  Name = 
REMARK  5 active torsions:
REMARK  status: ('A' for Active; 'I' for Inactive)
REMARK    1  A    between atoms: C_2  and  C_22
REMARK    2  A    between atoms: N_3  and  C_4
REMARK    3  A    between atoms: C_7  and  O_8
REMARK    4  A    between atoms: O_8  and  C_9
REMARK    5  A    between atoms: C_28  and  O_29
REMARK                            x       y       z     vdW  Elec       q    Type
REMARK                         _______ _______ _______ _____ _____    ______ ____
ROOT
ATOM      1  C   UNL     1       8.153   8.281  18.120  0.00  0.00    +0.000 A 
ATOM      2  C   UNL     1       8.521   7.320  19.054  0.00  0.00    +0.000 A 
ATOM      3  C   UNL     1       8.020   6.019  18.962  0.00  0.00    +0.000 A 
ATOM      4  C   UNL     1       7.126   5.658  17.947  0.00  0.00    +0.000 A 
ATOM      5  C   UNL     1       6.692   6.647  17.055  0.00  0.00    +0.000 A 
ATOM      6 CL   UNL     1       5.416   6.427  15.906  0.00  0.00    +0.000 Cl
ATOM      7  C   UNL     1       7.245   7.934  17.114  0.00  0.00    +0.000 A 
ENDROOT
BRANCH   1  10
ATOM      8  O   UNL     1       9.234   9.911  20.346  0.00  0.00    +0.000 OA
ATOM      9  C   UNL     1       9.093  10.339  19.202  0.00  0.00    +0.000 C 
ATOM     10  N   UNL     1       8.606   9.612  18.132  0.00  0.00    +0.000 N 
ATOM     11  H   UNL     1       8.536  10.126  17.259  0.00  0.00    +0.000 HD
BRANCH   9  12
ATOM     12  C   UNL     1       9.459  11.764  18.919  0.00  0.00    +0.000 A 
ATOM     13  C   UNL     1      10.219  12.002  17.758  0.00  0.00    +0.000 A 
ATOM     14  C   UNL     1      10.606  13.299  17.427  0.00  0.00    +0.000 A 
ATOM     15 CL   UNL     1      11.537  13.578  16.006  0.00  0.00    +0.000 Cl
ATOM     16  C   UNL     1      10.248  14.374  18.235  0.00  0.00    +0.000 A 
ATOM     17  C   UNL     1       9.492  14.155  19.389  0.00  0.00    +0.000 A 
ATOM     18  C   UNL     1       9.104  12.854  19.729  0.00  0.00    +0.000 A 
BRANCH  18  19
ATOM     19  O   UNL     1       8.368  12.675  20.874  0.00  0.00    +0.000 OA
ATOM     20  H   UNL     1       8.782  11.976  21.412  0.00  0.00    +0.000 HD
ENDBRANCH  18  19
ENDBRANCH   9  12
ENDBRANCH   1  10
BRANCH   4  21
ATOM     21  O   UNL     1       6.690   4.357  18.039  0.00  0.00    +0.000 OA
BRANCH  21  22
ATOM     22  C   UNL     1       5.353   4.053  18.102  0.00  0.00    +0.000 A 
ATOM     23  C   UNL     1       4.567   3.651  17.025  0.00  0.00    +0.000 A 
ATOM     24  C   UNL     1       3.185   3.522  17.188  0.00  0.00    +0.000 A 
ATOM     25  C   UNL     1       2.589   3.712  18.444  0.00  0.00    +0.000 A 
ATOM     26  C   UNL     1       1.198   3.631  18.617  0.00  0.00    +0.000 A 
ATOM     27  C   UNL     1       0.627   3.785  19.881  0.00  0.00    +0.000 A 
ATOM     28  C   UNL     1       1.439   4.010  20.989  0.00  0.00    +0.000 A 
ATOM     29  C   UNL     1       2.821   4.115  20.832  0.00  0.00    +0.000 A 
ATOM     30  C   UNL     1       3.407   3.990  19.562  0.00  0.00    +0.000 A 
ATOM     31  C   UNL     1       4.785   4.159  19.374  0.00  0.00    +0.000 A 
ENDBRANCH  21  22
ENDBRANCH   4  21
TORSDOF 5
ENDMDL
MODEL 7
REMARK VINA RESULT:      -8.7      5.576      8.088
REMARK  Name = 
REMARK  5 active torsions:
REMARK  status: ('A' for Active; 'I' for Inactive)
REMARK    1  A    between atoms: C_2  and  C_22
REMARK    2  A    between atoms: N_3  and  C_4
REMARK    3  A    between atoms: C_7  and  O_8
REMARK    4  A    between atoms: O_8  and  C_9
REMARK    5  A    between atoms: C_28  and  O_29
REMARK                            x       y       z     vdW  Elec       q    Type
REMARK                         _______ _______ _______ _____ _____    ______ ____
ROOT
ATOM      1  C   UNL     1       2.411   7.340  19.055  0.00  0.00    +0.000 A 
ATOM      2  C   UNL     1       3.247   7.383  17.946  0.00  0.00    +0.000 A 
ATOM      3  C   UNL     1       3.948   6.243  17.545  0.00  0.00    +0.000 A 
ATOM      4  C   UNL     1       3.843   5.042  18.258  0.00  0.00    +0.000 A 
ATOM      5  C   UNL     1       3.065   5.020  19.422  0.00  0.00    +0.000 A 
ATOM      6 CL   UNL     1       3.025   3.699  20.540  0.00  0.00    +0.000 Cl
ATOM      7  C   UNL     1       2.315   6.150  19.784  0.00  0.00    +0.000 A 
ENDROOT
BRANCH   1  10
ATOM      8  O   UNL     1       1.676   9.877  17.713  0.00  0.00    +0.000 OA
ATOM      9  C   UNL     1       1.358   9.608  18.870  0.00  0.00    +0.000 C 
ATOM     10  N   UNL     1       1.668   8.435  19.530  0.00  0.00    +0.000 N 
ATOM     11  H   UNL     1       1.345   8.384  20.492  0.00  0.00    +0.000 HD
BRANCH   9  12
ATOM     12  C   UNL     1       0.585  10.622  19.655  0.00  0.00    +0.000 A 
ATOM     13  C   UNL     1       0.153  10.232  20.938  0.00  0.00    +0.000 A 
ATOM     14  C   UNL     1      -0.578  11.115  21.731  0.00  0.00    +0.000 A 
ATOM     15 CL   UNL     1      -1.101  10.626  23.296  0.00  0.00    +0.000 Cl
ATOM     16  C   UNL     1      -0.891  12.390  21.268  0.00  0.00    +0.000 A 
ATOM     17  C   UNL     1      -0.469  12.793  20.000  0.00  0.00    +0.000 A 
ATOM     18  C   UNL     1       0.262  11.909  19.197  0.00  0.00    +0.000 A 
BRANCH  18  19
ATOM     19  O   UNL     1       0.654  12.336  17.953  0.00  0.00    +0.000 OA
ATOM     20  H   UNL     1       1.626  12.297  17.894  0.00  0.00    +0.000 HD
ENDBRANCH  18  19
ENDBRANCH   9  12
ENDBRANCH   1  10
BRANCH   4  21
ATOM     21  O   UNL     1       4.641   4.039  17.760  0.00  0.00    +0.000 OA
BRANCH  21  22
ATOM     22  C   UNL     1       5.540   4.275  16.749  0.00  0.00    +0.000 A 
ATOM     23  C   UNL     1       6.731   4.985  16.880  0.00  0.00    +0.000 A 
ATOM     24  C   UNL     1       7.482   5.291  15.741  0.00  0.00    +0.000 A 
ATOM     25  C   UNL     1       7.094   4.820  14.477  0.00  0.00    +0.000 A 
ATOM     26  C   UNL     1       7.811   5.154  13.317  0.00  0.00    +0.000 A 
ATOM     27  C   UNL     1       7.433   4.645  12.075  0.00  0.00    +0.000 A 
ATOM     28  C   UNL     1       6.341   3.786  11.977  0.00  0.00    +0.000 A 
ATOM     29  C   UNL     1       5.605   3.461  13.115  0.00  0.00    +0.000 A 
ATOM     30  C   UNL     1       5.958   3.988  14.369  0.00  0.00    +0.000 A 
ATOM     31  C   UNL     1       5.190   3.727  15.512  0.00  0.00    +0.000 A 
ENDBRANCH  21  22
ENDBRANCH   4  21
TORSDOF 5
ENDMDL
MODEL 8
REMARK VINA RESULT:      -8.7      7.770     10.485
REMARK  Name = 
REMARK  5 active torsions:
REMARK  status: ('A' for Active; 'I' for Inactive)
REMARK    1  A    between atoms: C_2  and  C_22
REMARK    2  A    between atoms: N_3  and  C_4
REMARK    3  A    between atoms: C_7  and  O_8
REMARK    4  A    between atoms: O_8  and  C_9
REMARK    5  A    between atoms: C_28  and  O_29
REMARK                            x       y       z     vdW  Elec       q    Type
REMARK                         _______ _______ _______ _____ _____    ______ ____
ROOT
ATOM      1  C   UNL     1       1.087   8.750  20.489  0.00  0.00    +0.000 A 
ATOM      2  C   UNL     1       1.002   9.619  19.407  0.00  0.00    +0.000 A 
ATOM      3  C   UNL     1       0.355  10.850  19.540  0.00  0.00    +0.000 A 
ATOM      4  C   UNL     1      -0.239  11.227  20.750  0.00  0.00    +0.000 A 
ATOM      5  C   UNL     1      -0.225  10.318  21.815  0.00  0.00    +0.000 A 
ATOM      6 CL   UNL     1      -1.116  10.528  23.285  0.00  0.00    +0.000 Cl
ATOM      7  C   UNL     1       0.480   9.111  21.696  0.00  0.00    +0.000 A 
ENDROOT
BRANCH   1  10
ATOM      8  O   UNL     1       2.767   7.523  18.379  0.00  0.00    +0.000 OA
ATOM      9  C   UNL     1       2.487   6.957  19.433  0.00  0.00    +0.000 C 
ATOM     10  N   UNL     1       1.719   7.494  20.448  0.00  0.00    +0.000 N 
ATOM     11  H   UNL     1       1.567   6.882  21.245  0.00  0.00    +0.000 HD
BRANCH   9  12
ATOM     12  C   UNL     1       2.993   5.564  19.657  0.00  0.00    +0.000 A 
ATOM     13  C   UNL     1       2.205   4.729  20.471  0.00  0.00    +0.000 A 
ATOM     14  C   UNL     1       2.608   3.421  20.734  0.00  0.00    +0.000 A 
ATOM     15 CL   UNL     1       1.637   2.410  21.731  0.00  0.00    +0.000 Cl
ATOM     16  C   UNL     1       3.793   2.924  20.197  0.00  0.00    +0.000 A 
ATOM     17  C   UNL     1       4.586   3.739  19.387  0.00  0.00    +0.000 A 
ATOM     18  C   UNL     1       4.187   5.054  19.123  0.00  0.00    +0.000 A 
BRANCH  18  19
ATOM     19  O   UNL     1       4.995   5.830  18.328  0.00  0.00    +0.000 OA
ATOM     20  H   UNL     1       4.637   5.836  17.421  0.00  0.00    +0.000 HD
ENDBRANCH  18  19
ENDBRANCH   9  12
ENDBRANCH   1  10
BRANCH   4  21
ATOM     21  O   UNL     1      -0.880  12.442  20.689  0.00  0.00    +0.000 OA
BRANCH  21  22
ATOM     22  C   UNL     1      -2.249  12.526  20.613  0.00  0.00    +0.000 A 
ATOM     23  C   UNL     1      -3.087  12.961  21.637  0.00  0.00    +0.000 A 
ATOM     24  C   UNL     1      -4.472  12.852  21.489  0.00  0.00    +0.000 A 
ATOM     25  C   UNL     1      -5.033  12.387  20.289  0.00  0.00    +0.000 A 
ATOM     26  C   UNL     1      -6.419  12.228  20.138  0.00  0.00    +0.000 A 
ATOM     27  C   UNL     1      -6.959  11.800  18.925  0.00  0.00    +0.000 A 
ATOM     28  C   UNL     1      -6.123  11.538  17.844  0.00  0.00    +0.000 A 
ATOM     29  C   UNL     1      -4.742  11.669  17.982  0.00  0.00    +0.000 A 
ATOM     30  C   UNL     1      -4.182  12.072  19.206  0.00  0.00    +0.000 A 
ATOM     31  C   UNL     1      -2.794  12.145  19.384  0.00  0.00    +0.000 A 
ENDBRANCH  21  22
ENDBRANCH   4  21
TORSDOF 5
ENDMDL
MODEL 9
REMARK VINA RESULT:      -8.7      7.587     10.404
REMARK  Name = 
REMARK  5 active torsions:
REMARK  status: ('A' for Active; 'I' for Inactive)
REMARK    1  A    between atoms: C_2  and  C_22
REMARK    2  A    between atoms: N_3  and  C_4
REMARK    3  A    between atoms: C_7  and  O_8
REMARK    4  A    between atoms: O_8  and  C_9
REMARK    5  A    between atoms: C_28  and  O_29
REMARK                            x       y       z     vdW  Elec       q    Type
REMARK                         _______ _______ _______ _____ _____    ______ ____
ROOT
ATOM      1  C   UNL     1       1.484   8.513  19.991  0.00  0.00    +0.000 A 
ATOM      2  C   UNL     1       1.407   9.686  19.250  0.00  0.00    +0.000 A 
ATOM      3  C   UNL     1       1.025  10.883  19.862  0.00  0.00    +0.000 A 
ATOM      4  C   UNL     1       0.692  10.927  21.221  0.00  0.00    +0.000 A 
ATOM      5  C   UNL     1       0.690   9.730  21.949  0.00  0.00    +0.000 A 
ATOM      6 CL   UNL     1       0.075   9.572  23.559  0.00  0.00    +0.000 Cl
ATOM      7  C   UNL     1       1.135   8.544  21.345  0.00  0.00    +0.000 A 
ENDROOT
BRANCH   1  10
ATOM      8  O   UNL     1       3.316   7.857  17.757  0.00  0.00    +0.000 OA
ATOM      9  C   UNL     1       2.712   7.006  18.407  0.00  0.00    +0.000 C 
ATOM     10  N   UNL     1       1.858   7.265  19.462  0.00  0.00    +0.000 N 
ATOM     11  H   UNL     1       1.425   6.445  19.877  0.00  0.00    +0.000 HD
BRANCH   9  12
ATOM     12  C   UNL     1       2.884   5.565  18.037  0.00  0.00    +0.000 A 
ATOM     13  C   UNL     1       1.880   4.677  18.470  0.00  0.00    +0.000 A 
ATOM     14  C   UNL     1       1.968   3.319  18.173  0.00  0.00    +0.000 A 
ATOM     15 CL   UNL     1       0.737   2.244  18.710  0.00  0.00    +0.000 Cl
ATOM     16  C   UNL     1       3.046   2.821  17.446  0.00  0.00    +0.000 A 
ATOM     17  C   UNL     1       4.049   3.688  17.007  0.00  0.00    +0.000 A 
ATOM     18  C   UNL     1       3.967   5.053  17.306  0.00  0.00    +0.000 A 
BRANCH  18  19
ATOM     19  O   UNL     1       4.975   5.875  16.865  0.00  0.00    +0.000 OA
ATOM     20  H   UNL     1       4.583   6.641  16.408  0.00  0.00    +0.000 HD
ENDBRANCH  18  19
ENDBRANCH   9  12
ENDBRANCH   1  10
BRANCH   4  21
ATOM     21  O   UNL     1       0.286  12.170  21.645  0.00  0.00    +0.000 OA
BRANCH  21  22
ATOM     22  C   UNL     1      -1.032  12.434  21.927  0.00  0.00    +0.000 A 
ATOM     23  C   UNL     1      -1.550  12.679  23.197  0.00  0.00    +0.000 A 
ATOM     24  C   UNL     1      -2.933  12.780  23.372  0.00  0.00    +0.000 A 
ATOM     25  C   UNL     1      -3.802  12.721  22.271  0.00  0.00    +0.000 A 
ATOM     26  C   UNL     1      -5.196  12.775  22.433  0.00  0.00    +0.000 A 
ATOM     27  C   UNL     1      -6.042  12.753  21.323  0.00  0.00    +0.000 A 
ATOM     28  C   UNL     1      -5.507  12.689  20.040  0.00  0.00    +0.000 A 
ATOM     29  C   UNL     1      -4.126  12.613  19.863  0.00  0.00    +0.000 A 
ATOM     30  C   UNL     1      -3.263  12.606  20.971  0.00  0.00    +0.000 A 
ATOM     31  C   UNL     1      -1.878  12.462  20.816  0.00  0.00    +0.000 A 
ENDBRANCH  21  22
ENDBRANCH   4  21
TORSDOF 5
ENDMDL
