MODEL 1
REMARK VINA RESULT:      -7.3      0.000      0.000
REMARK  Name = 
REMARK  8 active torsions:
REMARK  status: ('A' for Active; 'I' for Inactive)
REMARK    1  A    between atoms: C_1  and  C_2
REMARK    2  A    between atoms: C_2  and  C_3
REMARK    3  A    between atoms: C_4  and  C_5
REMARK    4  A    between atoms: C_5  and  C_6
REMARK    5  A    between atoms: C_6  and  C_7
REMARK    6  A    between atoms: C_7  and  C_8
REMARK    7  A    between atoms: C_9  and  C_10
REMARK    8  A    between atoms: C_10  and  C_11
REMARK                            x       y       z     vdW  Elec       q    Type
REMARK                         _______ _______ _______ _____ _____    ______ ____
ROOT
ATOM      1  C   UNL     1       5.863   5.625  16.269  0.00  0.00    +0.000 C 
ATOM      2  C   UNL     1       6.768   6.161  17.349  0.00  0.00    +0.000 C 
ATOM      3  C   UNL     1       4.557   5.378  16.505  0.00  0.00    +0.000 C 
ENDROOT
BRANCH   1   4
ATOM      4  C   UNL     1       6.527   5.353  14.925  0.00  0.00    +0.000 C 
BRANCH   4   5
ATOM      5  C   UNL     1       6.304   3.938  14.368  0.00  0.00    +0.000 C 
BRANCH   5   9
ATOM      6  C   UNL     1       4.200   3.145  11.187  0.00  0.00    +0.000 C 
ATOM      7  C   UNL     1       5.372   3.254  12.121  0.00  0.00    +0.000 C 
ATOM      8  C   UNL     1       6.675   2.657  11.661  0.00  0.00    +0.000 C 
ATOM      9  C   UNL     1       5.235   3.867  13.313  0.00  0.00    +0.000 C 
ENDBRANCH   5   9
ENDBRANCH   4   5
ENDBRANCH   1   4
BRANCH   3  10
ATOM     10  C   UNL     1       3.807   5.624  17.787  0.00  0.00    +0.000 C 
BRANCH  10  11
ATOM     11  C   UNL     1       3.200   4.363  18.337  0.00  0.00    +0.000 C 
ATOM     12  C   UNL     1       1.917   4.020  18.143  0.00  0.00    +0.000 C 
ATOM     13  C   UNL     1       1.350   2.761  18.661  0.00  0.00    +0.000 C 
ATOM     14  O   UNL     1       0.178   2.467  18.472  0.00  0.00    +0.000 OA
ATOM     15  C   UNL     1       2.253   1.871  19.412  0.00  0.00    +0.000 C 
ATOM     16  C   UNL     1       3.527   2.202  19.623  0.00  0.00    +0.000 C 
ATOM     17  C   UNL     1       4.095   3.468  19.119  0.00  0.00    +0.000 C 
ATOM     18  O   UNL     1       5.267   3.742  19.351  0.00  0.00    +0.000 OA
ENDBRANCH  10  11
ENDBRANCH   3  10
TORSDOF 5
ENDMDL
MODEL 2
REMARK VINA RESULT:      -7.3      1.145      2.219
REMARK  Name = 
REMARK  8 active torsions:
REMARK  status: ('A' for Active; 'I' for Inactive)
REMARK    1  A    between atoms: C_1  and  C_2
REMARK    2  A    between atoms: C_2  and  C_3
REMARK    3  A    between atoms: C_4  and  C_5
REMARK    4  A    between atoms: C_5  and  C_6
REMARK    5  A    between atoms: C_6  and  C_7
REMARK    6  A    between atoms: C_7  and  C_8
REMARK    7  A    between atoms: C_9  and  C_10
REMARK    8  A    between atoms: C_10  and  C_11
REMARK                            x       y       z     vdW  Elec       q    Type
REMARK                         _______ _______ _______ _____ _____    ______ ____
ROOT
ATOM      1  C   UNL     1       6.281   5.269  16.175  0.00  0.00    +0.000 C 
ATOM      2  C   UNL     1       7.322   5.274  17.266  0.00  0.00    +0.000 C 
ATOM      3  C   UNL     1       4.976   5.483  16.447  0.00  0.00    +0.000 C 
ENDROOT
BRANCH   1   4
ATOM      4  C   UNL     1       6.796   4.974  14.772  0.00  0.00    +0.000 C 
BRANCH   4   5
ATOM      5  C   UNL     1       5.745   4.415  13.800  0.00  0.00    +0.000 C 
BRANCH   5   9
ATOM      6  C   UNL     1       6.239   1.620  11.133  0.00  0.00    +0.000 C 
ATOM      7  C   UNL     1       5.610   2.738  11.915  0.00  0.00    +0.000 C 
ATOM      8  C   UNL     1       4.288   3.262  11.423  0.00  0.00    +0.000 C 
ATOM      9  C   UNL     1       6.225   3.231  13.008  0.00  0.00    +0.000 C 
ENDBRANCH   5   9
ENDBRANCH   4   5
ENDBRANCH   1   4
BRANCH   3  10
ATOM     10  C   UNL     1       4.372   5.794  17.790  0.00  0.00    +0.000 C 
BRANCH  10  11
ATOM     11  C   UNL     1       3.876   4.558  18.486  0.00  0.00    +0.000 C 
ATOM     12  C   UNL     1       4.672   3.743  19.196  0.00  0.00    +0.000 C 
ATOM     13  C   UNL     1       4.160   2.554  19.901  0.00  0.00    +0.000 C 
ATOM     14  O   UNL     1       4.903   1.826  20.543  0.00  0.00    +0.000 OA
ATOM     15  C   UNL     1       2.715   2.281  19.803  0.00  0.00    +0.000 C 
ATOM     16  C   UNL     1       1.911   3.073  19.093  0.00  0.00    +0.000 C 
ATOM     17  C   UNL     1       2.423   4.257  18.374  0.00  0.00    +0.000 C 
ATOM     18  O   UNL     1       1.652   4.948  17.718  0.00  0.00    +0.000 OA
ENDBRANCH  10  11
ENDBRANCH   3  10
TORSDOF 5
ENDMDL
MODEL 3
REMARK VINA RESULT:      -7.1      1.647      2.420
REMARK  Name = 
REMARK  8 active torsions:
REMARK  status: ('A' for Active; 'I' for Inactive)
REMARK    1  A    between atoms: C_1  and  C_2
REMARK    2  A    between atoms: C_2  and  C_3
REMARK    3  A    between atoms: C_4  and  C_5
REMARK    4  A    between atoms: C_5  and  C_6
REMARK    5  A    between atoms: C_6  and  C_7
REMARK    6  A    between atoms: C_7  and  C_8
REMARK    7  A    between atoms: C_9  and  C_10
REMARK    8  A    between atoms: C_10  and  C_11
REMARK                            x       y       z     vdW  Elec       q    Type
REMARK                         _______ _______ _______ _____ _____    ______ ____
ROOT
ATOM      1  C   UNL     1       5.034   5.592  17.510  0.00  0.00    +0.000 C 
ATOM      2  C   UNL     1       5.684   5.458  18.865  0.00  0.00    +0.000 C 
ATOM      3  C   UNL     1       3.722   5.880  17.386  0.00  0.00    +0.000 C 
ENDROOT
BRANCH   1   4
ATOM      4  C   UNL     1       5.945   5.346  16.314  0.00  0.00    +0.000 C 
BRANCH   4   5
ATOM      5  C   UNL     1       5.394   4.358  15.273  0.00  0.00    +0.000 C 
BRANCH   5   9
ATOM      6  C   UNL     1       7.150   3.434  11.921  0.00  0.00    +0.000 C 
ATOM      7  C   UNL     1       6.068   3.675  12.936  0.00  0.00    +0.000 C 
ATOM      8  C   UNL     1       4.644   3.547  12.465  0.00  0.00    +0.000 C 
ATOM      9  C   UNL     1       6.387   3.990  14.207  0.00  0.00    +0.000 C 
ENDBRANCH   5   9
ENDBRANCH   4   5
ENDBRANCH   1   4
BRANCH   3  10
ATOM     10  C   UNL     1       2.746   6.152  18.499  0.00  0.00    +0.000 C 
BRANCH  10  11
ATOM     11  C   UNL     1       2.288   4.887  19.169  0.00  0.00    +0.000 C 
ATOM     12  C   UNL     1       2.591   4.576  20.439  0.00  0.00    +0.000 C 
ATOM     13  C   UNL     1       2.102   3.346  21.090  0.00  0.00    +0.000 C 
ATOM     14  O   UNL     1       2.391   3.083  22.249  0.00  0.00    +0.000 OA
ATOM     15  C   UNL     1       1.249   2.451  20.289  0.00  0.00    +0.000 C 
ATOM     16  C   UNL     1       0.946   2.739  19.023  0.00  0.00    +0.000 C 
ATOM     17  C   UNL     1       1.447   3.962  18.363  0.00  0.00    +0.000 C 
ATOM     18  O   UNL     1       1.159   4.180  17.192  0.00  0.00    +0.000 OA
ENDBRANCH  10  11
ENDBRANCH   3  10
TORSDOF 5
ENDMDL
MODEL 4
REMARK VINA RESULT:      -7.0      1.752      2.160
REMARK  Name = 
REMARK  8 active torsions:
REMARK  status: ('A' for Active; 'I' for Inactive)
REMARK    1  A    between atoms: C_1  and  C_2
REMARK    2  A    between atoms: C_2  and  C_3
REMARK    3  A    between atoms: C_4  and  C_5
REMARK    4  A    between atoms: C_5  and  C_6
REMARK    5  A    between atoms: C_6  and  C_7
REMARK    6  A    between atoms: C_7  and  C_8
REMARK    7  A    between atoms: C_9  and  C_10
REMARK    8  A    between atoms: C_10  and  C_11
REMARK                            x       y       z     vdW  Elec       q    Type
REMARK                         _______ _______ _______ _____ _____    ______ ____
ROOT
ATOM      1  C   UNL     1       5.565   5.501  16.641  0.00  0.00    +0.000 C 
ATOM      2  C   UNL     1       5.876   6.793  17.355  0.00  0.00    +0.000 C 
ATOM      3  C   UNL     1       5.351   4.356  17.323  0.00  0.00    +0.000 C 
ENDROOT
BRANCH   1   4
ATOM      4  C   UNL     1       5.547   5.575  15.120  0.00  0.00    +0.000 C 
BRANCH   4   5
ATOM      5  C   UNL     1       5.100   4.284  14.415  0.00  0.00    +0.000 C 
BRANCH   5   9
ATOM      6  C   UNL     1       7.081   2.797  11.409  0.00  0.00    +0.000 C 
ATOM      7  C   UNL     1       5.934   3.265  12.258  0.00  0.00    +0.000 C 
ATOM      8  C   UNL     1       4.562   3.230  11.639  0.00  0.00    +0.000 C 
ATOM      9  C   UNL     1       6.151   3.693  13.517  0.00  0.00    +0.000 C 
ENDBRANCH   5   9
ENDBRANCH   4   5
ENDBRANCH   1   4
BRANCH   3  10
ATOM     10  C   UNL     1       5.334   4.184  18.818  0.00  0.00    +0.000 C 
BRANCH  10  11
ATOM     11  C   UNL     1       3.938   4.214  19.375  0.00  0.00    +0.000 C 
ATOM     12  C   UNL     1       3.346   5.335  19.816  0.00  0.00    +0.000 C 
ATOM     13  C   UNL     1       1.962   5.349  20.325  0.00  0.00    +0.000 C 
ATOM     14  O   UNL     1       1.441   6.383  20.721  0.00  0.00    +0.000 OA
ATOM     15  C   UNL     1       1.231   4.070  20.333  0.00  0.00    +0.000 C 
ATOM     16  C   UNL     1       1.807   2.945  19.909  0.00  0.00    +0.000 C 
ATOM     17  C   UNL     1       3.198   2.923  19.412  0.00  0.00    +0.000 C 
ATOM     18  O   UNL     1       3.695   1.864  19.049  0.00  0.00    +0.000 OA
ENDBRANCH  10  11
ENDBRANCH   3  10
TORSDOF 5
ENDMDL
MODEL 5
REMARK VINA RESULT:      -7.0      1.565      1.980
REMARK  Name = 
REMARK  8 active torsions:
REMARK  status: ('A' for Active; 'I' for Inactive)
REMARK    1  A    between atoms: C_1  and  C_2
REMARK    2  A    between atoms: C_2  and  C_3
REMARK    3  A    between atoms: C_4  and  C_5
REMARK    4  A    between atoms: C_5  and  C_6
REMARK    5  A    between atoms: C_6  and  C_7
REMARK    6  A    between atoms: C_7  and  C_8
REMARK    7  A    between atoms: C_9  and  C_10
REMARK    8  A    between atoms: C_10  and  C_11
REMARK                            x       y       z     vdW  Elec       q    Type
REMARK                         _______ _______ _______ _____ _____    ______ ____
ROOT
ATOM      1  C   UNL     1       5.984   5.382  16.441  0.00  0.00    +0.000 C 
ATOM      2  C   UNL     1       7.124   4.769  17.215  0.00  0.00    +0.000 C 
ATOM      3  C   UNL     1       4.879   5.844  17.065  0.00  0.00    +0.000 C 
ENDROOT
BRANCH   1   4
ATOM      4  C   UNL     1       6.151   5.408  14.927  0.00  0.00    +0.000 C 
BRANCH   4   5
ATOM      5  C   UNL     1       5.350   4.338  14.169  0.00  0.00    +0.000 C 
BRANCH   5   9
ATOM      6  C   UNL     1       6.793   2.227  11.230  0.00  0.00    +0.000 C 
ATOM      7  C   UNL     1       5.823   2.999  12.078  0.00  0.00    +0.000 C 
ATOM      8  C   UNL     1       4.443   3.220  11.517  0.00  0.00    +0.000 C 
ATOM      9  C   UNL     1       6.197   3.464  13.287  0.00  0.00    +0.000 C 
ENDBRANCH   5   9
ENDBRANCH   4   5
ENDBRANCH   1   4
BRANCH   3  10
ATOM     10  C   UNL     1       4.625   5.876  18.548  0.00  0.00    +0.000 C 
BRANCH  10  11
ATOM     11  C   UNL     1       3.513   4.946  18.950  0.00  0.00    +0.000 C 
ATOM     12  C   UNL     1       3.505   3.637  18.652  0.00  0.00    +0.000 C 
ATOM     13  C   UNL     1       2.422   2.735  19.086  0.00  0.00    +0.000 C 
ATOM     14  O   UNL     1       2.435   1.545  18.804  0.00  0.00    +0.000 OA
ATOM     15  C   UNL     1       1.327   3.325  19.876  0.00  0.00    +0.000 C 
ATOM     16  C   UNL     1       1.313   4.625  20.171  0.00  0.00    +0.000 C 
ATOM     17  C   UNL     1       2.389   5.535  19.726  0.00  0.00    +0.000 C 
ATOM     18  O   UNL     1       2.328   6.726  20.004  0.00  0.00    +0.000 OA
ENDBRANCH  10  11
ENDBRANCH   3  10
TORSDOF 5
ENDMDL
MODEL 6
REMARK VINA RESULT:      -6.9      1.955      2.227
REMARK  Name = 
REMARK  8 active torsions:
REMARK  status: ('A' for Active; 'I' for Inactive)
REMARK    1  A    between atoms: C_1  and  C_2
REMARK    2  A    between atoms: C_2  and  C_3
REMARK    3  A    between atoms: C_4  and  C_5
REMARK    4  A    between atoms: C_5  and  C_6
REMARK    5  A    between atoms: C_6  and  C_7
REMARK    6  A    between atoms: C_7  and  C_8
REMARK    7  A    between atoms: C_9  and  C_10
REMARK    8  A    between atoms: C_10  and  C_11
REMARK                            x       y       z     vdW  Elec       q    Type
REMARK                         _______ _______ _______ _____ _____    ______ ____
ROOT
ATOM      1  C   UNL     1       6.201   5.489  16.921  0.00  0.00    +0.000 C 
ATOM      2  C   UNL     1       6.976   6.319  17.914  0.00  0.00    +0.000 C 
ATOM      3  C   UNL     1       4.855   5.550  16.854  0.00  0.00    +0.000 C 
ENDROOT
BRANCH   1   4
ATOM      4  C   UNL     1       7.034   4.566  16.040  0.00  0.00    +0.000 C 
BRANCH   4   5
ATOM      5  C   UNL     1       6.962   4.871  14.535  0.00  0.00    +0.000 C 
BRANCH   5   9
ATOM      6  C   UNL     1       5.447   2.529  11.816  0.00  0.00    +0.000 C 
ATOM      7  C   UNL     1       6.280   3.601  12.459  0.00  0.00    +0.000 C 
ATOM      8  C   UNL     1       7.284   4.307  11.588  0.00  0.00    +0.000 C 
ATOM      9  C   UNL     1       6.114   3.899  13.763  0.00  0.00    +0.000 C 
ENDBRANCH   5   9
ENDBRANCH   4   5
ENDBRANCH   1   4
BRANCH   3  10
ATOM     10  C   UNL     1       3.948   6.434  17.667  0.00  0.00    +0.000 C 
BRANCH  10  11
ATOM     11  C   UNL     1       3.170   5.654  18.692  0.00  0.00    +0.000 C 
ATOM     12  C   UNL     1       3.202   4.315  18.777  0.00  0.00    +0.000 C 
ATOM     13  C   UNL     1       2.460   3.571  19.811  0.00  0.00    +0.000 C 
ATOM     14  O   UNL     1       2.504   2.350  19.871  0.00  0.00    +0.000 OA
ATOM     15  C   UNL     1       1.668   4.359  20.772  0.00  0.00    +0.000 C 
ATOM     16  C   UNL     1       1.616   5.689  20.696  0.00  0.00    +0.000 C 
ATOM     17  C   UNL     1       2.346   6.436  19.652  0.00  0.00    +0.000 C 
ATOM     18  O   UNL     1       2.256   7.658  19.607  0.00  0.00    +0.000 OA
ENDBRANCH  10  11
ENDBRANCH   3  10
TORSDOF 5
ENDMDL
MODEL 7
REMARK VINA RESULT:      -6.9      2.884      4.798
REMARK  Name = 
REMARK  8 active torsions:
REMARK  status: ('A' for Active; 'I' for Inactive)
REMARK    1  A    between atoms: C_1  and  C_2
REMARK    2  A    between atoms: C_2  and  C_3
REMARK    3  A    between atoms: C_4  and  C_5
REMARK    4  A    between atoms: C_5  and  C_6
REMARK    5  A    between atoms: C_6  and  C_7
REMARK    6  A    between atoms: C_7  and  C_8
REMARK    7  A    between atoms: C_9  and  C_10
REMARK    8  A    between atoms: C_10  and  C_11
REMARK                            x       y       z     vdW  Elec       q    Type
REMARK                         _______ _______ _______ _____ _____    ______ ____
ROOT
ATOM      1  C   UNL     1       5.123   4.789  17.023  0.00  0.00    +0.000 C 
ATOM      2  C   UNL     1       6.156   4.439  18.065  0.00  0.00    +0.000 C 
ATOM      3  C   UNL     1       4.090   3.963  16.754  0.00  0.00    +0.000 C 
ENDROOT
BRANCH   1   4
ATOM      4  C   UNL     1       5.348   6.102  16.284  0.00  0.00    +0.000 C 
BRANCH   4   5
ATOM      5  C   UNL     1       4.440   7.258  16.729  0.00  0.00    +0.000 C 
BRANCH   5   9
ATOM      6  C   UNL     1       2.059   7.260  19.813  0.00  0.00    +0.000 C 
ATOM      7  C   UNL     1       2.668   7.636  18.492  0.00  0.00    +0.000 C 
ATOM      8  C   UNL     1       1.958   8.688  17.682  0.00  0.00    +0.000 C 
ATOM      9  C   UNL     1       3.804   7.042  18.074  0.00  0.00    +0.000 C 
ENDBRANCH   5   9
ENDBRANCH   4   5
ENDBRANCH   1   4
BRANCH   3  10
ATOM     10  C   UNL     1       3.775   2.658  17.434  0.00  0.00    +0.000 C 
BRANCH  10  11
ATOM     11  C   UNL     1       2.931   2.851  18.664  0.00  0.00    +0.000 C 
ATOM     12  C   UNL     1       3.325   2.479  19.892  0.00  0.00    +0.000 C 
ATOM     13  C   UNL     1       2.498   2.709  21.090  0.00  0.00    +0.000 C 
ATOM     14  O   UNL     1       2.877   2.363  22.201  0.00  0.00    +0.000 OA
ATOM     15  C   UNL     1       1.199   3.378  20.897  0.00  0.00    +0.000 C 
ATOM     16  C   UNL     1       0.787   3.744  19.683  0.00  0.00    +0.000 C 
ATOM     17  C   UNL     1       1.606   3.501  18.478  0.00  0.00    +0.000 C 
ATOM     18  O   UNL     1       1.182   3.838  17.379  0.00  0.00    +0.000 OA
ENDBRANCH  10  11
ENDBRANCH   3  10
TORSDOF 5
ENDMDL
MODEL 8
REMARK VINA RESULT:      -6.9      2.581      6.679
REMARK  Name = 
REMARK  8 active torsions:
REMARK  status: ('A' for Active; 'I' for Inactive)
REMARK    1  A    between atoms: C_1  and  C_2
REMARK    2  A    between atoms: C_2  and  C_3
REMARK    3  A    between atoms: C_4  and  C_5
REMARK    4  A    between atoms: C_5  and  C_6
REMARK    5  A    between atoms: C_6  and  C_7
REMARK    6  A    between atoms: C_7  and  C_8
REMARK    7  A    between atoms: C_9  and  C_10
REMARK    8  A    between atoms: C_10  and  C_11
REMARK                            x       y       z     vdW  Elec       q    Type
REMARK                         _______ _______ _______ _____ _____    ______ ____
ROOT
ATOM      1  C   UNL     1       3.148   4.750  17.480  0.00  0.00    +0.000 C 
ATOM      2  C   UNL     1       3.481   6.064  18.141  0.00  0.00    +0.000 C 
ATOM      3  C   UNL     1       4.088   4.034  16.827  0.00  0.00    +0.000 C 
ENDROOT
BRANCH   1   4
ATOM      4  C   UNL     1       1.690   4.316  17.570  0.00  0.00    +0.000 C 
BRANCH   4   5
ATOM      5  C   UNL     1       1.465   2.933  18.200  0.00  0.00    +0.000 C 
BRANCH   5   9
ATOM      6  C   UNL     1       2.010   2.981  22.057  0.00  0.00    +0.000 C 
ATOM      7  C   UNL     1       2.279   2.808  20.589  0.00  0.00    +0.000 C 
ATOM      8  C   UNL     1       3.685   2.449  20.186  0.00  0.00    +0.000 C 
ATOM      9  C   UNL     1       1.287   2.972  19.692  0.00  0.00    +0.000 C 
ENDBRANCH   5   9
ENDBRANCH   4   5
ENDBRANCH   1   4
BRANCH   3  10
ATOM     10  C   UNL     1       5.549   4.369  16.694  0.00  0.00    +0.000 C 
BRANCH  10  11
ATOM     11  C   UNL     1       6.008   4.335  15.263  0.00  0.00    +0.000 C 
ATOM     12  C   UNL     1       5.447   3.551  14.329  0.00  0.00    +0.000 C 
ATOM     13  C   UNL     1       5.888   3.558  12.922  0.00  0.00    +0.000 C 
ATOM     14  O   UNL     1       5.362   2.836  12.087  0.00  0.00    +0.000 OA
ATOM     15  C   UNL     1       6.984   4.475  12.563  0.00  0.00    +0.000 C 
ATOM     16  C   UNL     1       7.560   5.253  13.479  0.00  0.00    +0.000 C 
ATOM     17  C   UNL     1       7.131   5.237  14.893  0.00  0.00    +0.000 C 
ATOM     18  O   UNL     1       7.699   5.956  15.706  0.00  0.00    +0.000 OA
ENDBRANCH  10  11
ENDBRANCH   3  10
TORSDOF 5
ENDMDL
MODEL 9
REMARK VINA RESULT:      -6.9      1.800      2.163
REMARK  Name = 
REMARK  8 active torsions:
REMARK  status: ('A' for Active; 'I' for Inactive)
REMARK    1  A    between atoms: C_1  and  C_2
REMARK    2  A    between atoms: C_2  and  C_3
REMARK    3  A    between atoms: C_4  and  C_5
REMARK    4  A    between atoms: C_5  and  C_6
REMARK    5  A    between atoms: C_6  and  C_7
REMARK    6  A    between atoms: C_7  and  C_8
REMARK    7  A    between atoms: C_9  and  C_10
REMARK    8  A    between atoms: C_10  and  C_11
REMARK                            x       y       z     vdW  Elec       q    Type
REMARK                         _______ _______ _______ _____ _____    ______ ____
ROOT
ATOM      1  C   UNL     1       6.040   5.442  16.650  0.00  0.00    +0.000 C 
ATOM      2  C   UNL     1       6.699   6.613  17.333  0.00  0.00    +0.000 C 
ATOM      3  C   UNL     1       5.541   4.406  17.357  0.00  0.00    +0.000 C 
ENDROOT
BRANCH   1   4
ATOM      4  C   UNL     1       6.010   5.496  15.128  0.00  0.00    +0.000 C 
BRANCH   4   5
ATOM      5  C   UNL     1       6.129   4.132  14.429  0.00  0.00    +0.000 C 
BRANCH   5   9
ATOM      6  C   UNL     1       4.216   3.062  11.210  0.00  0.00    +0.000 C 
ATOM      7  C   UNL     1       5.344   3.336  12.163  0.00  0.00    +0.000 C 
ATOM      8  C   UNL     1       6.728   2.942  11.722  0.00  0.00    +0.000 C 
ATOM      9  C   UNL     1       5.100   3.912  13.357  0.00  0.00    +0.000 C 
ENDBRANCH   5   9
ENDBRANCH   4   5
ENDBRANCH   1   4
BRANCH   3  10
ATOM     10  C   UNL     1       5.510   4.265  18.855  0.00  0.00    +0.000 C 
BRANCH  10  11
ATOM     11  C   UNL     1       4.152   4.573  19.423  0.00  0.00    +0.000 C 
ATOM     12  C   UNL     1       3.655   5.817  19.506  0.00  0.00    +0.000 C 
ATOM     13  C   UNL     1       2.307   6.095  20.034  0.00  0.00    +0.000 C 
ATOM     14  O   UNL     1       1.872   7.237  20.101  0.00  0.00    +0.000 OA
ATOM     15  C   UNL     1       1.502   4.941  20.473  0.00  0.00    +0.000 C 
ATOM     16  C   UNL     1       1.984   3.700  20.408  0.00  0.00    +0.000 C 
ATOM     17  C   UNL     1       3.340   3.419  19.894  0.00  0.00    +0.000 C 
ATOM     18  O   UNL     1       3.750   2.265  19.867  0.00  0.00    +0.000 OA
ENDBRANCH  10  11
ENDBRANCH   3  10
TORSDOF 5
ENDMDL
