MODEL 1
REMARK VINA RESULT:      -8.0      0.000      0.000
REMARK  Name = 
REMARK  12 active torsions:
REMARK  status: ('A' for Active; 'I' for Inactive)
REMARK    1  A    between atoms: C_1  and  C_2
REMARK    2  A    between atoms: C_2  and  N_3
REMARK    3  A    between atoms: N_3  and  C_4
REMARK    4  A    between atoms: N_3  and  C_6
REMARK    5  A    between atoms: C_4  and  C_5
REMARK    6  A    between atoms: N_14  and  C_15
REMARK    7  A    between atoms: N_17  and  C_18
REMARK    8  A    between atoms: C_18  and  C_19
REMARK    9  A    between atoms: C_22  and  O_23
REMARK   10  A    between atoms: O_23  and  C_24
REMARK   11  A    between atoms: C_28  and  C_29
REMARK   12  A    between atoms: C_29  and  O_30
REMARK                            x       y       z     vdW  Elec       q    Type
REMARK                         _______ _______ _______ _____ _____    ______ ____
ROOT
ATOM      1  C   UNL     1       1.979   4.471  18.305  0.00  0.00    +0.000 C 
ATOM      2  C   UNL     1       3.251   3.998  17.556  0.00  0.00    +0.000 C 
ATOM      3  N   UNL     1       4.185   3.163  18.339  0.00  0.00    +0.000 NA
ATOM      4  C   UNL     1       3.415   2.048  18.915  0.00  0.00    +0.000 C 
ATOM      5  C   UNL     1       2.078   2.397  19.611  0.00  0.00    +0.000 C 
ATOM      6  O   UNL     1       1.276   3.373  18.922  0.00  0.00    +0.000 OA
ENDROOT
BRANCH   1  15
ATOM      7  C   UNL     1       1.483   9.001  19.877  0.00  0.00    +0.000 A 
ATOM      8  N   UNL     1       1.790   9.571  18.674  0.00  0.00    +0.000 NA
ATOM      9  C   UNL     1       2.251   8.794  17.679  0.00  0.00    +0.000 A 
ATOM     10  N   UNL     1       2.388   7.459  17.675  0.00  0.00    +0.000 NA
ATOM     11  C   UNL     1       2.102   6.933  18.874  0.00  0.00    +0.000 A 
ATOM     12  C   UNL     1       1.719   7.617  20.017  0.00  0.00    +0.000 A 
ATOM     13  N   UNL     1       1.595   6.743  21.079  0.00  0.00    +0.000 NA
ATOM     14  C   UNL     1       1.805   5.552  20.567  0.00  0.00    +0.000 A 
ATOM     15  N   UNL     1       2.065   5.602  19.219  0.00  0.00    +0.000 N 
BRANCH   7  16
ATOM     16  N   UNL     1       0.920   9.797  20.889  0.00  0.00    +0.000 N 
BRANCH  16  18
ATOM     17  C   UNL     1      -0.242   9.472  23.052  0.00  0.00    +0.000 C 
ATOM     18  C   UNL     1      -0.220   9.175  21.560  0.00  0.00    +0.000 C 
ENDBRANCH  16  18
BRANCH  16  19
ATOM     19  C   UNL     1       0.933  11.236  20.607  0.00  0.00    +0.000 C 
ATOM     20  C   UNL     1      -0.444  11.817  20.300  0.00  0.00    +0.000 C 
ENDBRANCH  16  19
ENDBRANCH   7  16
ENDBRANCH   1  15
BRANCH   3  21
ATOM     21  C   UNL     1       4.953   3.968  19.300  0.00  0.00    +0.000 C 
BRANCH  21  22
ATOM     22  C   UNL     1       5.798   5.062  18.694  0.00  0.00    +0.000 A 
ATOM     23  C   UNL     1       7.021   5.444  19.255  0.00  0.00    +0.000 A 
ATOM     24  C   UNL     1       7.755   6.493  18.703  0.00  0.00    +0.000 A 
ATOM     25  C   UNL     1       7.306   7.142  17.547  0.00  0.00    +0.000 A 
ATOM     26  C   UNL     1       6.109   6.738  16.960  0.00  0.00    +0.000 A 
ATOM     27  C   UNL     1       5.365   5.700  17.521  0.00  0.00    +0.000 A 
BRANCH  25  28
ATOM     28  O   UNL     1       8.088   8.177  17.119  0.00  0.00    +0.000 OA
ATOM     29  C   UNL     1       8.308   9.210  18.069  0.00  0.00    +0.000 C 
ENDBRANCH  25  28
ENDBRANCH  21  22
ENDBRANCH   3  21
BRANCH   5  30
ATOM     30  C   UNL     1       2.207   2.722  21.104  0.00  0.00    +0.000 C 
BRANCH  30  31
ATOM     31  O   UNL     1       3.445   2.241  21.613  0.00  0.00    +0.000 OA
ATOM     32  H   UNL     1       3.961   1.907  20.859  0.00  0.00    +0.000 HD
ENDBRANCH  30  31
ENDBRANCH   5  30
TORSDOF 9
ENDMDL
MODEL 2
REMARK VINA RESULT:      -8.0      0.571      1.201
REMARK  Name = 
REMARK  12 active torsions:
REMARK  status: ('A' for Active; 'I' for Inactive)
REMARK    1  A    between atoms: C_1  and  C_2
REMARK    2  A    between atoms: C_2  and  N_3
REMARK    3  A    between atoms: N_3  and  C_4
REMARK    4  A    between atoms: N_3  and  C_6
REMARK    5  A    between atoms: C_4  and  C_5
REMARK    6  A    between atoms: N_14  and  C_15
REMARK    7  A    between atoms: N_17  and  C_18
REMARK    8  A    between atoms: C_18  and  C_19
REMARK    9  A    between atoms: C_22  and  O_23
REMARK   10  A    between atoms: O_23  and  C_24
REMARK   11  A    between atoms: C_28  and  C_29
REMARK   12  A    between atoms: C_29  and  O_30
REMARK                            x       y       z     vdW  Elec       q    Type
REMARK                         _______ _______ _______ _____ _____    ______ ____
ROOT
ATOM      1  C   UNL     1       2.118   4.438  18.478  0.00  0.00    +0.000 C 
ATOM      2  C   UNL     1       3.404   4.084  17.687  0.00  0.00    +0.000 C 
ATOM      3  N   UNL     1       4.435   3.338  18.437  0.00  0.00    +0.000 NA
ATOM      4  C   UNL     1       3.790   2.157  19.033  0.00  0.00    +0.000 C 
ATOM      5  C   UNL     1       2.450   2.382  19.773  0.00  0.00    +0.000 C 
ATOM      6  O   UNL     1       1.539   3.280  19.114  0.00  0.00    +0.000 OA
ENDROOT
BRANCH   1  15
ATOM      7  C   UNL     1       1.431   8.956  20.012  0.00  0.00    +0.000 A 
ATOM      8  N   UNL     1       1.785   9.532  18.825  0.00  0.00    +0.000 NA
ATOM      9  C   UNL     1       2.316   8.766  17.857  0.00  0.00    +0.000 A 
ATOM     10  N   UNL     1       2.485   7.435  17.863  0.00  0.00    +0.000 NA
ATOM     11  C   UNL     1       2.152   6.903  19.047  0.00  0.00    +0.000 A 
ATOM     12  C   UNL     1       1.693   7.578  20.168  0.00  0.00    +0.000 A 
ATOM     13  N   UNL     1       1.537   6.703  21.224  0.00  0.00    +0.000 NA
ATOM     14  C   UNL     1       1.802   5.517  20.726  0.00  0.00    +0.000 A 
ATOM     15  N   UNL     1       2.130   5.572  19.393  0.00  0.00    +0.000 N 
BRANCH   7  16
ATOM     16  N   UNL     1       0.798   9.739  20.992  0.00  0.00    +0.000 N 
BRANCH  16  18
ATOM     17  C   UNL     1      -0.968  11.341  20.323  0.00  0.00    +0.000 C 
ATOM     18  C   UNL     1       0.517  11.107  20.562  0.00  0.00    +0.000 C 
ENDBRANCH  16  18
BRANCH  16  19
ATOM     19  C   UNL     1       1.229   9.456  22.366  0.00  0.00    +0.000 C 
ATOM     20  C   UNL     1       0.094   9.478  23.385  0.00  0.00    +0.000 C 
ENDBRANCH  16  19
ENDBRANCH   7  16
ENDBRANCH   1  15
BRANCH   3  21
ATOM     21  C   UNL     1       5.156   4.210  19.375  0.00  0.00    +0.000 C 
BRANCH  21  22
ATOM     22  C   UNL     1       5.953   5.323  18.738  0.00  0.00    +0.000 A 
ATOM     23  C   UNL     1       7.243   5.647  19.173  0.00  0.00    +0.000 A 
ATOM     24  C   UNL     1       7.934   6.714  18.600  0.00  0.00    +0.000 A 
ATOM     25  C   UNL     1       7.371   7.440  17.545  0.00  0.00    +0.000 A 
ATOM     26  C   UNL     1       6.104   7.094  17.080  0.00  0.00    +0.000 A 
ATOM     27  C   UNL     1       5.403   6.039  17.663  0.00  0.00    +0.000 A 
BRANCH  25  28
ATOM     28  O   UNL     1       8.125   8.484  17.088  0.00  0.00    +0.000 OA
ATOM     29  C   UNL     1       8.354   9.527  18.026  0.00  0.00    +0.000 C 
ENDBRANCH  25  28
ENDBRANCH  21  22
ENDBRANCH   3  21
BRANCH   5  30
ATOM     30  C   UNL     1       2.596   2.716  21.262  0.00  0.00    +0.000 C 
BRANCH  30  31
ATOM     31  O   UNL     1       1.409   2.375  21.967  0.00  0.00    +0.000 OA
ATOM     32  H   UNL     1       0.730   3.031  21.730  0.00  0.00    +0.000 HD
ENDBRANCH  30  31
ENDBRANCH   5  30
TORSDOF 9
ENDMDL
MODEL 3
REMARK VINA RESULT:      -8.0      4.067      8.554
REMARK  Name = 
REMARK  12 active torsions:
REMARK  status: ('A' for Active; 'I' for Inactive)
REMARK    1  A    between atoms: C_1  and  C_2
REMARK    2  A    between atoms: C_2  and  N_3
REMARK    3  A    between atoms: N_3  and  C_4
REMARK    4  A    between atoms: N_3  and  C_6
REMARK    5  A    between atoms: C_4  and  C_5
REMARK    6  A    between atoms: N_14  and  C_15
REMARK    7  A    between atoms: N_17  and  C_18
REMARK    8  A    between atoms: C_18  and  C_19
REMARK    9  A    between atoms: C_22  and  O_23
REMARK   10  A    between atoms: O_23  and  C_24
REMARK   11  A    between atoms: C_28  and  C_29
REMARK   12  A    between atoms: C_29  and  O_30
REMARK                            x       y       z     vdW  Elec       q    Type
REMARK                         _______ _______ _______ _____ _____    ______ ____
ROOT
ATOM      1  C   UNL     1       0.922  11.644  20.605  0.00  0.00    +0.000 C 
ATOM      2  C   UNL     1       0.085  12.373  19.521  0.00  0.00    +0.000 C 
ATOM      3  N   UNL     1      -1.366  12.466  19.786  0.00  0.00    +0.000 NA
ATOM      4  C   UNL     1      -1.541  13.047  21.128  0.00  0.00    +0.000 C 
ATOM      5  C   UNL     1      -0.685  12.453  22.271  0.00  0.00    +0.000 C 
ATOM      6  O   UNL     1       0.685  12.181  21.922  0.00  0.00    +0.000 OA
ENDROOT
BRANCH   1  15
ATOM      7  C   UNL     1       2.245   7.154  19.451  0.00  0.00    +0.000 A 
ATOM      8  N   UNL     1       2.386   7.418  18.119  0.00  0.00    +0.000 NA
ATOM      9  C   UNL     1       1.973   8.603  17.637  0.00  0.00    +0.000 A 
ATOM     10  N   UNL     1       1.487   9.646  18.328  0.00  0.00    +0.000 NA
ATOM     11  C   UNL     1       1.339   9.349  19.627  0.00  0.00    +0.000 A 
ATOM     12  C   UNL     1       1.620   8.140  20.245  0.00  0.00    +0.000 A 
ATOM     13  N   UNL     1       1.258   8.188  21.576  0.00  0.00    +0.000 NA
ATOM     14  C   UNL     1       0.858   9.423  21.777  0.00  0.00    +0.000 A 
ATOM     15  N   UNL     1       0.936  10.188  20.639  0.00  0.00    +0.000 N 
BRANCH   7  16
ATOM     16  N   UNL     1       2.754   5.952  19.971  0.00  0.00    +0.000 N 
BRANCH  16  18
ATOM     17  C   UNL     1       4.038   4.475  18.453  0.00  0.00    +0.000 C 
ATOM     18  C   UNL     1       4.083   5.610  19.467  0.00  0.00    +0.000 C 
ENDBRANCH  16  18
BRANCH  16  19
ATOM     19  C   UNL     1       1.744   4.912  20.195  0.00  0.00    +0.000 C 
ATOM     20  C   UNL     1       2.079   3.965  21.343  0.00  0.00    +0.000 C 
ENDBRANCH  16  19
ENDBRANCH   7  16
ENDBRANCH   1  15
BRANCH   3  21
ATOM     21  C   UNL     1      -2.040  11.180  19.557  0.00  0.00    +0.000 C 
BRANCH  21  22
ATOM     22  C   UNL     1      -2.571  10.970  18.159  0.00  0.00    +0.000 A 
ATOM     23  C   UNL     1      -3.748  11.584  17.719  0.00  0.00    +0.000 A 
ATOM     24  C   UNL     1      -4.242  11.331  16.441  0.00  0.00    +0.000 A 
ATOM     25  C   UNL     1      -3.538  10.503  15.559  0.00  0.00    +0.000 A 
ATOM     26  C   UNL     1      -2.343   9.922  15.978  0.00  0.00    +0.000 A 
ATOM     27  C   UNL     1      -1.856  10.161  17.263  0.00  0.00    +0.000 A 
BRANCH  25  28
ATOM     28  O   UNL     1      -4.136  10.299  14.348  0.00  0.00    +0.000 OA
ATOM     29  C   UNL     1      -3.300   9.750  13.339  0.00  0.00    +0.000 C 
ENDBRANCH  25  28
ENDBRANCH  21  22
ENDBRANCH   3  21
BRANCH   5  30
ATOM     30  C   UNL     1      -1.331  11.268  22.998  0.00  0.00    +0.000 C 
BRANCH  30  31
ATOM     31  O   UNL     1      -2.670  11.577  23.362  0.00  0.00    +0.000 OA
ATOM     32  H   UNL     1      -2.723  12.541  23.486  0.00  0.00    +0.000 HD
ENDBRANCH  30  31
ENDBRANCH   5  30
TORSDOF 9
ENDMDL
MODEL 4
REMARK VINA RESULT:      -7.7      0.551      1.062
REMARK  Name = 
REMARK  12 active torsions:
REMARK  status: ('A' for Active; 'I' for Inactive)
REMARK    1  A    between atoms: C_1  and  C_2
REMARK    2  A    between atoms: C_2  and  N_3
REMARK    3  A    between atoms: N_3  and  C_4
REMARK    4  A    between atoms: N_3  and  C_6
REMARK    5  A    between atoms: C_4  and  C_5
REMARK    6  A    between atoms: N_14  and  C_15
REMARK    7  A    between atoms: N_17  and  C_18
REMARK    8  A    between atoms: C_18  and  C_19
REMARK    9  A    between atoms: C_22  and  O_23
REMARK   10  A    between atoms: O_23  and  C_24
REMARK   11  A    between atoms: C_28  and  C_29
REMARK   12  A    between atoms: C_29  and  O_30
REMARK                            x       y       z     vdW  Elec       q    Type
REMARK                         _______ _______ _______ _____ _____    ______ ____
ROOT
ATOM      1  C   UNL     1       2.027   4.566  18.193  0.00  0.00    +0.000 C 
ATOM      2  C   UNL     1       3.329   4.117  17.481  0.00  0.00    +0.000 C 
ATOM      3  N   UNL     1       4.238   3.270  18.278  0.00  0.00    +0.000 NA
ATOM      4  C   UNL     1       3.454   2.137  18.799  0.00  0.00    +0.000 C 
ATOM      5  C   UNL     1       2.091   2.463  19.453  0.00  0.00    +0.000 C 
ATOM      6  O   UNL     1       1.308   3.450  18.758  0.00  0.00    +0.000 OA
ENDROOT
BRANCH   1  15
ATOM      7  C   UNL     1       1.369   9.034  19.880  0.00  0.00    +0.000 A 
ATOM      8  N   UNL     1       1.655   9.645  18.693  0.00  0.00    +0.000 NA
ATOM      9  C   UNL     1       2.144   8.911  17.679  0.00  0.00    +0.000 A 
ATOM     10  N   UNL     1       2.329   7.582  17.641  0.00  0.00    +0.000 NA
ATOM     11  C   UNL     1       2.062   7.015  18.825  0.00  0.00    +0.000 A 
ATOM     12  C   UNL     1       1.654   7.656  19.985  0.00  0.00    +0.000 A 
ATOM     13  N   UNL     1       1.561   6.751  21.024  0.00  0.00    +0.000 NA
ATOM     14  C   UNL     1       1.814   5.582  20.482  0.00  0.00    +0.000 A 
ATOM     15  N   UNL     1       2.072   5.676  19.136  0.00  0.00    +0.000 N 
BRANCH   7  16
ATOM     16  N   UNL     1       0.777   9.782  20.912  0.00  0.00    +0.000 N 
BRANCH  16  18
ATOM     17  C   UNL     1      -0.251   9.687  23.163  0.00  0.00    +0.000 C 
ATOM     18  C   UNL     1      -0.026   8.981  21.834  0.00  0.00    +0.000 C 
ENDBRANCH  16  18
BRANCH  16  19
ATOM     19  C   UNL     1       0.348  11.128  20.516  0.00  0.00    +0.000 C 
ATOM     20  C   UNL     1       1.310  12.233  20.944  0.00  0.00    +0.000 C 
ENDBRANCH  16  19
ENDBRANCH   7  16
ENDBRANCH   1  15
BRANCH   3  21
ATOM     21  C   UNL     1       4.965   4.056  19.286  0.00  0.00    +0.000 C 
BRANCH  21  22
ATOM     22  C   UNL     1       5.792   5.195  18.740  0.00  0.00    +0.000 A 
ATOM     23  C   UNL     1       5.343   5.990  17.680  0.00  0.00    +0.000 A 
ATOM     24  C   UNL     1       6.152   7.001  17.163  0.00  0.00    +0.000 A 
ATOM     25  C   UNL     1       7.401   7.272  17.733  0.00  0.00    +0.000 A 
ATOM     26  C   UNL     1       7.835   6.510  18.816  0.00  0.00    +0.000 A 
ATOM     27  C   UNL     1       7.035   5.486  19.323  0.00  0.00    +0.000 A 
BRANCH  25  28
ATOM     28  O   UNL     1       8.119   8.260  17.121  0.00  0.00    +0.000 OA
ATOM     29  C   UNL     1       8.420   9.387  17.931  0.00  0.00    +0.000 C 
ENDBRANCH  25  28
ENDBRANCH  21  22
ENDBRANCH   3  21
BRANCH   5  30
ATOM     30  C   UNL     1       2.162   2.752  20.957  0.00  0.00    +0.000 C 
BRANCH  30  31
ATOM     31  O   UNL     1       0.864   2.698  21.536  0.00  0.00    +0.000 OA
ATOM     32  H   UNL     1       0.942   3.001  22.457  0.00  0.00    +0.000 HD
ENDBRANCH  30  31
ENDBRANCH   5  30
TORSDOF 9
ENDMDL
MODEL 5
REMARK VINA RESULT:      -7.3      1.807      2.103
REMARK  Name = 
REMARK  12 active torsions:
REMARK  status: ('A' for Active; 'I' for Inactive)
REMARK    1  A    between atoms: C_1  and  C_2
REMARK    2  A    between atoms: C_2  and  N_3
REMARK    3  A    between atoms: N_3  and  C_4
REMARK    4  A    between atoms: N_3  and  C_6
REMARK    5  A    between atoms: C_4  and  C_5
REMARK    6  A    between atoms: N_14  and  C_15
REMARK    7  A    between atoms: N_17  and  C_18
REMARK    8  A    between atoms: C_18  and  C_19
REMARK    9  A    between atoms: C_22  and  O_23
REMARK   10  A    between atoms: O_23  and  C_24
REMARK   11  A    between atoms: C_28  and  C_29
REMARK   12  A    between atoms: C_29  and  O_30
REMARK                            x       y       z     vdW  Elec       q    Type
REMARK                         _______ _______ _______ _____ _____    ______ ____
ROOT
ATOM      1  C   UNL     1       1.454   3.647  18.727  0.00  0.00    +0.000 C 
ATOM      2  C   UNL     1       2.194   3.398  17.387  0.00  0.00    +0.000 C 
ATOM      3  N   UNL     1       3.568   2.868  17.502  0.00  0.00    +0.000 NA
ATOM      4  C   UNL     1       3.518   1.670  18.357  0.00  0.00    +0.000 C 
ATOM      5  C   UNL     1       2.726   1.780  19.681  0.00  0.00    +0.000 C 
ATOM      6  O   UNL     1       1.475   2.485  19.580  0.00  0.00    +0.000 OA
ENDROOT
BRANCH   1  15
ATOM      7  C   UNL     1       1.792   8.355  19.707  0.00  0.00    +0.000 A 
ATOM      8  N   UNL     1       2.194   8.702  18.449  0.00  0.00    +0.000 NA
ATOM      9  C   UNL     1       2.504   7.735  17.569  0.00  0.00    +0.000 A 
ATOM     10  N   UNL     1       2.396   6.408  17.735  0.00  0.00    +0.000 NA
ATOM     11  C   UNL     1       2.023   6.098  18.984  0.00  0.00    +0.000 A 
ATOM     12  C   UNL     1       1.773   6.980  20.025  0.00  0.00    +0.000 A 
ATOM     13  N   UNL     1       1.495   6.285  21.185  0.00  0.00    +0.000 NA
ATOM     14  C   UNL     1       1.484   5.020  20.831  0.00  0.00    +0.000 A 
ATOM     15  N   UNL     1       1.746   4.851  19.493  0.00  0.00    +0.000 N 
BRANCH   7  16
ATOM     16  N   UNL     1       1.385   9.361  20.600  0.00  0.00    +0.000 N 
BRANCH  16  18
ATOM     17  C   UNL     1       0.140   9.389  22.740  0.00  0.00    +0.000 C 
ATOM     18  C   UNL     1       1.393   8.943  22.000  0.00  0.00    +0.000 C 
ENDBRANCH  16  18
BRANCH  16  19
ATOM     19  C   UNL     1       0.329  10.239  20.083  0.00  0.00    +0.000 C 
ATOM     20  C   UNL     1       0.812  11.644  19.734  0.00  0.00    +0.000 C 
ENDBRANCH  16  19
ENDBRANCH   7  16
ENDBRANCH   1  15
BRANCH   3  21
ATOM     21  C   UNL     1       4.515   3.910  17.925  0.00  0.00    +0.000 C 
BRANCH  21  22
ATOM     22  C   UNL     1       5.502   4.350  16.870  0.00  0.00    +0.000 A 
ATOM     23  C   UNL     1       6.395   5.404  17.091  0.00  0.00    +0.000 A 
ATOM     24  C   UNL     1       7.259   5.822  16.080  0.00  0.00    +0.000 A 
ATOM     25  C   UNL     1       7.284   5.157  14.848  0.00  0.00    +0.000 A 
ATOM     26  C   UNL     1       6.425   4.081  14.638  0.00  0.00    +0.000 A 
ATOM     27  C   UNL     1       5.548   3.672  15.642  0.00  0.00    +0.000 A 
BRANCH  25  28
ATOM     28  O   UNL     1       8.145   5.678  13.923  0.00  0.00    +0.000 OA
ATOM     29  C   UNL     1       7.883   5.315  12.575  0.00  0.00    +0.000 C 
ENDBRANCH  25  28
ENDBRANCH  21  22
ENDBRANCH   3  21
BRANCH   5  30
ATOM     30  C   UNL     1       3.554   2.265  20.877  0.00  0.00    +0.000 C 
BRANCH  30  31
ATOM     31  O   UNL     1       4.899   1.820  20.764  0.00  0.00    +0.000 OA
ATOM     32  H   UNL     1       4.878   0.913  20.412  0.00  0.00    +0.000 HD
ENDBRANCH  30  31
ENDBRANCH   5  30
TORSDOF 9
ENDMDL
MODEL 6
REMARK VINA RESULT:      -7.3      1.668      2.099
REMARK  Name = 
REMARK  12 active torsions:
REMARK  status: ('A' for Active; 'I' for Inactive)
REMARK    1  A    between atoms: C_1  and  C_2
REMARK    2  A    between atoms: C_2  and  N_3
REMARK    3  A    between atoms: N_3  and  C_4
REMARK    4  A    between atoms: N_3  and  C_6
REMARK    5  A    between atoms: C_4  and  C_5
REMARK    6  A    between atoms: N_14  and  C_15
REMARK    7  A    between atoms: N_17  and  C_18
REMARK    8  A    between atoms: C_18  and  C_19
REMARK    9  A    between atoms: C_22  and  O_23
REMARK   10  A    between atoms: O_23  and  C_24
REMARK   11  A    between atoms: C_28  and  C_29
REMARK   12  A    between atoms: C_29  and  O_30
REMARK                            x       y       z     vdW  Elec       q    Type
REMARK                         _______ _______ _______ _____ _____    ______ ____
ROOT
ATOM      1  C   UNL     1       1.391   3.863  18.735  0.00  0.00    +0.000 C 
ATOM      2  C   UNL     1       2.164   3.553  17.427  0.00  0.00    +0.000 C 
ATOM      3  N   UNL     1       3.501   2.948  17.599  0.00  0.00    +0.000 NA
ATOM      4  C   UNL     1       3.350   1.767  18.467  0.00  0.00    +0.000 C 
ATOM      5  C   UNL     1       2.518   1.941  19.759  0.00  0.00    +0.000 C 
ATOM      6  O   UNL     1       1.314   2.714  19.603  0.00  0.00    +0.000 OA
ENDROOT
BRANCH   1  15
ATOM      7  C   UNL     1       1.778   8.561  19.745  0.00  0.00    +0.000 A 
ATOM      8  N   UNL     1       2.111   8.922  18.470  0.00  0.00    +0.000 NA
ATOM      9  C   UNL     1       2.373   7.964  17.564  0.00  0.00    +0.000 A 
ATOM     10  N   UNL     1       2.276   6.636  17.723  0.00  0.00    +0.000 NA
ATOM     11  C   UNL     1       1.971   6.312  18.987  0.00  0.00    +0.000 A 
ATOM     12  C   UNL     1       1.777   7.183  20.048  0.00  0.00    +0.000 A 
ATOM     13  N   UNL     1       1.563   6.476  21.215  0.00  0.00    +0.000 NA
ATOM     14  C   UNL     1       1.535   5.214  20.848  0.00  0.00    +0.000 A 
ATOM     15  N   UNL     1       1.723   5.059  19.497  0.00  0.00    +0.000 N 
BRANCH   7  16
ATOM     16  N   UNL     1       1.419   9.557  20.668  0.00  0.00    +0.000 N 
BRANCH  16  18
ATOM     17  C   UNL     1      -0.010   9.421  22.687  0.00  0.00    +0.000 C 
ATOM     18  C   UNL     1       1.327   9.076  22.046  0.00  0.00    +0.000 C 
ENDBRANCH  16  18
BRANCH  16  19
ATOM     19  C   UNL     1       0.469  10.548  20.153  0.00  0.00    +0.000 C 
ATOM     20  C   UNL     1       1.002  11.978  20.163  0.00  0.00    +0.000 C 
ENDBRANCH  16  19
ENDBRANCH   7  16
ENDBRANCH   1  15
BRANCH   3  21
ATOM     21  C   UNL     1       4.489   3.941  18.044  0.00  0.00    +0.000 C 
BRANCH  21  22
ATOM     22  C   UNL     1       5.437   4.430  16.975  0.00  0.00    +0.000 A 
ATOM     23  C   UNL     1       5.419   3.905  15.679  0.00  0.00    +0.000 A 
ATOM     24  C   UNL     1       6.340   4.339  14.727  0.00  0.00    +0.000 A 
ATOM     25  C   UNL     1       7.261   5.346  15.039  0.00  0.00    +0.000 A 
ATOM     26  C   UNL     1       7.256   5.902  16.316  0.00  0.00    +0.000 A 
ATOM     27  C   UNL     1       6.346   5.457  17.275  0.00  0.00    +0.000 A 
BRANCH  25  28
ATOM     28  O   UNL     1       8.137   5.664  14.040  0.00  0.00    +0.000 OA
ATOM     29  C   UNL     1       7.806   5.158  12.754  0.00  0.00    +0.000 C 
ENDBRANCH  25  28
ENDBRANCH  21  22
ENDBRANCH   3  21
BRANCH   5  30
ATOM     30  C   UNL     1       3.329   2.396  20.979  0.00  0.00    +0.000 C 
BRANCH  30  31
ATOM     31  O   UNL     1       2.530   2.343  22.154  0.00  0.00    +0.000 OA
ATOM     32  H   UNL     1       2.908   1.659  22.734  0.00  0.00    +0.000 HD
ENDBRANCH  30  31
ENDBRANCH   5  30
TORSDOF 9
ENDMDL
MODEL 7
REMARK VINA RESULT:      -7.3      3.895      8.296
REMARK  Name = 
REMARK  12 active torsions:
REMARK  status: ('A' for Active; 'I' for Inactive)
REMARK    1  A    between atoms: C_1  and  C_2
REMARK    2  A    between atoms: C_2  and  N_3
REMARK    3  A    between atoms: N_3  and  C_4
REMARK    4  A    between atoms: N_3  and  C_6
REMARK    5  A    between atoms: C_4  and  C_5
REMARK    6  A    between atoms: N_14  and  C_15
REMARK    7  A    between atoms: N_17  and  C_18
REMARK    8  A    between atoms: C_18  and  C_19
REMARK    9  A    between atoms: C_22  and  O_23
REMARK   10  A    between atoms: O_23  and  C_24
REMARK   11  A    between atoms: C_28  and  C_29
REMARK   12  A    between atoms: C_29  and  O_30
REMARK                            x       y       z     vdW  Elec       q    Type
REMARK                         _______ _______ _______ _____ _____    ______ ____
ROOT
ATOM      1  C   UNL     1       0.946  11.282  20.581  0.00  0.00    +0.000 C 
ATOM      2  C   UNL     1       0.071  12.104  19.600  0.00  0.00    +0.000 C 
ATOM      3  N   UNL     1      -1.379  12.107  19.881  0.00  0.00    +0.000 NA
ATOM      4  C   UNL     1      -1.564  12.510  21.285  0.00  0.00    +0.000 C 
ATOM      5  C   UNL     1      -0.674  11.815  22.343  0.00  0.00    +0.000 C 
ATOM      6  O   UNL     1       0.701  11.642  21.956  0.00  0.00    +0.000 OA
ENDROOT
BRANCH   1  15
ATOM      7  C   UNL     1       2.533   7.017  18.987  0.00  0.00    +0.000 A 
ATOM      8  N   UNL     1       2.763   7.453  17.713  0.00  0.00    +0.000 NA
ATOM      9  C   UNL     1       2.339   8.676  17.351  0.00  0.00    +0.000 A 
ATOM     10  N   UNL     1       1.761   9.607  18.126  0.00  0.00    +0.000 NA
ATOM     11  C   UNL     1       1.528   9.143  19.361  0.00  0.00    +0.000 A 
ATOM     12  C   UNL     1       1.811   7.875  19.845  0.00  0.00    +0.000 A 
ATOM     13  N   UNL     1       1.349   7.742  21.139  0.00  0.00    +0.000 NA
ATOM     14  C   UNL     1       0.886   8.928  21.460  0.00  0.00    +0.000 A 
ATOM     15  N   UNL     1       1.017   9.834  20.435  0.00  0.00    +0.000 N 
BRANCH   7  16
ATOM     16  N   UNL     1       3.051   5.775  19.391  0.00  0.00    +0.000 N 
BRANCH  16  18
ATOM     17  C   UNL     1       4.906   4.136  19.311  0.00  0.00    +0.000 C 
ATOM     18  C   UNL     1       4.397   5.508  18.890  0.00  0.00    +0.000 C 
ENDBRANCH  16  18
BRANCH  16  19
ATOM     19  C   UNL     1       2.054   4.703  19.479  0.00  0.00    +0.000 C 
ATOM     20  C   UNL     1       1.599   4.172  18.123  0.00  0.00    +0.000 C 
ENDBRANCH  16  19
ENDBRANCH   7  16
ENDBRANCH   1  15
BRANCH   3  21
ATOM     21  C   UNL     1      -2.005  10.833  19.498  0.00  0.00    +0.000 C 
BRANCH  21  22
ATOM     22  C   UNL     1      -2.418  10.727  18.050  0.00  0.00    +0.000 A 
ATOM     23  C   UNL     1      -1.752   9.884  17.154  0.00  0.00    +0.000 A 
ATOM     24  C   UNL     1      -2.122   9.846  15.811  0.00  0.00    +0.000 A 
ATOM     25  C   UNL     1      -3.201  10.610  15.350  0.00  0.00    +0.000 A 
ATOM     26  C   UNL     1      -3.893  11.420  16.247  0.00  0.00    +0.000 A 
ATOM     27  C   UNL     1      -3.514  11.472  17.588  0.00  0.00    +0.000 A 
BRANCH  25  28
ATOM     28  O   UNL     1      -3.448  10.520  14.009  0.00  0.00    +0.000 OA
ATOM     29  C   UNL     1      -4.458   9.594  13.636  0.00  0.00    +0.000 C 
ENDBRANCH  25  28
ENDBRANCH  21  22
ENDBRANCH   3  21
BRANCH   5  30
ATOM     30  C   UNL     1      -1.267  10.524  22.920  0.00  0.00    +0.000 C 
BRANCH  30  31
ATOM     31  O   UNL     1      -0.379   9.951  23.871  0.00  0.00    +0.000 OA
ATOM     32  H   UNL     1       0.353   9.542  23.378  0.00  0.00    +0.000 HD
ENDBRANCH  30  31
ENDBRANCH   5  30
TORSDOF 9
ENDMDL
MODEL 8
REMARK VINA RESULT:      -7.2      3.087      7.194
REMARK  Name = 
REMARK  12 active torsions:
REMARK  status: ('A' for Active; 'I' for Inactive)
REMARK    1  A    between atoms: C_1  and  C_2
REMARK    2  A    between atoms: C_2  and  N_3
REMARK    3  A    between atoms: N_3  and  C_4
REMARK    4  A    between atoms: N_3  and  C_6
REMARK    5  A    between atoms: C_4  and  C_5
REMARK    6  A    between atoms: N_14  and  C_15
REMARK    7  A    between atoms: N_17  and  C_18
REMARK    8  A    between atoms: C_18  and  C_19
REMARK    9  A    between atoms: C_22  and  O_23
REMARK   10  A    between atoms: O_23  and  C_24
REMARK   11  A    between atoms: C_28  and  C_29
REMARK   12  A    between atoms: C_29  and  O_30
REMARK                            x       y       z     vdW  Elec       q    Type
REMARK                         _______ _______ _______ _____ _____    ______ ____
ROOT
ATOM      1  C   UNL     1       4.408   3.891  19.249  0.00  0.00    +0.000 C 
ATOM      2  C   UNL     1       4.181   5.119  20.167  0.00  0.00    +0.000 C 
ATOM      3  N   UNL     1       2.805   5.658  20.192  0.00  0.00    +0.000 NA
ATOM      4  C   UNL     1       1.892   4.543  20.496  0.00  0.00    +0.000 C 
ATOM      5  C   UNL     1       2.088   3.232  19.698  0.00  0.00    +0.000 C 
ATOM      6  O   UNL     1       3.460   2.836  19.514  0.00  0.00    +0.000 OA
ENDROOT
BRANCH   1  15
ATOM      7  C   UNL     1       6.629   4.899  15.091  0.00  0.00    +0.000 A 
ATOM      8  N   UNL     1       7.392   5.904  15.613  0.00  0.00    +0.000 NA
ATOM      9  C   UNL     1       7.147   6.331  16.863  0.00  0.00    +0.000 A 
ATOM     10  N   UNL     1       6.265   5.834  17.743  0.00  0.00    +0.000 NA
ATOM     11  C   UNL     1       5.517   4.867  17.196  0.00  0.00    +0.000 A 
ATOM     12  C   UNL     1       5.582   4.396  15.894  0.00  0.00    +0.000 A 
ATOM     13  N   UNL     1       4.595   3.456  15.674  0.00  0.00    +0.000 NA
ATOM     14  C   UNL     1       4.012   3.295  16.841  0.00  0.00    +0.000 A 
ATOM     15  N   UNL     1       4.567   4.088  17.815  0.00  0.00    +0.000 N 
BRANCH   7  16
ATOM     16  N   UNL     1       6.938   4.392  13.817  0.00  0.00    +0.000 N 
BRANCH  16  18
ATOM     17  C   UNL     1       7.721   5.775  11.918  0.00  0.00    +0.000 C 
ATOM     18  C   UNL     1       8.094   5.034  13.194  0.00  0.00    +0.000 C 
ENDBRANCH  16  18
BRANCH  16  19
ATOM     19  C   UNL     1       5.771   4.007  13.018  0.00  0.00    +0.000 C 
ATOM     20  C   UNL     1       6.017   2.811  12.102  0.00  0.00    +0.000 C 
ENDBRANCH  16  19
ENDBRANCH   7  16
ENDBRANCH   1  15
BRANCH   3  21
ATOM     21  C   UNL     1       2.499   6.413  18.968  0.00  0.00    +0.000 C 
BRANCH  21  22
ATOM     22  C   UNL     1       1.943   7.799  19.190  0.00  0.00    +0.000 A 
ATOM     23  C   UNL     1       1.485   8.217  20.444  0.00  0.00    +0.000 A 
ATOM     24  C   UNL     1       0.928   9.485  20.606  0.00  0.00    +0.000 A 
ATOM     25  C   UNL     1       0.870  10.378  19.530  0.00  0.00    +0.000 A 
ATOM     26  C   UNL     1       1.362   9.981  18.289  0.00  0.00    +0.000 A 
ATOM     27  C   UNL     1       1.904   8.707  18.120  0.00  0.00    +0.000 A 
BRANCH  25  28
ATOM     28  O   UNL     1       0.271  11.576  19.799  0.00  0.00    +0.000 OA
ATOM     29  C   UNL     1      -1.135  11.613  19.600  0.00  0.00    +0.000 C 
ENDBRANCH  25  28
ENDBRANCH  21  22
ENDBRANCH   3  21
BRANCH   5  30
ATOM     30  C   UNL     1       1.298   3.163  18.387  0.00  0.00    +0.000 C 
BRANCH  30  31
ATOM     31  O   UNL     1       0.731   1.870  18.214  0.00  0.00    +0.000 OA
ATOM     32  H   UNL     1       1.155   1.277  18.859  0.00  0.00    +0.000 HD
ENDBRANCH  30  31
ENDBRANCH   5  30
TORSDOF 9
ENDMDL
MODEL 9
REMARK VINA RESULT:      -7.2      3.127      7.145
REMARK  Name = 
REMARK  12 active torsions:
REMARK  status: ('A' for Active; 'I' for Inactive)
REMARK    1  A    between atoms: C_1  and  C_2
REMARK    2  A    between atoms: C_2  and  N_3
REMARK    3  A    between atoms: N_3  and  C_4
REMARK    4  A    between atoms: N_3  and  C_6
REMARK    5  A    between atoms: C_4  and  C_5
REMARK    6  A    between atoms: N_14  and  C_15
REMARK    7  A    between atoms: N_17  and  C_18
REMARK    8  A    between atoms: C_18  and  C_19
REMARK    9  A    between atoms: C_22  and  O_23
REMARK   10  A    between atoms: O_23  and  C_24
REMARK   11  A    between atoms: C_28  and  C_29
REMARK   12  A    between atoms: C_29  and  O_30
REMARK                            x       y       z     vdW  Elec       q    Type
REMARK                         _______ _______ _______ _____ _____    ______ ____
ROOT
ATOM      1  C   UNL     1       4.410   3.916  19.206  0.00  0.00    +0.000 C 
ATOM      2  C   UNL     1       4.137   5.143  20.114  0.00  0.00    +0.000 C 
ATOM      3  N   UNL     1       2.747   5.644  20.116  0.00  0.00    +0.000 NA
ATOM      4  C   UNL     1       1.860   4.506  20.413  0.00  0.00    +0.000 C 
ATOM      5  C   UNL     1       2.103   3.197  19.626  0.00  0.00    +0.000 C 
ATOM      6  O   UNL     1       3.487   2.838  19.463  0.00  0.00    +0.000 OA
ENDROOT
BRANCH   1  15
ATOM      7  C   UNL     1       6.678   4.896  15.067  0.00  0.00    +0.000 A 
ATOM      8  N   UNL     1       7.447   5.894  15.595  0.00  0.00    +0.000 NA
ATOM      9  C   UNL     1       7.196   6.325  16.842  0.00  0.00    +0.000 A 
ATOM     10  N   UNL     1       6.301   5.838  17.715  0.00  0.00    +0.000 NA
ATOM     11  C   UNL     1       5.547   4.878  17.162  0.00  0.00    +0.000 A 
ATOM     12  C   UNL     1       5.620   4.405  15.861  0.00  0.00    +0.000 A 
ATOM     13  N   UNL     1       4.625   3.475  15.633  0.00  0.00    +0.000 NA
ATOM     14  C   UNL     1       4.030   3.321  16.795  0.00  0.00    +0.000 A 
ATOM     15  N   UNL     1       4.584   4.110  17.773  0.00  0.00    +0.000 N 
BRANCH   7  16
ATOM     16  N   UNL     1       6.994   4.385  13.797  0.00  0.00    +0.000 N 
BRANCH  16  18
ATOM     17  C   UNL     1       7.742   5.848  11.944  0.00  0.00    +0.000 C 
ATOM     18  C   UNL     1       8.141   5.038  13.168  0.00  0.00    +0.000 C 
ENDBRANCH  16  18
BRANCH  16  19
ATOM     19  C   UNL     1       5.831   3.978  13.000  0.00  0.00    +0.000 C 
ATOM     20  C   UNL     1       6.101   2.796  12.073  0.00  0.00    +0.000 C 
ENDBRANCH  16  19
ENDBRANCH   7  16
ENDBRANCH   1  15
BRANCH   3  21
ATOM     21  C   UNL     1       2.439   6.385  18.884  0.00  0.00    +0.000 C 
BRANCH  21  22
ATOM     22  C   UNL     1       1.923   7.789  19.089  0.00  0.00    +0.000 A 
ATOM     23  C   UNL     1       1.883   8.719  18.045  0.00  0.00    +0.000 A 
ATOM     24  C   UNL     1       1.450  10.024  18.276  0.00  0.00    +0.000 A 
ATOM     25  C   UNL     1       0.998  10.407  19.544  0.00  0.00    +0.000 A 
ATOM     26  C   UNL     1       0.998   9.473  20.578  0.00  0.00    +0.000 A 
ATOM     27  C   UNL     1       1.446   8.172  20.352  0.00  0.00    +0.000 A 
BRANCH  25  28
ATOM     28  O   UNL     1       0.634  11.719  19.660  0.00  0.00    +0.000 OA
ATOM     29  C   UNL     1       1.388  12.633  18.878  0.00  0.00    +0.000 C 
ENDBRANCH  25  28
ENDBRANCH  21  22
ENDBRANCH   3  21
BRANCH   5  30
ATOM     30  C   UNL     1       1.333   3.100  18.304  0.00  0.00    +0.000 C 
BRANCH  30  31
ATOM     31  O   UNL     1       0.215   2.233  18.442  0.00  0.00    +0.000 OA
ATOM     32  H   UNL     1       0.040   1.840  17.569  0.00  0.00    +0.000 HD
ENDBRANCH  30  31
ENDBRANCH   5  30
TORSDOF 9
ENDMDL
