MODEL 1
REMARK VINA RESULT:      -7.6      0.000      0.000
REMARK  Name = 
REMARK  11 active torsions:
REMARK  status: ('A' for Active; 'I' for Inactive)
REMARK    1  A    between atoms: C_1  and  O_2
REMARK    2  A    between atoms: O_2  and  C_3
REMARK    3  A    between atoms: C_3  and  C_5
REMARK    4  A    between atoms: C_5  and  C_6
REMARK    5  A    between atoms: C_5  and  N_13
REMARK    6  A    between atoms: C_6  and  C_7
REMARK    7  A    between atoms: N_16  and  C_17
REMARK    8  A    between atoms: C_17  and  C_18
REMARK    9  A    between atoms: C_17  and  C_19
REMARK   10  A    between atoms: C_19  and  C_20
REMARK   11  A    between atoms: C_20  and  C_21
REMARK                            x       y       z     vdW  Elec       q    Type
REMARK                         _______ _______ _______ _____ _____    ______ ____
ROOT
ATOM      1  N   UNL     1       7.034   7.890  17.113  0.00  0.00    +0.000 N 
ATOM      2  C   UNL     1       8.012   8.217  18.017  0.00  0.00    +0.000 C 
ATOM      3  O   UNL     1       8.475   7.418  18.817  0.00  0.00    +0.000 OA
ATOM      4  N   UNL     1       8.407   9.521  17.883  0.00  0.00    +0.000 N 
ATOM      5  H   UNL     1       6.440   8.645  16.808  0.00  0.00    +0.000 HD
ATOM      6  H   UNL     1       8.182   9.960  17.004  0.00  0.00    +0.000 HD
ENDROOT
BRANCH   4   7
ATOM      7  C   UNL     1       9.528  10.082  18.635  0.00  0.00    +0.000 C 
ATOM      8  C   UNL     1      10.226  11.194  17.849  0.00  0.00    +0.000 C 
BRANCH   7   9
ATOM      9  C   UNL     1       9.122  10.562  20.043  0.00  0.00    +0.000 C 
BRANCH   9  10
ATOM     10  C   UNL     1      10.012  11.700  20.554  0.00  0.00    +0.000 C 
BRANCH  10  11
ATOM     11  C   UNL     1       9.387  12.437  21.714  0.00  0.00    +0.000 A 
ATOM     12  C   UNL     1       8.498  11.782  22.576  0.00  0.00    +0.000 A 
ATOM     13  C   UNL     1       7.910  12.467  23.643  0.00  0.00    +0.000 A 
ATOM     14  C   UNL     1       8.199  13.815  23.848  0.00  0.00    +0.000 A 
ATOM     15  C   UNL     1       9.075  14.477  22.991  0.00  0.00    +0.000 A 
ATOM     16  C   UNL     1       9.666  13.792  21.927  0.00  0.00    +0.000 A 
ENDBRANCH  10  11
ENDBRANCH   9  10
ENDBRANCH   7   9
ENDBRANCH   4   7
BRANCH   1  17
ATOM     17  C   UNL     1       6.480   6.530  17.128  0.00  0.00    +0.000 C 
BRANCH  17  18
ATOM     18  C   UNL     1       7.340   5.507  16.356  0.00  0.00    +0.000 C 
ATOM     19  O   UNL     1       7.932   4.585  16.907  0.00  0.00    +0.000 OA
BRANCH  18  21
ATOM     20  C   UNL     1       6.948   4.549  14.242  0.00  0.00    +0.000 C 
ATOM     21  O   UNL     1       7.314   5.699  15.006  0.00  0.00    +0.000 OA
ENDBRANCH  18  21
ENDBRANCH  17  18
BRANCH  17  22
ATOM     22  C   UNL     1       5.064   6.490  16.528  0.00  0.00    +0.000 C 
BRANCH  22  23
ATOM     23  C   UNL     1       4.098   5.581  17.256  0.00  0.00    +0.000 A 
ATOM     24  C   UNL     1       3.175   6.112  18.169  0.00  0.00    +0.000 A 
ATOM     25  C   UNL     1       2.264   5.280  18.824  0.00  0.00    +0.000 A 
ATOM     26  C   UNL     1       2.261   3.911  18.568  0.00  0.00    +0.000 A 
ATOM     27  C   UNL     1       3.163   3.372  17.654  0.00  0.00    +0.000 A 
ATOM     28  C   UNL     1       4.074   4.203  16.999  0.00  0.00    +0.000 A 
ENDBRANCH  22  23
ENDBRANCH  17  22
ENDBRANCH   1  17
TORSDOF 9
ENDMDL
MODEL 2
REMARK VINA RESULT:      -7.4      0.992      1.239
REMARK  Name = 
REMARK  11 active torsions:
REMARK  status: ('A' for Active; 'I' for Inactive)
REMARK    1  A    between atoms: C_1  and  O_2
REMARK    2  A    between atoms: O_2  and  C_3
REMARK    3  A    between atoms: C_3  and  C_5
REMARK    4  A    between atoms: C_5  and  C_6
REMARK    5  A    between atoms: C_5  and  N_13
REMARK    6  A    between atoms: C_6  and  C_7
REMARK    7  A    between atoms: N_16  and  C_17
REMARK    8  A    between atoms: C_17  and  C_18
REMARK    9  A    between atoms: C_17  and  C_19
REMARK   10  A    between atoms: C_19  and  C_20
REMARK   11  A    between atoms: C_20  and  C_21
REMARK                            x       y       z     vdW  Elec       q    Type
REMARK                         _______ _______ _______ _____ _____    ______ ____
ROOT
ATOM      1  N   UNL     1       6.769   7.758  17.256  0.00  0.00    +0.000 N 
ATOM      2  C   UNL     1       7.823   8.262  17.974  0.00  0.00    +0.000 C 
ATOM      3  O   UNL     1       8.515   7.579  18.713  0.00  0.00    +0.000 OA
ATOM      4  N   UNL     1       8.006   9.597  17.732  0.00  0.00    +0.000 N 
ATOM      5  H   UNL     1       6.034   8.410  17.028  0.00  0.00    +0.000 HD
ATOM      6  H   UNL     1       7.585   9.953  16.887  0.00  0.00    +0.000 HD
ENDROOT
BRANCH   4   7
ATOM      7  C   UNL     1       9.143  10.344  18.268  0.00  0.00    +0.000 C 
ATOM      8  C   UNL     1       9.170  11.778  17.734  0.00  0.00    +0.000 C 
BRANCH   7   9
ATOM      9  C   UNL     1       9.201  10.318  19.808  0.00  0.00    +0.000 C 
BRANCH   9  10
ATOM     10  C   UNL     1      10.395  11.104  20.363  0.00  0.00    +0.000 C 
BRANCH  10  11
ATOM     11  C   UNL     1       9.964  12.341  21.114  0.00  0.00    +0.000 A 
ATOM     12  C   UNL     1       8.982  12.262  22.109  0.00  0.00    +0.000 A 
ATOM     13  C   UNL     1       8.574  13.409  22.796  0.00  0.00    +0.000 A 
ATOM     14  C   UNL     1       9.139  14.645  22.484  0.00  0.00    +0.000 A 
ATOM     15  C   UNL     1      10.111  14.734  21.490  0.00  0.00    +0.000 A 
ATOM     16  C   UNL     1      10.521  13.588  20.806  0.00  0.00    +0.000 A 
ENDBRANCH  10  11
ENDBRANCH   9  10
ENDBRANCH   7   9
ENDBRANCH   4   7
BRANCH   1  17
ATOM     17  C   UNL     1       6.420   6.341  17.409  0.00  0.00    +0.000 C 
BRANCH  17  18
ATOM     18  C   UNL     1       7.061   5.430  16.340  0.00  0.00    +0.000 C 
ATOM     19  O   UNL     1       7.883   4.561  16.612  0.00  0.00    +0.000 OA
BRANCH  18  21
ATOM     20  C   UNL     1       6.838   4.612  14.145  0.00  0.00    +0.000 C 
ATOM     21  O   UNL     1       6.569   5.650  15.088  0.00  0.00    +0.000 OA
ENDBRANCH  18  21
ENDBRANCH  17  18
BRANCH  17  22
ATOM     22  C   UNL     1       4.898   6.123  17.350  0.00  0.00    +0.000 C 
BRANCH  22  23
ATOM     23  C   UNL     1       4.435   4.773  17.854  0.00  0.00    +0.000 A 
ATOM     24  C   UNL     1       4.843   4.308  19.112  0.00  0.00    +0.000 A 
ATOM     25  C   UNL     1       4.398   3.074  19.592  0.00  0.00    +0.000 A 
ATOM     26  C   UNL     1       3.534   2.297  18.823  0.00  0.00    +0.000 A 
ATOM     27  C   UNL     1       3.111   2.753  17.577  0.00  0.00    +0.000 A 
ATOM     28  C   UNL     1       3.556   3.986  17.096  0.00  0.00    +0.000 A 
ENDBRANCH  22  23
ENDBRANCH  17  22
ENDBRANCH   1  17
TORSDOF 9
ENDMDL
MODEL 3
REMARK VINA RESULT:      -7.3      5.351      8.294
REMARK  Name = 
REMARK  11 active torsions:
REMARK  status: ('A' for Active; 'I' for Inactive)
REMARK    1  A    between atoms: C_1  and  O_2
REMARK    2  A    between atoms: O_2  and  C_3
REMARK    3  A    between atoms: C_3  and  C_5
REMARK    4  A    between atoms: C_5  and  C_6
REMARK    5  A    between atoms: C_5  and  N_13
REMARK    6  A    between atoms: C_6  and  C_7
REMARK    7  A    between atoms: N_16  and  C_17
REMARK    8  A    between atoms: C_17  and  C_18
REMARK    9  A    between atoms: C_17  and  C_19
REMARK   10  A    between atoms: C_19  and  C_20
REMARK   11  A    between atoms: C_20  and  C_21
REMARK                            x       y       z     vdW  Elec       q    Type
REMARK                         _______ _______ _______ _____ _____    ______ ____
ROOT
ATOM      1  N   UNL     1       2.987   7.514  17.850  0.00  0.00    +0.000 N 
ATOM      2  C   UNL     1       2.260   8.151  18.822  0.00  0.00    +0.000 C 
ATOM      3  O   UNL     1       2.173   7.738  19.969  0.00  0.00    +0.000 OA
ATOM      4  N   UNL     1       1.683   9.298  18.350  0.00  0.00    +0.000 N 
ATOM      5  H   UNL     1       2.683   7.658  16.899  0.00  0.00    +0.000 HD
ATOM      6  H   UNL     1       2.084   9.678  17.506  0.00  0.00    +0.000 HD
ENDROOT
BRANCH   4   7
ATOM      7  C   UNL     1       0.966  10.231  19.218  0.00  0.00    +0.000 C 
ATOM      8  C   UNL     1       1.444  11.669  19.006  0.00  0.00    +0.000 C 
BRANCH   7   9
ATOM      9  C   UNL     1      -0.565  10.123  19.075  0.00  0.00    +0.000 C 
BRANCH   9  10
ATOM     10  C   UNL     1      -1.006   9.934  17.618  0.00  0.00    +0.000 C 
BRANCH  10  11
ATOM     11  C   UNL     1      -2.358  10.550  17.347  0.00  0.00    +0.000 A 
ATOM     12  C   UNL     1      -3.069  11.184  18.373  0.00  0.00    +0.000 A 
ATOM     13  C   UNL     1      -4.326  11.743  18.125  0.00  0.00    +0.000 A 
ATOM     14  C   UNL     1      -4.884  11.662  16.850  0.00  0.00    +0.000 A 
ATOM     15  C   UNL     1      -4.187  11.026  15.826  0.00  0.00    +0.000 A 
ATOM     16  C   UNL     1      -2.931  10.471  16.072  0.00  0.00    +0.000 A 
ENDBRANCH  10  11
ENDBRANCH   9  10
ENDBRANCH   7   9
ENDBRANCH   4   7
BRANCH   1  17
ATOM     17  C   UNL     1       3.663   6.253  18.180  0.00  0.00    +0.000 C 
BRANCH  17  18
ATOM     18  C   UNL     1       5.004   6.061  17.441  0.00  0.00    +0.000 C 
ATOM     19  O   UNL     1       6.020   5.660  17.998  0.00  0.00    +0.000 OA
BRANCH  18  21
ATOM     20  C   UNL     1       5.532   5.341  15.263  0.00  0.00    +0.000 C 
ATOM     21  O   UNL     1       4.918   6.318  16.105  0.00  0.00    +0.000 OA
ENDBRANCH  18  21
ENDBRANCH  17  18
BRANCH  17  22
ATOM     22  C   UNL     1       2.778   5.036  17.858  0.00  0.00    +0.000 C 
BRANCH  22  23
ATOM     23  C   UNL     1       2.448   4.164  19.049  0.00  0.00    +0.000 A 
ATOM     24  C   UNL     1       3.468   3.501  19.747  0.00  0.00    +0.000 A 
ATOM     25  C   UNL     1       3.171   2.716  20.863  0.00  0.00    +0.000 A 
ATOM     26  C   UNL     1       1.854   2.591  21.298  0.00  0.00    +0.000 A 
ATOM     27  C   UNL     1       0.833   3.254  20.622  0.00  0.00    +0.000 A 
ATOM     28  C   UNL     1       1.128   4.040  19.506  0.00  0.00    +0.000 A 
ENDBRANCH  22  23
ENDBRANCH  17  22
ENDBRANCH   1  17
TORSDOF 9
ENDMDL
MODEL 4
REMARK VINA RESULT:      -7.3      4.741      7.890
REMARK  Name = 
REMARK  11 active torsions:
REMARK  status: ('A' for Active; 'I' for Inactive)
REMARK    1  A    between atoms: C_1  and  O_2
REMARK    2  A    between atoms: O_2  and  C_3
REMARK    3  A    between atoms: C_3  and  C_5
REMARK    4  A    between atoms: C_5  and  C_6
REMARK    5  A    between atoms: C_5  and  N_13
REMARK    6  A    between atoms: C_6  and  C_7
REMARK    7  A    between atoms: N_16  and  C_17
REMARK    8  A    between atoms: C_17  and  C_18
REMARK    9  A    between atoms: C_17  and  C_19
REMARK   10  A    between atoms: C_19  and  C_20
REMARK   11  A    between atoms: C_20  and  C_21
REMARK                            x       y       z     vdW  Elec       q    Type
REMARK                         _______ _______ _______ _____ _____    ______ ____
ROOT
ATOM      1  N   UNL     1       3.889   5.331  18.927  0.00  0.00    +0.000 N 
ATOM      2  C   UNL     1       2.710   6.027  18.859  0.00  0.00    +0.000 C 
ATOM      3  O   UNL     1       1.767   5.677  18.166  0.00  0.00    +0.000 OA
ATOM      4  N   UNL     1       2.726   7.127  19.674  0.00  0.00    +0.000 N 
ATOM      5  H   UNL     1       4.711   5.867  19.156  0.00  0.00    +0.000 HD
ATOM      6  H   UNL     1       3.418   7.121  20.407  0.00  0.00    +0.000 HD
ENDROOT
BRANCH   4   7
ATOM      7  C   UNL     1       1.546   7.963  19.887  0.00  0.00    +0.000 C 
ATOM      8  C   UNL     1       1.409   8.370  21.356  0.00  0.00    +0.000 C 
BRANCH   7   9
ATOM      9  C   UNL     1       1.511   9.193  18.959  0.00  0.00    +0.000 C 
BRANCH   9  10
ATOM     10  C   UNL     1       0.714  10.358  19.559  0.00  0.00    +0.000 C 
BRANCH  10  11
ATOM     11  C   UNL     1      -0.604  10.569  18.854  0.00  0.00    +0.000 A 
ATOM     12  C   UNL     1      -0.921   9.837  17.703  0.00  0.00    +0.000 A 
ATOM     13  C   UNL     1      -2.136  10.041  17.044  0.00  0.00    +0.000 A 
ATOM     14  C   UNL     1      -3.039  10.987  17.526  0.00  0.00    +0.000 A 
ATOM     15  C   UNL     1      -2.729  11.726  18.665  0.00  0.00    +0.000 A 
ATOM     16  C   UNL     1      -1.517  11.520  19.326  0.00  0.00    +0.000 A 
ENDBRANCH  10  11
ENDBRANCH   9  10
ENDBRANCH   7   9
ENDBRANCH   4   7
BRANCH   1  17
ATOM     17  C   UNL     1       4.052   4.128  18.100  0.00  0.00    +0.000 C 
BRANCH  17  18
ATOM     18  C   UNL     1       4.139   2.824  18.921  0.00  0.00    +0.000 C 
ATOM     19  O   UNL     1       4.906   2.684  19.868  0.00  0.00    +0.000 OA
BRANCH  18  21
ATOM     20  C   UNL     1       1.956   1.977  19.155  0.00  0.00    +0.000 C 
ATOM     21  O   UNL     1       3.235   1.883  18.526  0.00  0.00    +0.000 OA
ENDBRANCH  18  21
ENDBRANCH  17  18
BRANCH  17  22
ATOM     22  C   UNL     1       5.315   4.209  17.226  0.00  0.00    +0.000 C 
BRANCH  22  23
ATOM     23  C   UNL     1       6.282   5.306  17.617  0.00  0.00    +0.000 A 
ATOM     24  C   UNL     1       6.262   6.539  16.949  0.00  0.00    +0.000 A 
ATOM     25  C   UNL     1       7.135   7.563  17.323  0.00  0.00    +0.000 A 
ATOM     26  C   UNL     1       8.030   7.369  18.373  0.00  0.00    +0.000 A 
ATOM     27  C   UNL     1       8.050   6.154  19.053  0.00  0.00    +0.000 A 
ATOM     28  C   UNL     1       7.178   5.129  18.680  0.00  0.00    +0.000 A 
ENDBRANCH  22  23
ENDBRANCH  17  22
ENDBRANCH   1  17
TORSDOF 9
ENDMDL
MODEL 5
REMARK VINA RESULT:      -7.3      4.879      7.893
REMARK  Name = 
REMARK  11 active torsions:
REMARK  status: ('A' for Active; 'I' for Inactive)
REMARK    1  A    between atoms: C_1  and  O_2
REMARK    2  A    between atoms: O_2  and  C_3
REMARK    3  A    between atoms: C_3  and  C_5
REMARK    4  A    between atoms: C_5  and  C_6
REMARK    5  A    between atoms: C_5  and  N_13
REMARK    6  A    between atoms: C_6  and  C_7
REMARK    7  A    between atoms: N_16  and  C_17
REMARK    8  A    between atoms: C_17  and  C_18
REMARK    9  A    between atoms: C_17  and  C_19
REMARK   10  A    between atoms: C_19  and  C_20
REMARK   11  A    between atoms: C_20  and  C_21
REMARK                            x       y       z     vdW  Elec       q    Type
REMARK                         _______ _______ _______ _____ _____    ______ ____
ROOT
ATOM      1  N   UNL     1       3.706   5.340  19.310  0.00  0.00    +0.000 N 
ATOM      2  C   UNL     1       2.567   6.087  19.158  0.00  0.00    +0.000 C 
ATOM      3  O   UNL     1       1.619   5.728  18.477  0.00  0.00    +0.000 OA
ATOM      4  N   UNL     1       2.627   7.250  19.878  0.00  0.00    +0.000 N 
ATOM      5  H   UNL     1       4.552   5.851  19.511  0.00  0.00    +0.000 HD
ATOM      6  H   UNL     1       3.306   7.271  20.623  0.00  0.00    +0.000 HD
ENDROOT
BRANCH   4   7
ATOM      7  C   UNL     1       1.490   8.161  19.994  0.00  0.00    +0.000 C 
ATOM      8  C   UNL     1       1.192   8.498  21.457  0.00  0.00    +0.000 C 
BRANCH   7   9
ATOM      9  C   UNL     1       1.659   9.438  19.148  0.00  0.00    +0.000 C 
BRANCH   9  10
ATOM     10  C   UNL     1       0.777   9.432  17.894  0.00  0.00    +0.000 C 
BRANCH  10  11
ATOM     11  C   UNL     1      -0.532  10.152  18.114  0.00  0.00    +0.000 A 
ATOM     12  C   UNL     1      -1.649   9.855  17.324  0.00  0.00    +0.000 A 
ATOM     13  C   UNL     1      -2.857  10.529  17.520  0.00  0.00    +0.000 A 
ATOM     14  C   UNL     1      -2.953  11.514  18.502  0.00  0.00    +0.000 A 
ATOM     15  C   UNL     1      -1.845  11.822  19.288  0.00  0.00    +0.000 A 
ATOM     16  C   UNL     1      -0.639  11.146  19.095  0.00  0.00    +0.000 A 
ENDBRANCH  10  11
ENDBRANCH   9  10
ENDBRANCH   7   9
ENDBRANCH   4   7
BRANCH   1  17
ATOM     17  C   UNL     1       3.819   4.064  18.591  0.00  0.00    +0.000 C 
BRANCH  17  18
ATOM     18  C   UNL     1       3.963   2.843  19.524  0.00  0.00    +0.000 C 
ATOM     19  O   UNL     1       5.037   2.489  19.997  0.00  0.00    +0.000 OA
BRANCH  18  21
ATOM     20  C   UNL     1       1.834   2.223  18.734  0.00  0.00    +0.000 C 
ATOM     21  O   UNL     1       2.770   2.250  19.813  0.00  0.00    +0.000 OA
ENDBRANCH  18  21
ENDBRANCH  17  18
BRANCH  17  22
ATOM     22  C   UNL     1       5.024   4.059  17.634  0.00  0.00    +0.000 C 
BRANCH  22  23
ATOM     23  C   UNL     1       6.002   5.194  17.847  0.00  0.00    +0.000 A 
ATOM     24  C   UNL     1       7.008   5.090  18.818  0.00  0.00    +0.000 A 
ATOM     25  C   UNL     1       7.929   6.124  19.000  0.00  0.00    +0.000 A 
ATOM     26  C   UNL     1       7.859   7.269  18.209  0.00  0.00    +0.000 A 
ATOM     27  C   UNL     1       6.872   7.379  17.232  0.00  0.00    +0.000 A 
ATOM     28  C   UNL     1       5.951   6.346  17.049  0.00  0.00    +0.000 A 
ENDBRANCH  22  23
ENDBRANCH  17  22
ENDBRANCH   1  17
TORSDOF 9
ENDMDL
MODEL 6
REMARK VINA RESULT:      -7.3      4.300      7.277
REMARK  Name = 
REMARK  11 active torsions:
REMARK  status: ('A' for Active; 'I' for Inactive)
REMARK    1  A    between atoms: C_1  and  O_2
REMARK    2  A    between atoms: O_2  and  C_3
REMARK    3  A    between atoms: C_3  and  C_5
REMARK    4  A    between atoms: C_5  and  C_6
REMARK    5  A    between atoms: C_5  and  N_13
REMARK    6  A    between atoms: C_6  and  C_7
REMARK    7  A    between atoms: N_16  and  C_17
REMARK    8  A    between atoms: C_17  and  C_18
REMARK    9  A    between atoms: C_17  and  C_19
REMARK   10  A    between atoms: C_19  and  C_20
REMARK   11  A    between atoms: C_20  and  C_21
REMARK                            x       y       z     vdW  Elec       q    Type
REMARK                         _______ _______ _______ _____ _____    ______ ____
ROOT
ATOM      1  N   UNL     1       5.535   3.935  17.533  0.00  0.00    +0.000 N 
ATOM      2  C   UNL     1       4.276   4.456  17.684  0.00  0.00    +0.000 C 
ATOM      3  O   UNL     1       3.916   5.497  17.154  0.00  0.00    +0.000 OA
ATOM      4  N   UNL     1       3.489   3.656  18.469  0.00  0.00    +0.000 N 
ATOM      5  H   UNL     1       5.871   3.356  18.287  0.00  0.00    +0.000 HD
ATOM      6  H   UNL     1       3.798   2.702  18.572  0.00  0.00    +0.000 HD
ENDROOT
BRANCH   4   7
ATOM      7  C   UNL     1       2.066   3.916  18.676  0.00  0.00    +0.000 C 
ATOM      8  C   UNL     1       1.238   2.637  18.533  0.00  0.00    +0.000 C 
BRANCH   7   9
ATOM      9  C   UNL     1       1.777   4.623  20.016  0.00  0.00    +0.000 C 
BRANCH   9  10
ATOM     10  C   UNL     1       2.729   5.796  20.276  0.00  0.00    +0.000 C 
BRANCH  10  11
ATOM     11  C   UNL     1       2.092   7.128  19.964  0.00  0.00    +0.000 A 
ATOM     12  C   UNL     1       2.258   7.718  18.705  0.00  0.00    +0.000 A 
ATOM     13  C   UNL     1       1.677   8.957  18.419  0.00  0.00    +0.000 A 
ATOM     14  C   UNL     1       0.935   9.619  19.396  0.00  0.00    +0.000 A 
ATOM     15  C   UNL     1       0.771   9.044  20.653  0.00  0.00    +0.000 A 
ATOM     16  C   UNL     1       1.347   7.805  20.938  0.00  0.00    +0.000 A 
ENDBRANCH  10  11
ENDBRANCH   9  10
ENDBRANCH   7   9
ENDBRANCH   4   7
BRANCH   1  17
ATOM     17  C   UNL     1       6.518   4.676  16.733  0.00  0.00    +0.000 C 
BRANCH  17  18
ATOM     18  C   UNL     1       7.273   5.758  17.534  0.00  0.00    +0.000 C 
ATOM     19  O   UNL     1       7.882   5.515  18.571  0.00  0.00    +0.000 OA
BRANCH  18  21
ATOM     20  C   UNL     1       7.899   8.023  17.663  0.00  0.00    +0.000 C 
ATOM     21  O   UNL     1       7.246   6.982  16.935  0.00  0.00    +0.000 OA
ENDBRANCH  18  21
ENDBRANCH  17  18
BRANCH  17  22
ATOM     22  C   UNL     1       5.860   5.368  15.527  0.00  0.00    +0.000 C 
BRANCH  22  23
ATOM     23  C   UNL     1       6.209   4.762  14.186  0.00  0.00    +0.000 A 
ATOM     24  C   UNL     1       7.361   5.172  13.500  0.00  0.00    +0.000 A 
ATOM     25  C   UNL     1       7.701   4.597  12.274  0.00  0.00    +0.000 A 
ATOM     26  C   UNL     1       6.897   3.601  11.723  0.00  0.00    +0.000 A 
ATOM     27  C   UNL     1       5.758   3.175  12.401  0.00  0.00    +0.000 A 
ATOM     28  C   UNL     1       5.416   3.749  13.626  0.00  0.00    +0.000 A 
ENDBRANCH  22  23
ENDBRANCH  17  22
ENDBRANCH   1  17
TORSDOF 9
ENDMDL
MODEL 7
REMARK VINA RESULT:      -7.3      4.893      7.367
REMARK  Name = 
REMARK  11 active torsions:
REMARK  status: ('A' for Active; 'I' for Inactive)
REMARK    1  A    between atoms: C_1  and  O_2
REMARK    2  A    between atoms: O_2  and  C_3
REMARK    3  A    between atoms: C_3  and  C_5
REMARK    4  A    between atoms: C_5  and  C_6
REMARK    5  A    between atoms: C_5  and  N_13
REMARK    6  A    between atoms: C_6  and  C_7
REMARK    7  A    between atoms: N_16  and  C_17
REMARK    8  A    between atoms: C_17  and  C_18
REMARK    9  A    between atoms: C_17  and  C_19
REMARK   10  A    between atoms: C_19  and  C_20
REMARK   11  A    between atoms: C_20  and  C_21
REMARK                            x       y       z     vdW  Elec       q    Type
REMARK                         _______ _______ _______ _____ _____    ______ ____
ROOT
ATOM      1  N   UNL     1       5.046   3.391  17.886  0.00  0.00    +0.000 N 
ATOM      2  C   UNL     1       3.834   4.031  17.917  0.00  0.00    +0.000 C 
ATOM      3  O   UNL     1       3.525   4.912  17.129  0.00  0.00    +0.000 OA
ATOM      4  N   UNL     1       3.029   3.542  18.910  0.00  0.00    +0.000 N 
ATOM      5  H   UNL     1       5.374   3.016  18.763  0.00  0.00    +0.000 HD
ATOM      6  H   UNL     1       3.275   2.631  19.266  0.00  0.00    +0.000 HD
ENDROOT
BRANCH   4   7
ATOM      7  C   UNL     1       1.638   3.961  19.071  0.00  0.00    +0.000 C 
ATOM      8  C   UNL     1       0.697   2.756  19.142  0.00  0.00    +0.000 C 
BRANCH   7   9
ATOM      9  C   UNL     1       1.434   4.903  20.274  0.00  0.00    +0.000 C 
BRANCH   9  10
ATOM     10  C   UNL     1       2.532   5.968  20.377  0.00  0.00    +0.000 C 
BRANCH  10  11
ATOM     11  C   UNL     1       2.089   7.299  19.820  0.00  0.00    +0.000 A 
ATOM     12  C   UNL     1       1.314   8.172  20.594  0.00  0.00    +0.000 A 
ATOM     13  C   UNL     1       0.894   9.399  20.074  0.00  0.00    +0.000 A 
ATOM     14  C   UNL     1       1.238   9.758  18.772  0.00  0.00    +0.000 A 
ATOM     15  C   UNL     1       2.002   8.893  17.992  0.00  0.00    +0.000 A 
ATOM     16  C   UNL     1       2.425   7.669  18.512  0.00  0.00    +0.000 A 
ENDBRANCH  10  11
ENDBRANCH   9  10
ENDBRANCH   7   9
ENDBRANCH   4   7
BRANCH   1  17
ATOM     17  C   UNL     1       6.042   3.804  16.890  0.00  0.00    +0.000 C 
BRANCH  17  18
ATOM     18  C   UNL     1       7.199   4.635  17.485  0.00  0.00    +0.000 C 
ATOM     19  O   UNL     1       8.370   4.272  17.443  0.00  0.00    +0.000 OA
BRANCH  18  21
ATOM     20  C   UNL     1       7.546   6.961  17.557  0.00  0.00    +0.000 C 
ATOM     21  O   UNL     1       6.789   5.831  17.994  0.00  0.00    +0.000 OA
ENDBRANCH  18  21
ENDBRANCH  17  18
BRANCH  17  22
ATOM     22  C   UNL     1       5.405   4.636  15.764  0.00  0.00    +0.000 C 
BRANCH  22  23
ATOM     23  C   UNL     1       6.056   4.464  14.409  0.00  0.00    +0.000 A 
ATOM     24  C   UNL     1       5.525   3.560  13.478  0.00  0.00    +0.000 A 
ATOM     25  C   UNL     1       6.106   3.416  12.216  0.00  0.00    +0.000 A 
ATOM     26  C   UNL     1       7.219   4.180  11.869  0.00  0.00    +0.000 A 
ATOM     27  C   UNL     1       7.747   5.091  12.780  0.00  0.00    +0.000 A 
ATOM     28  C   UNL     1       7.167   5.236  14.042  0.00  0.00    +0.000 A 
ENDBRANCH  22  23
ENDBRANCH  17  22
ENDBRANCH   1  17
TORSDOF 9
ENDMDL
MODEL 8
REMARK VINA RESULT:      -7.2      5.315      8.228
REMARK  Name = 
REMARK  11 active torsions:
REMARK  status: ('A' for Active; 'I' for Inactive)
REMARK    1  A    between atoms: C_1  and  O_2
REMARK    2  A    between atoms: O_2  and  C_3
REMARK    3  A    between atoms: C_3  and  C_5
REMARK    4  A    between atoms: C_5  and  C_6
REMARK    5  A    between atoms: C_5  and  N_13
REMARK    6  A    between atoms: C_6  and  C_7
REMARK    7  A    between atoms: N_16  and  C_17
REMARK    8  A    between atoms: C_17  and  C_18
REMARK    9  A    between atoms: C_17  and  C_19
REMARK   10  A    between atoms: C_19  and  C_20
REMARK   11  A    between atoms: C_20  and  C_21
REMARK                            x       y       z     vdW  Elec       q    Type
REMARK                         _______ _______ _______ _____ _____    ______ ____
ROOT
ATOM      1  N   UNL     1       3.096   7.576  17.699  0.00  0.00    +0.000 N 
ATOM      2  C   UNL     1       2.352   8.191  18.673  0.00  0.00    +0.000 C 
ATOM      3  O   UNL     1       2.292   7.785  19.824  0.00  0.00    +0.000 OA
ATOM      4  N   UNL     1       1.723   9.310  18.196  0.00  0.00    +0.000 N 
ATOM      5  H   UNL     1       2.778   7.699  16.751  0.00  0.00    +0.000 HD
ATOM      6  H   UNL     1       2.101   9.698  17.346  0.00  0.00    +0.000 HD
ENDROOT
BRANCH   4   7
ATOM      7  C   UNL     1       0.976  10.219  19.063  0.00  0.00    +0.000 C 
ATOM      8  C   UNL     1       1.205  11.680  18.668  0.00  0.00    +0.000 C 
BRANCH   7   9
ATOM      9  C   UNL     1      -0.527   9.885  19.125  0.00  0.00    +0.000 C 
BRANCH   9  10
ATOM     10  C   UNL     1      -1.281  10.340  17.870  0.00  0.00    +0.000 C 
BRANCH  10  11
ATOM     11  C   UNL     1      -2.639  10.911  18.196  0.00  0.00    +0.000 A 
ATOM     12  C   UNL     1      -2.774  11.922  19.155  0.00  0.00    +0.000 A 
ATOM     13  C   UNL     1      -4.033  12.443  19.466  0.00  0.00    +0.000 A 
ATOM     14  C   UNL     1      -5.169  11.948  18.826  0.00  0.00    +0.000 A 
ATOM     15  C   UNL     1      -5.045  10.937  17.876  0.00  0.00    +0.000 A 
ATOM     16  C   UNL     1      -3.787  10.419  17.562  0.00  0.00    +0.000 A 
ENDBRANCH  10  11
ENDBRANCH   9  10
ENDBRANCH   7   9
ENDBRANCH   4   7
BRANCH   1  17
ATOM     17  C   UNL     1       3.826   6.347  18.034  0.00  0.00    +0.000 C 
BRANCH  17  18
ATOM     18  C   UNL     1       5.213   6.253  17.364  0.00  0.00    +0.000 C 
ATOM     19  O   UNL     1       5.609   7.067  16.536  0.00  0.00    +0.000 OA
BRANCH  18  21
ATOM     20  C   UNL     1       6.448   5.386  19.170  0.00  0.00    +0.000 C 
ATOM     21  O   UNL     1       5.965   5.219  17.836  0.00  0.00    +0.000 OA
ENDBRANCH  18  21
ENDBRANCH  17  18
BRANCH  17  22
ATOM     22  C   UNL     1       3.033   5.091  17.633  0.00  0.00    +0.000 C 
BRANCH  22  23
ATOM     23  C   UNL     1       2.383   4.361  18.788  0.00  0.00    +0.000 A 
ATOM     24  C   UNL     1       1.252   3.561  18.575  0.00  0.00    +0.000 A 
ATOM     25  C   UNL     1       0.664   2.864  19.634  0.00  0.00    +0.000 A 
ATOM     26  C   UNL     1       1.205   2.955  20.914  0.00  0.00    +0.000 A 
ATOM     27  C   UNL     1       2.337   3.736  21.137  0.00  0.00    +0.000 A 
ATOM     28  C   UNL     1       2.925   4.432  20.080  0.00  0.00    +0.000 A 
ENDBRANCH  22  23
ENDBRANCH  17  22
ENDBRANCH   1  17
TORSDOF 9
ENDMDL
MODEL 9
REMARK VINA RESULT:      -7.2      4.626      7.050
REMARK  Name = 
REMARK  11 active torsions:
REMARK  status: ('A' for Active; 'I' for Inactive)
REMARK    1  A    between atoms: C_1  and  O_2
REMARK    2  A    between atoms: O_2  and  C_3
REMARK    3  A    between atoms: C_3  and  C_5
REMARK    4  A    between atoms: C_5  and  C_6
REMARK    5  A    between atoms: C_5  and  N_13
REMARK    6  A    between atoms: C_6  and  C_7
REMARK    7  A    between atoms: N_16  and  C_17
REMARK    8  A    between atoms: C_17  and  C_18
REMARK    9  A    between atoms: C_17  and  C_19
REMARK   10  A    between atoms: C_19  and  C_20
REMARK   11  A    between atoms: C_20  and  C_21
REMARK                            x       y       z     vdW  Elec       q    Type
REMARK                         _______ _______ _______ _____ _____    ______ ____
ROOT
ATOM      1  N   UNL     1       5.092   3.795  17.729  0.00  0.00    +0.000 N 
ATOM      2  C   UNL     1       4.144   4.736  18.037  0.00  0.00    +0.000 C 
ATOM      3  O   UNL     1       4.126   5.852  17.540  0.00  0.00    +0.000 OA
ATOM      4  N   UNL     1       3.229   4.256  18.934  0.00  0.00    +0.000 N 
ATOM      5  H   UNL     1       5.287   3.109  18.442  0.00  0.00    +0.000 HD
ATOM      6  H   UNL     1       3.176   3.253  19.014  0.00  0.00    +0.000 HD
ENDROOT
BRANCH   4   7
ATOM      7  C   UNL     1       2.041   5.014  19.325  0.00  0.00    +0.000 C 
ATOM      8  C   UNL     1       1.006   4.116  20.005  0.00  0.00    +0.000 C 
BRANCH   7   9
ATOM      9  C   UNL     1       2.376   6.241  20.196  0.00  0.00    +0.000 C 
BRANCH   9  10
ATOM     10  C   UNL     1       2.131   7.565  19.462  0.00  0.00    +0.000 C 
BRANCH  10  11
ATOM     11  C   UNL     1       1.312   8.530  20.284  0.00  0.00    +0.000 A 
ATOM     12  C   UNL     1       1.063   8.277  21.639  0.00  0.00    +0.000 A 
ATOM     13  C   UNL     1       0.295   9.164  22.398  0.00  0.00    +0.000 A 
ATOM     14  C   UNL     1      -0.240  10.306  21.803  0.00  0.00    +0.000 A 
ATOM     15  C   UNL     1      -0.005  10.562  20.454  0.00  0.00    +0.000 A 
ATOM     16  C   UNL     1       0.766   9.678  19.697  0.00  0.00    +0.000 A 
ENDBRANCH  10  11
ENDBRANCH   9  10
ENDBRANCH   7   9
ENDBRANCH   4   7
BRANCH   1  17
ATOM     17  C   UNL     1       6.165   4.148  16.791  0.00  0.00    +0.000 C 
BRANCH  17  18
ATOM     18  C   UNL     1       7.327   4.923  17.449  0.00  0.00    +0.000 C 
ATOM     19  O   UNL     1       8.037   4.440  18.324  0.00  0.00    +0.000 OA
BRANCH  18  21
ATOM     20  C   UNL     1       7.693   7.210  17.861  0.00  0.00    +0.000 C 
ATOM     21  O   UNL     1       7.516   6.160  16.909  0.00  0.00    +0.000 OA
ENDBRANCH  18  21
ENDBRANCH  17  18
BRANCH  17  22
ATOM     22  C   UNL     1       5.639   5.004  15.626  0.00  0.00    +0.000 C 
BRANCH  22  23
ATOM     23  C   UNL     1       6.104   4.558  14.257  0.00  0.00    +0.000 A 
ATOM     24  C   UNL     1       5.361   3.621  13.526  0.00  0.00    +0.000 A 
ATOM     25  C   UNL     1       5.773   3.226  12.251  0.00  0.00    +0.000 A 
ATOM     26  C   UNL     1       6.927   3.769  11.691  0.00  0.00    +0.000 A 
ATOM     27  C   UNL     1       7.667   4.711  12.401  0.00  0.00    +0.000 A 
ATOM     28  C   UNL     1       7.257   5.107  13.676  0.00  0.00    +0.000 A 
ENDBRANCH  22  23
ENDBRANCH  17  22
ENDBRANCH   1  17
TORSDOF 9
ENDMDL
