MODEL 1
REMARK VINA RESULT:      -7.8      0.000      0.000
REMARK  Name = 
REMARK  8 active torsions:
REMARK  status: ('A' for Active; 'I' for Inactive)
REMARK    1  A    between atoms: C_1  and  O_2
REMARK    2  A    between atoms: O_2  and  C_3
REMARK    3  A    between atoms: C_6  and  S_7
REMARK    4  A    between atoms: S_7  and  N_10
REMARK    5  A    between atoms: N_10  and  C_11
REMARK    6  A    between atoms: N_10  and  C_20
REMARK    7  A    between atoms: C_11  and  C_12
REMARK    8  A    between atoms: C_20  and  C_21
REMARK                            x       y       z     vdW  Elec       q    Type
REMARK                         _______ _______ _______ _____ _____    ______ ____
ROOT
ATOM      1  N   UNL     1       4.105   4.873  17.446  0.00  0.00    +0.000 NA
ENDROOT
BRANCH   1   2
ATOM      2  S   UNL     1       5.501   5.166  16.508  0.00  0.00    +0.000 S 
ATOM      3  O   UNL     1       5.095   5.876  15.313  0.00  0.00    +0.000 OA
ATOM      4  O   UNL     1       6.292   3.957  16.444  0.00  0.00    +0.000 OA
BRANCH   2   8
ATOM      5  C   UNL     1       8.314   8.161  18.494  0.00  0.00    +0.000 A 
ATOM      6  C   UNL     1       8.309   6.837  18.948  0.00  0.00    +0.000 A 
ATOM      7  C   UNL     1       7.437   5.887  18.393  0.00  0.00    +0.000 A 
ATOM      8  C   UNL     1       6.543   6.289  17.415  0.00  0.00    +0.000 A 
ATOM      9  C   UNL     1       6.520   7.628  16.980  0.00  0.00    +0.000 A 
ATOM     10  C   UNL     1       7.404   8.562  17.521  0.00  0.00    +0.000 A 
BRANCH   5  12
ATOM     11  C   UNL     1       9.018  10.382  18.881  0.00  0.00    +0.000 C 
ATOM     12  O   UNL     1       9.235   8.987  19.084  0.00  0.00    +0.000 OA
ENDBRANCH   5  12
ENDBRANCH   2   8
ENDBRANCH   1   2
BRANCH   1  13
ATOM     13  C   UNL     1       3.774   3.422  17.621  0.00  0.00    +0.000 C 
BRANCH  13  14
ATOM     14  C   UNL     1       3.998   2.855  19.030  0.00  0.00    +0.000 C 
ATOM     15  O   UNL     1       5.088   2.951  19.602  0.00  0.00    +0.000 OA
ATOM     16  N   UNL     1       2.899   2.292  19.691  0.00  0.00    +0.000 N 
ATOM     17  C   UNL     1       1.526   2.331  19.182  0.00  0.00    +0.000 C 
ATOM     18  C   UNL     1       0.862   3.646  19.615  0.00  0.00    +0.000 C 
ATOM     19  O   UNL     1       0.952   3.836  21.041  0.00  0.00    +0.000 OA
ATOM     20  C   UNL     1       2.311   3.754  21.520  0.00  0.00    +0.000 C 
ATOM     21  C   UNL     1       2.925   2.395  21.153  0.00  0.00    +0.000 C 
ENDBRANCH  13  14
ENDBRANCH   1  13
BRANCH   1  22
ATOM     22  C   UNL     1       4.063   5.654  18.725  0.00  0.00    +0.000 C 
BRANCH  22  23
ATOM     23  C   UNL     1       3.084   6.810  18.746  0.00  0.00    +0.000 A 
ATOM     24  C   UNL     1       2.977   7.661  17.636  0.00  0.00    +0.000 A 
ATOM     25  C   UNL     1       2.185   8.806  17.683  0.00  0.00    +0.000 A 
ATOM     26  C   UNL     1       1.456   9.093  18.832  0.00  0.00    +0.000 A 
ATOM     27  C   UNL     1       1.512   8.233  19.927  0.00  0.00    +0.000 A 
ATOM     28  C   UNL     1       2.321   7.095  19.886  0.00  0.00    +0.000 A 
ENDBRANCH  22  23
ENDBRANCH   1  22
TORSDOF 7
ENDMDL
MODEL 2
REMARK VINA RESULT:      -7.5      2.352      3.773
REMARK  Name = 
REMARK  8 active torsions:
REMARK  status: ('A' for Active; 'I' for Inactive)
REMARK    1  A    between atoms: C_1  and  O_2
REMARK    2  A    between atoms: O_2  and  C_3
REMARK    3  A    between atoms: C_6  and  S_7
REMARK    4  A    between atoms: S_7  and  N_10
REMARK    5  A    between atoms: N_10  and  C_11
REMARK    6  A    between atoms: N_10  and  C_20
REMARK    7  A    between atoms: C_11  and  C_12
REMARK    8  A    between atoms: C_20  and  C_21
REMARK                            x       y       z     vdW  Elec       q    Type
REMARK                         _______ _______ _______ _____ _____    ______ ____
ROOT
ATOM      1  N   UNL     1       4.546   4.915  18.035  0.00  0.00    +0.000 NA
ENDROOT
BRANCH   1   2
ATOM      2  S   UNL     1       6.138   5.291  17.545  0.00  0.00    +0.000 S 
ATOM      3  O   UNL     1       7.040   4.382  18.221  0.00  0.00    +0.000 OA
ATOM      4  O   UNL     1       6.323   6.725  17.594  0.00  0.00    +0.000 OA
BRANCH   2   8
ATOM      5  C   UNL     1       6.397   3.978  13.182  0.00  0.00    +0.000 A 
ATOM      6  C   UNL     1       7.479   4.666  13.744  0.00  0.00    +0.000 A 
ATOM      7  C   UNL     1       7.433   5.122  15.072  0.00  0.00    +0.000 A 
ATOM      8  C   UNL     1       6.278   4.920  15.809  0.00  0.00    +0.000 A 
ATOM      9  C   UNL     1       5.175   4.260  15.236  0.00  0.00    +0.000 A 
ATOM     10  C   UNL     1       5.235   3.791  13.924  0.00  0.00    +0.000 A 
BRANCH   5  12
ATOM     11  C   UNL     1       5.810   2.402  11.524  0.00  0.00    +0.000 C 
ATOM     12  O   UNL     1       6.574   3.549  11.892  0.00  0.00    +0.000 OA
ENDBRANCH   5  12
ENDBRANCH   2   8
ENDBRANCH   1   2
BRANCH   1  13
ATOM     13  C   UNL     1       4.234   3.451  18.044  0.00  0.00    +0.000 C 
BRANCH  13  14
ATOM     14  C   UNL     1       4.175   2.793  19.429  0.00  0.00    +0.000 C 
ATOM     15  O   UNL     1       5.145   2.800  20.193  0.00  0.00    +0.000 OA
ATOM     16  N   UNL     1       2.953   2.247  19.843  0.00  0.00    +0.000 N 
ATOM     17  C   UNL     1       1.698   2.385  19.100  0.00  0.00    +0.000 C 
ATOM     18  C   UNL     1       1.018   3.704  19.493  0.00  0.00    +0.000 C 
ATOM     19  O   UNL     1       0.854   3.807  20.921  0.00  0.00    +0.000 OA
ATOM     20  C   UNL     1       2.098   3.629  21.630  0.00  0.00    +0.000 C 
ATOM     21  C   UNL     1       2.716   2.265  21.290  0.00  0.00    +0.000 C 
ENDBRANCH  13  14
ENDBRANCH   1  13
BRANCH   1  22
ATOM     22  C   UNL     1       4.116   5.627  19.282  0.00  0.00    +0.000 C 
BRANCH  22  23
ATOM     23  C   UNL     1       3.122   6.752  19.078  0.00  0.00    +0.000 A 
ATOM     24  C   UNL     1       3.078   7.436  17.854  0.00  0.00    +0.000 A 
ATOM     25  C   UNL     1       2.270   8.558  17.688  0.00  0.00    +0.000 A 
ATOM     26  C   UNL     1       1.462   8.988  18.736  0.00  0.00    +0.000 A 
ATOM     27  C   UNL     1       1.457   8.291  19.942  0.00  0.00    +0.000 A 
ATOM     28  C   UNL     1       2.281   7.176  20.114  0.00  0.00    +0.000 A 
ENDBRANCH  22  23
ENDBRANCH   1  22
TORSDOF 7
ENDMDL
MODEL 3
REMARK VINA RESULT:      -7.3      0.220      1.307
REMARK  Name = 
REMARK  8 active torsions:
REMARK  status: ('A' for Active; 'I' for Inactive)
REMARK    1  A    between atoms: C_1  and  O_2
REMARK    2  A    between atoms: O_2  and  C_3
REMARK    3  A    between atoms: C_6  and  S_7
REMARK    4  A    between atoms: S_7  and  N_10
REMARK    5  A    between atoms: N_10  and  C_11
REMARK    6  A    between atoms: N_10  and  C_20
REMARK    7  A    between atoms: C_11  and  C_12
REMARK    8  A    between atoms: C_20  and  C_21
REMARK                            x       y       z     vdW  Elec       q    Type
REMARK                         _______ _______ _______ _____ _____    ______ ____
ROOT
ATOM      1  N   UNL     1       4.133   5.015  17.336  0.00  0.00    +0.000 NA
ENDROOT
BRANCH   1   2
ATOM      2  S   UNL     1       5.516   5.099  16.338  0.00  0.00    +0.000 S 
ATOM      3  O   UNL     1       5.119   5.681  15.073  0.00  0.00    +0.000 OA
ATOM      4  O   UNL     1       6.229   3.842  16.408  0.00  0.00    +0.000 OA
BRANCH   2   8
ATOM      5  C   UNL     1       8.288   7.957  18.567  0.00  0.00    +0.000 A 
ATOM      6  C   UNL     1       7.525   8.452  17.504  0.00  0.00    +0.000 A 
ATOM      7  C   UNL     1       6.683   7.604  16.764  0.00  0.00    +0.000 A 
ATOM      8  C   UNL     1       6.653   6.255  17.074  0.00  0.00    +0.000 A 
ATOM      9  C   UNL     1       7.446   5.748  18.120  0.00  0.00    +0.000 A 
ATOM     10  C   UNL     1       8.263   6.599  18.864  0.00  0.00    +0.000 A 
BRANCH   5  12
ATOM     11  C   UNL     1       9.018  10.201  18.684  0.00  0.00    +0.000 C 
ATOM     12  O   UNL     1       9.041   8.886  19.238  0.00  0.00    +0.000 OA
ENDBRANCH   5  12
ENDBRANCH   2   8
ENDBRANCH   1   2
BRANCH   1  13
ATOM     13  C   UNL     1       3.631   3.624  17.578  0.00  0.00    +0.000 C 
BRANCH  13  14
ATOM     14  C   UNL     1       3.967   3.027  18.951  0.00  0.00    +0.000 C 
ATOM     15  O   UNL     1       5.083   3.158  19.460  0.00  0.00    +0.000 OA
ATOM     16  N   UNL     1       2.938   2.390  19.657  0.00  0.00    +0.000 N 
ATOM     17  C   UNL     1       1.535   2.379  19.232  0.00  0.00    +0.000 C 
ATOM     18  C   UNL     1       0.839   3.646  19.747  0.00  0.00    +0.000 C 
ATOM     19  O   UNL     1       1.006   3.797  21.171  0.00  0.00    +0.000 OA
ATOM     20  C   UNL     1       2.394   3.766  21.566  0.00  0.00    +0.000 C 
ATOM     21  C   UNL     1       3.047   2.450  21.118  0.00  0.00    +0.000 C 
ENDBRANCH  13  14
ENDBRANCH   1  13
BRANCH   1  22
ATOM     22  C   UNL     1       4.241   5.838  18.585  0.00  0.00    +0.000 C 
BRANCH  22  23
ATOM     23  C   UNL     1       3.279   7.004  18.678  0.00  0.00    +0.000 A 
ATOM     24  C   UNL     1       2.452   7.145  19.803  0.00  0.00    +0.000 A 
ATOM     25  C   UNL     1       1.468   8.129  19.851  0.00  0.00    +0.000 A 
ATOM     26  C   UNL     1       1.324   9.013  18.787  0.00  0.00    +0.000 A 
ATOM     27  C   UNL     1       2.169   8.919  17.683  0.00  0.00    +0.000 A 
ATOM     28  C   UNL     1       3.144   7.920  17.627  0.00  0.00    +0.000 A 
ENDBRANCH  22  23
ENDBRANCH   1  22
TORSDOF 7
ENDMDL
MODEL 4
REMARK VINA RESULT:      -7.0      2.760      5.772
REMARK  Name = 
REMARK  8 active torsions:
REMARK  status: ('A' for Active; 'I' for Inactive)
REMARK    1  A    between atoms: C_1  and  O_2
REMARK    2  A    between atoms: O_2  and  C_3
REMARK    3  A    between atoms: C_6  and  S_7
REMARK    4  A    between atoms: S_7  and  N_10
REMARK    5  A    between atoms: N_10  and  C_11
REMARK    6  A    between atoms: N_10  and  C_20
REMARK    7  A    between atoms: C_11  and  C_12
REMARK    8  A    between atoms: C_20  and  C_21
REMARK                            x       y       z     vdW  Elec       q    Type
REMARK                         _______ _______ _______ _____ _____    ______ ____
ROOT
ATOM      1  N   UNL     1       2.899   6.440  18.822  0.00  0.00    +0.000 NA
ENDROOT
BRANCH   1   2
ATOM      2  S   UNL     1       2.160   7.900  18.333  0.00  0.00    +0.000 S 
ATOM      3  O   UNL     1       1.080   7.571  17.426  0.00  0.00    +0.000 OA
ATOM      4  O   UNL     1       3.186   8.856  17.981  0.00  0.00    +0.000 OA
BRANCH   2   8
ATOM      5  C   UNL     1       0.359  10.105  21.899  0.00  0.00    +0.000 A 
ATOM      6  C   UNL     1       1.043   8.906  22.124  0.00  0.00    +0.000 A 
ATOM      7  C   UNL     1       1.585   8.172  21.056  0.00  0.00    +0.000 A 
ATOM      8  C   UNL     1       1.393   8.631  19.764  0.00  0.00    +0.000 A 
ATOM      9  C   UNL     1       0.675   9.818  19.530  0.00  0.00    +0.000 A 
ATOM     10  C   UNL     1       0.158  10.553  20.597  0.00  0.00    +0.000 A 
BRANCH   5  12
ATOM     11  C   UNL     1      -1.355  11.398  22.885  0.00  0.00    +0.000 C 
ATOM     12  O   UNL     1      -0.090  10.751  23.022  0.00  0.00    +0.000 OA
ENDBRANCH   5  12
ENDBRANCH   2   8
ENDBRANCH   1   2
BRANCH   1  13
ATOM     13  C   UNL     1       1.964   5.459  19.460  0.00  0.00    +0.000 C 
BRANCH  13  14
ATOM     14  C   UNL     1       1.589   4.244  18.601  0.00  0.00    +0.000 C 
ATOM     15  O   UNL     1       1.231   4.366  17.426  0.00  0.00    +0.000 OA
ATOM     16  N   UNL     1       1.745   2.971  19.165  0.00  0.00    +0.000 N 
ATOM     17  C   UNL     1       2.369   2.720  20.467  0.00  0.00    +0.000 C 
ATOM     18  C   UNL     1       3.890   2.611  20.288  0.00  0.00    +0.000 C 
ATOM     19  O   UNL     1       4.233   1.632  19.288  0.00  0.00    +0.000 OA
ATOM     20  C   UNL     1       3.576   1.881  18.028  0.00  0.00    +0.000 C 
ATOM     21  C   UNL     1       2.052   1.897  18.215  0.00  0.00    +0.000 C 
ENDBRANCH  13  14
ENDBRANCH   1  13
BRANCH   1  22
ATOM     22  C   UNL     1       3.782   5.831  17.775  0.00  0.00    +0.000 C 
BRANCH  22  23
ATOM     23  C   UNL     1       5.269   6.021  17.990  0.00  0.00    +0.000 A 
ATOM     24  C   UNL     1       5.915   5.368  19.051  0.00  0.00    +0.000 A 
ATOM     25  C   UNL     1       7.249   5.631  19.350  0.00  0.00    +0.000 A 
ATOM     26  C   UNL     1       7.969   6.524  18.563  0.00  0.00    +0.000 A 
ATOM     27  C   UNL     1       7.359   7.143  17.475  0.00  0.00    +0.000 A 
ATOM     28  C   UNL     1       6.015   6.893  17.186  0.00  0.00    +0.000 A 
ENDBRANCH  22  23
ENDBRANCH   1  22
TORSDOF 7
ENDMDL
MODEL 5
REMARK VINA RESULT:      -7.0      2.334      3.829
REMARK  Name = 
REMARK  8 active torsions:
REMARK  status: ('A' for Active; 'I' for Inactive)
REMARK    1  A    between atoms: C_1  and  O_2
REMARK    2  A    between atoms: O_2  and  C_3
REMARK    3  A    between atoms: C_6  and  S_7
REMARK    4  A    between atoms: S_7  and  N_10
REMARK    5  A    between atoms: N_10  and  C_11
REMARK    6  A    between atoms: N_10  and  C_20
REMARK    7  A    between atoms: C_11  and  C_12
REMARK    8  A    between atoms: C_20  and  C_21
REMARK                            x       y       z     vdW  Elec       q    Type
REMARK                         _______ _______ _______ _____ _____    ______ ____
ROOT
ATOM      1  N   UNL     1       4.480   5.012  18.021  0.00  0.00    +0.000 NA
ENDROOT
BRANCH   1   2
ATOM      2  S   UNL     1       6.091   5.323  17.549  0.00  0.00    +0.000 S 
ATOM      3  O   UNL     1       6.963   4.525  18.385  0.00  0.00    +0.000 OA
ATOM      4  O   UNL     1       6.274   6.750  17.400  0.00  0.00    +0.000 OA
BRANCH   2   8
ATOM      5  C   UNL     1       6.666   4.113  13.187  0.00  0.00    +0.000 A 
ATOM      6  C   UNL     1       5.583   3.581  13.896  0.00  0.00    +0.000 A 
ATOM      7  C   UNL     1       5.383   3.895  15.251  0.00  0.00    +0.000 A 
ATOM      8  C   UNL     1       6.304   4.708  15.892  0.00  0.00    +0.000 A 
ATOM      9  C   UNL     1       7.413   5.216  15.191  0.00  0.00    +0.000 A 
ATOM     10  C   UNL     1       7.594   4.917  13.841  0.00  0.00    +0.000 A 
BRANCH   5  12
ATOM     11  C   UNL     1       6.026   2.578  11.509  0.00  0.00    +0.000 C 
ATOM     12  O   UNL     1       6.735   3.765  11.862  0.00  0.00    +0.000 OA
ENDBRANCH   5  12
ENDBRANCH   2   8
ENDBRANCH   1   2
BRANCH   1  13
ATOM     13  C   UNL     1       4.092   3.566  17.976  0.00  0.00    +0.000 C 
BRANCH  13  14
ATOM     14  C   UNL     1       4.078   2.840  19.328  0.00  0.00    +0.000 C 
ATOM     15  O   UNL     1       5.082   2.778  20.043  0.00  0.00    +0.000 OA
ATOM     16  N   UNL     1       2.859   2.312  19.774  0.00  0.00    +0.000 N 
ATOM     17  C   UNL     1       1.575   2.526  19.101  0.00  0.00    +0.000 C 
ATOM     18  C   UNL     1       0.959   3.844  19.592  0.00  0.00    +0.000 C 
ATOM     19  O   UNL     1       0.866   3.879  21.029  0.00  0.00    +0.000 OA
ATOM     20  C   UNL     1       2.136   3.626  21.667  0.00  0.00    +0.000 C 
ATOM     21  C   UNL     1       2.691   2.263  21.230  0.00  0.00    +0.000 C 
ENDBRANCH  13  14
ENDBRANCH   1  13
BRANCH   1  22
ATOM     22  C   UNL     1       4.081   5.699  19.293  0.00  0.00    +0.000 C 
BRANCH  22  23
ATOM     23  C   UNL     1       3.169   6.896  19.125  0.00  0.00    +0.000 A 
ATOM     24  C   UNL     1       2.287   7.258  20.154  0.00  0.00    +0.000 A 
ATOM     25  C   UNL     1       1.347   8.269  19.971  0.00  0.00    +0.000 A 
ATOM     26  C   UNL     1       1.304   8.961  18.766  0.00  0.00    +0.000 A 
ATOM     27  C   UNL     1       2.205   8.649  17.750  0.00  0.00    +0.000 A 
ATOM     28  C   UNL     1       3.136   7.622  17.927  0.00  0.00    +0.000 A 
ENDBRANCH  22  23
ENDBRANCH   1  22
TORSDOF 7
ENDMDL
MODEL 6
REMARK VINA RESULT:      -6.9      1.039      1.808
REMARK  Name = 
REMARK  8 active torsions:
REMARK  status: ('A' for Active; 'I' for Inactive)
REMARK    1  A    between atoms: C_1  and  O_2
REMARK    2  A    between atoms: O_2  and  C_3
REMARK    3  A    between atoms: C_6  and  S_7
REMARK    4  A    between atoms: S_7  and  N_10
REMARK    5  A    between atoms: N_10  and  C_11
REMARK    6  A    between atoms: N_10  and  C_20
REMARK    7  A    between atoms: C_11  and  C_12
REMARK    8  A    between atoms: C_20  and  C_21
REMARK                            x       y       z     vdW  Elec       q    Type
REMARK                         _______ _______ _______ _____ _____    ______ ____
ROOT
ATOM      1  N   UNL     1       3.625   5.135  17.989  0.00  0.00    +0.000 NA
ENDROOT
BRANCH   1   2
ATOM      2  S   UNL     1       5.225   4.546  17.899  0.00  0.00    +0.000 S 
ATOM      3  O   UNL     1       5.367   3.826  16.651  0.00  0.00    +0.000 OA
ATOM      4  O   UNL     1       5.584   3.951  19.167  0.00  0.00    +0.000 OA
BRANCH   2   8
ATOM      5  C   UNL     1       7.990   8.176  17.981  0.00  0.00    +0.000 A 
ATOM      6  C   UNL     1       6.920   8.164  17.080  0.00  0.00    +0.000 A 
ATOM      7  C   UNL     1       6.062   7.056  16.992  0.00  0.00    +0.000 A 
ATOM      8  C   UNL     1       6.317   5.948  17.782  0.00  0.00    +0.000 A 
ATOM      9  C   UNL     1       7.413   5.941  18.665  0.00  0.00    +0.000 A 
ATOM     10  C   UNL     1       8.249   7.054  18.762  0.00  0.00    +0.000 A 
BRANCH   5  12
ATOM     11  C   UNL     1       9.030   9.834  19.304  0.00  0.00    +0.000 C 
ATOM     12  O   UNL     1       8.734   9.327  18.003  0.00  0.00    +0.000 OA
ENDBRANCH   5  12
ENDBRANCH   2   8
ENDBRANCH   1   2
BRANCH   1  13
ATOM     13  C   UNL     1       2.579   4.140  17.588  0.00  0.00    +0.000 C 
BRANCH  13  14
ATOM     14  C   UNL     1       2.658   2.776  18.287  0.00  0.00    +0.000 C 
ATOM     15  O   UNL     1       3.556   1.968  18.035  0.00  0.00    +0.000 OA
ATOM     16  N   UNL     1       1.720   2.500  19.291  0.00  0.00    +0.000 N 
ATOM     17  C   UNL     1       0.759   3.478  19.809  0.00  0.00    +0.000 C 
ATOM     18  C   UNL     1       1.421   4.297  20.926  0.00  0.00    +0.000 C 
ATOM     19  O   UNL     1       1.978   3.444  21.945  0.00  0.00    +0.000 OA
ATOM     20  C   UNL     1       2.891   2.466  21.403  0.00  0.00    +0.000 C 
ATOM     21  C   UNL     1       2.182   1.599  20.352  0.00  0.00    +0.000 C 
ENDBRANCH  13  14
ENDBRANCH   1  13
BRANCH   1  22
ATOM     22  C   UNL     1       3.315   5.844  19.272  0.00  0.00    +0.000 C 
BRANCH  22  23
ATOM     23  C   UNL     1       2.650   7.197  19.121  0.00  0.00    +0.000 A 
ATOM     24  C   UNL     1       1.917   7.742  20.187  0.00  0.00    +0.000 A 
ATOM     25  C   UNL     1       1.187   8.917  20.027  0.00  0.00    +0.000 A 
ATOM     26  C   UNL     1       1.212   9.586  18.808  0.00  0.00    +0.000 A 
ATOM     27  C   UNL     1       1.974   9.085  17.754  0.00  0.00    +0.000 A 
ATOM     28  C   UNL     1       2.692   7.896  17.909  0.00  0.00    +0.000 A 
ENDBRANCH  22  23
ENDBRANCH   1  22
TORSDOF 7
ENDMDL
MODEL 7
REMARK VINA RESULT:      -6.8      0.967      1.488
REMARK  Name = 
REMARK  8 active torsions:
REMARK  status: ('A' for Active; 'I' for Inactive)
REMARK    1  A    between atoms: C_1  and  O_2
REMARK    2  A    between atoms: O_2  and  C_3
REMARK    3  A    between atoms: C_6  and  S_7
REMARK    4  A    between atoms: S_7  and  N_10
REMARK    5  A    between atoms: N_10  and  C_11
REMARK    6  A    between atoms: N_10  and  C_20
REMARK    7  A    between atoms: C_11  and  C_12
REMARK    8  A    between atoms: C_20  and  C_21
REMARK                            x       y       z     vdW  Elec       q    Type
REMARK                         _______ _______ _______ _____ _____    ______ ____
ROOT
ATOM      1  N   UNL     1       3.888   5.044  17.873  0.00  0.00    +0.000 NA
ENDROOT
BRANCH   1   2
ATOM      2  S   UNL     1       5.539   4.609  17.873  0.00  0.00    +0.000 S 
ATOM      3  O   UNL     1       5.860   4.071  16.568  0.00  0.00    +0.000 OA
ATOM      4  O   UNL     1       5.839   3.887  19.090  0.00  0.00    +0.000 OA
BRANCH   2   8
ATOM      5  C   UNL     1       8.028   8.434  17.909  0.00  0.00    +0.000 A 
ATOM      6  C   UNL     1       8.408   7.375  18.741  0.00  0.00    +0.000 A 
ATOM      7  C   UNL     1       7.655   6.191  18.792  0.00  0.00    +0.000 A 
ATOM      8  C   UNL     1       6.498   6.101  18.037  0.00  0.00    +0.000 A 
ATOM      9  C   UNL     1       6.093   7.177  17.225  0.00  0.00    +0.000 A 
ATOM     10  C   UNL     1       6.858   8.342  17.163  0.00  0.00    +0.000 A 
BRANCH   5  12
ATOM     11  C   UNL     1       9.133  10.072  19.204  0.00  0.00    +0.000 C 
ATOM     12  O   UNL     1       8.863   9.522  17.915  0.00  0.00    +0.000 OA
ENDBRANCH   5  12
ENDBRANCH   2   8
ENDBRANCH   1   2
BRANCH   1  13
ATOM     13  C   UNL     1       2.976   4.001  17.304  0.00  0.00    +0.000 C 
BRANCH  13  14
ATOM     14  C   UNL     1       2.959   2.657  18.045  0.00  0.00    +0.000 C 
ATOM     15  O   UNL     1       3.963   1.943  18.117  0.00  0.00    +0.000 OA
ATOM     16  N   UNL     1       1.783   2.295  18.715  0.00  0.00    +0.000 N 
ATOM     17  C   UNL     1       0.621   3.173  18.868  0.00  0.00    +0.000 C 
ATOM     18  C   UNL     1       0.817   4.063  20.103  0.00  0.00    +0.000 C 
ATOM     19  O   UNL     1       1.102   3.279  21.278  0.00  0.00    +0.000 OA
ATOM     20  C   UNL     1       2.227   2.395  21.086  0.00  0.00    +0.000 C 
ATOM     21  C   UNL     1       1.970   1.453  19.901  0.00  0.00    +0.000 C 
ENDBRANCH  13  14
ENDBRANCH   1  13
BRANCH   1  22
ATOM     22  C   UNL     1       3.413   5.605  19.180  0.00  0.00    +0.000 C 
BRANCH  22  23
ATOM     23  C   UNL     1       2.734   6.957  19.097  0.00  0.00    +0.000 A 
ATOM     24  C   UNL     1       2.028   7.458  20.201  0.00  0.00    +0.000 A 
ATOM     25  C   UNL     1       1.285   8.631  20.105  0.00  0.00    +0.000 A 
ATOM     26  C   UNL     1       1.271   9.343  18.910  0.00  0.00    +0.000 A 
ATOM     27  C   UNL     1       2.006   8.887  17.818  0.00  0.00    +0.000 A 
ATOM     28  C   UNL     1       2.737   7.699  17.909  0.00  0.00    +0.000 A 
ENDBRANCH  22  23
ENDBRANCH   1  22
TORSDOF 7
ENDMDL
MODEL 8
REMARK VINA RESULT:      -6.7      2.525      5.097
REMARK  Name = 
REMARK  8 active torsions:
REMARK  status: ('A' for Active; 'I' for Inactive)
REMARK    1  A    between atoms: C_1  and  O_2
REMARK    2  A    between atoms: O_2  and  C_3
REMARK    3  A    between atoms: C_6  and  S_7
REMARK    4  A    between atoms: S_7  and  N_10
REMARK    5  A    between atoms: N_10  and  C_11
REMARK    6  A    between atoms: N_10  and  C_20
REMARK    7  A    between atoms: C_11  and  C_12
REMARK    8  A    between atoms: C_20  and  C_21
REMARK                            x       y       z     vdW  Elec       q    Type
REMARK                         _______ _______ _______ _____ _____    ______ ____
ROOT
ATOM      1  N   UNL     1       5.740   5.041  17.196  0.00  0.00    +0.000 NA
ENDROOT
BRANCH   1   2
ATOM      2  S   UNL     1       5.258   6.599  16.689  0.00  0.00    +0.000 S 
ATOM      3  O   UNL     1       4.741   6.490  15.340  0.00  0.00    +0.000 OA
ATOM      4  O   UNL     1       6.290   7.551  17.035  0.00  0.00    +0.000 OA
BRANCH   2   8
ATOM      5  C   UNL     1       1.889   8.240  19.293  0.00  0.00    +0.000 A 
ATOM      6  C   UNL     1       2.533   7.062  19.688  0.00  0.00    +0.000 A 
ATOM      7  C   UNL     1       3.552   6.498  18.902  0.00  0.00    +0.000 A 
ATOM      8  C   UNL     1       3.882   7.102  17.701  0.00  0.00    +0.000 A 
ATOM      9  C   UNL     1       3.212   8.268  17.284  0.00  0.00    +0.000 A 
ATOM     10  C   UNL     1       2.217   8.834  18.079  0.00  0.00    +0.000 A 
BRANCH   5  12
ATOM     11  C   UNL     1       0.236   9.874  19.715  0.00  0.00    +0.000 C 
ATOM     12  O   UNL     1       0.939   8.715  20.160  0.00  0.00    +0.000 OA
ENDBRANCH   5  12
ENDBRANCH   2   8
ENDBRANCH   1   2
BRANCH   1  13
ATOM     13  C   UNL     1       4.628   4.039  17.247  0.00  0.00    +0.000 C 
BRANCH  13  14
ATOM     14  C   UNL     1       4.495   3.262  18.564  0.00  0.00    +0.000 C 
ATOM     15  O   UNL     1       5.337   3.356  19.461  0.00  0.00    +0.000 OA
ATOM     16  N   UNL     1       3.336   2.499  18.759  0.00  0.00    +0.000 N 
ATOM     17  C   UNL     1       2.187   2.502  17.850  0.00  0.00    +0.000 C 
ATOM     18  C   UNL     1       1.250   3.659  18.221  0.00  0.00    +0.000 C 
ATOM     19  O   UNL     1       0.880   3.611  19.613  0.00  0.00    +0.000 OA
ATOM     20  C   UNL     1       2.030   3.569  20.485  0.00  0.00    +0.000 C 
ATOM     21  C   UNL     1       2.907   2.353  20.153  0.00  0.00    +0.000 C 
ENDBRANCH  13  14
ENDBRANCH   1  13
BRANCH   1  22
ATOM     22  C   UNL     1       6.969   4.536  16.503  0.00  0.00    +0.000 C 
BRANCH  22  23
ATOM     23  C   UNL     1       6.901   4.518  14.990  0.00  0.00    +0.000 A 
ATOM     24  C   UNL     1       6.021   3.641  14.337  0.00  0.00    +0.000 A 
ATOM     25  C   UNL     1       6.036   3.510  12.951  0.00  0.00    +0.000 A 
ATOM     26  C   UNL     1       6.907   4.287  12.194  0.00  0.00    +0.000 A 
ATOM     27  C   UNL     1       7.753   5.199  12.822  0.00  0.00    +0.000 A 
ATOM     28  C   UNL     1       7.750   5.317  14.214  0.00  0.00    +0.000 A 
ENDBRANCH  22  23
ENDBRANCH   1  22
TORSDOF 7
ENDMDL
MODEL 9
REMARK VINA RESULT:      -6.7      1.025      1.285
REMARK  Name = 
REMARK  8 active torsions:
REMARK  status: ('A' for Active; 'I' for Inactive)
REMARK    1  A    between atoms: C_1  and  O_2
REMARK    2  A    between atoms: O_2  and  C_3
REMARK    3  A    between atoms: C_6  and  S_7
REMARK    4  A    between atoms: S_7  and  N_10
REMARK    5  A    between atoms: N_10  and  C_11
REMARK    6  A    between atoms: N_10  and  C_20
REMARK    7  A    between atoms: C_11  and  C_12
REMARK    8  A    between atoms: C_20  and  C_21
REMARK                            x       y       z     vdW  Elec       q    Type
REMARK                         _______ _______ _______ _____ _____    ______ ____
ROOT
ATOM      1  N   UNL     1       3.626   5.124  18.022  0.00  0.00    +0.000 NA
ENDROOT
BRANCH   1   2
ATOM      2  S   UNL     1       5.241   4.573  17.968  0.00  0.00    +0.000 S 
ATOM      3  O   UNL     1       5.478   4.011  16.654  0.00  0.00    +0.000 OA
ATOM      4  O   UNL     1       5.531   3.834  19.177  0.00  0.00    +0.000 OA
BRANCH   2   8
ATOM      5  C   UNL     1       8.008   8.202  17.903  0.00  0.00    +0.000 A 
ATOM      6  C   UNL     1       8.305   7.143  18.769  0.00  0.00    +0.000 A 
ATOM      7  C   UNL     1       7.466   6.020  18.851  0.00  0.00    +0.000 A 
ATOM      8  C   UNL     1       6.308   5.994  18.092  0.00  0.00    +0.000 A 
ATOM      9  C   UNL     1       5.986   7.073  17.247  0.00  0.00    +0.000 A 
ATOM     10  C   UNL     1       6.836   8.175  17.155  0.00  0.00    +0.000 A 
BRANCH   5  12
ATOM     11  C   UNL     1       9.017   9.978  19.090  0.00  0.00    +0.000 C 
ATOM     12  O   UNL     1       8.921   9.225  17.882  0.00  0.00    +0.000 OA
ENDBRANCH   5  12
ENDBRANCH   2   8
ENDBRANCH   1   2
BRANCH   1  13
ATOM     13  C   UNL     1       2.614   4.108  17.587  0.00  0.00    +0.000 C 
BRANCH  13  14
ATOM     14  C   UNL     1       2.704   2.742  18.280  0.00  0.00    +0.000 C 
ATOM     15  O   UNL     1       3.626   1.956  18.048  0.00  0.00    +0.000 OA
ATOM     16  N   UNL     1       1.745   2.440  19.256  0.00  0.00    +0.000 N 
ATOM     17  C   UNL     1       0.749   3.393  19.753  0.00  0.00    +0.000 C 
ATOM     18  C   UNL     1       1.362   4.219  20.892  0.00  0.00    +0.000 C 
ATOM     19  O   UNL     1       1.909   3.373  21.921  0.00  0.00    +0.000 OA
ATOM     20  C   UNL     1       2.858   2.418  21.399  0.00  0.00    +0.000 C 
ATOM     21  C   UNL     1       2.197   1.543  20.324  0.00  0.00    +0.000 C 
ENDBRANCH  13  14
ENDBRANCH   1  13
BRANCH   1  22
ATOM     22  C   UNL     1       3.267   5.815  19.303  0.00  0.00    +0.000 C 
BRANCH  22  23
ATOM     23  C   UNL     1       2.494   7.108  19.148  0.00  0.00    +0.000 A 
ATOM     24  C   UNL     1       2.485   7.778  17.915  0.00  0.00    +0.000 A 
ATOM     25  C   UNL     1       1.896   9.033  17.785  0.00  0.00    +0.000 A 
ATOM     26  C   UNL     1       1.270   9.619  18.880  0.00  0.00    +0.000 A 
ATOM     27  C   UNL     1       1.227   8.946  20.100  0.00  0.00    +0.000 A 
ATOM     28  C   UNL     1       1.834   7.695  20.235  0.00  0.00    +0.000 A 
ENDBRANCH  22  23
ENDBRANCH   1  22
TORSDOF 7
ENDMDL
