MODEL 1
REMARK VINA RESULT:      -6.4      0.000      0.000
REMARK  Name = 
REMARK  8 active torsions:
REMARK  status: ('A' for Active; 'I' for Inactive)
REMARK    1  A    between atoms: C_1  and  C_2
REMARK    2  A    between atoms: C_4  and  C_5
REMARK    3  A    between atoms: C_6  and  C_7
REMARK    4  A    between atoms: C_9  and  N_10
REMARK    5  A    between atoms: N_10  and  C_11
REMARK    6  A    between atoms: C_11  and  C_12
REMARK    7  A    between atoms: N_14  and  C_15
REMARK    8  A    between atoms: N_18  and  C_19
REMARK                            x       y       z     vdW  Elec       q    Type
REMARK                         _______ _______ _______ _____ _____    ______ ____
ROOT
ATOM      1  N   UNL     1       2.417   7.134  20.504  0.00  0.00    +0.000 N 
ATOM      2  H   UNL     1       2.928   7.270  19.625  0.00  0.00    +0.000 HD
ENDROOT
BRANCH   1   9
ATOM      3  C   UNL     1      -0.590   9.610  23.303  0.00  0.00    +0.000 C 
ATOM      4  C   UNL     1       0.073   9.455  21.965  0.00  0.00    +0.000 A 
ATOM      5  C   UNL     1      -0.195  10.350  20.938  0.00  0.00    +0.000 A 
ATOM      6  C   UNL     1       0.429  10.154  19.696  0.00  0.00    +0.000 A 
ATOM      7  C   UNL     1       0.177  11.136  18.589  0.00  0.00    +0.000 C 
ATOM      8  C   UNL     1       1.281   9.062  19.532  0.00  0.00    +0.000 A 
ATOM      9  C   UNL     1       1.513   8.204  20.609  0.00  0.00    +0.000 A 
ATOM     10  N   UNL     1       0.919   8.425  21.805  0.00  0.00    +0.000 NA
BRANCH   8  11
ATOM     11  C   UNL     1       1.906   8.786  18.249  0.00  0.00    +0.000 C 
ATOM     12  N   UNL     1       2.412   8.492  17.246  0.00  0.00    +0.000 NA
ENDBRANCH   8  11
ENDBRANCH   1   9
BRANCH   1  13
ATOM     13  C   UNL     1       1.760   5.832  20.440  0.00  0.00    +0.000 C 
BRANCH  13  14
ATOM     14  C   UNL     1       2.095   4.795  19.333  0.00  0.00    +0.000 C 
ATOM     15  C   UNL     1       3.316   5.053  18.361  0.00  0.00    +0.000 C 
ATOM     16  N   UNL     1       3.494   3.903  17.410  0.00  0.00    +0.000 NA
ATOM     17  C   UNL     1       4.601   4.056  16.469  0.00  0.00    +0.000 C 
ATOM     18  C   UNL     1       3.681   2.659  18.174  0.00  0.00    +0.000 C 
ATOM     19  C   UNL     1       2.491   2.394  19.099  0.00  0.00    +0.000 C 
ATOM     20  N   UNL     1       2.305   3.483  20.057  0.00  0.00    +0.000 NA
ATOM     21  C   UNL     1       1.262   3.132  21.015  0.00  0.00    +0.000 C 
ENDBRANCH  13  14
ENDBRANCH   1  13
TORSDOF 4
ENDMDL
MODEL 2
REMARK VINA RESULT:      -6.3      1.363      7.128
REMARK  Name = 
REMARK  8 active torsions:
REMARK  status: ('A' for Active; 'I' for Inactive)
REMARK    1  A    between atoms: C_1  and  C_2
REMARK    2  A    between atoms: C_4  and  C_5
REMARK    3  A    between atoms: C_6  and  C_7
REMARK    4  A    between atoms: C_9  and  N_10
REMARK    5  A    between atoms: N_10  and  C_11
REMARK    6  A    between atoms: C_11  and  C_12
REMARK    7  A    between atoms: N_14  and  C_15
REMARK    8  A    between atoms: N_18  and  C_19
REMARK                            x       y       z     vdW  Elec       q    Type
REMARK                         _______ _______ _______ _____ _____    ______ ____
ROOT
ATOM      1  N   UNL     1       2.219   6.174  20.201  0.00  0.00    +0.000 N 
ATOM      2  H   UNL     1       1.244   5.862  20.257  0.00  0.00    +0.000 HD
ENDROOT
BRANCH   1   9
ATOM      3  C   UNL     1       5.006   6.147  16.297  0.00  0.00    +0.000 C 
ATOM      4  C   UNL     1       4.218   5.366  17.308  0.00  0.00    +0.000 A 
ATOM      5  C   UNL     1       4.144   3.982  17.228  0.00  0.00    +0.000 A 
ATOM      6  C   UNL     1       3.376   3.294  18.180  0.00  0.00    +0.000 A 
ATOM      7  C   UNL     1       3.319   1.794  18.127  0.00  0.00    +0.000 C 
ATOM      8  C   UNL     1       2.702   4.021  19.160  0.00  0.00    +0.000 A 
ATOM      9  C   UNL     1       2.825   5.412  19.189  0.00  0.00    +0.000 A 
ATOM     10  N   UNL     1       3.590   6.054  18.275  0.00  0.00    +0.000 NA
BRANCH   8  11
ATOM     11  C   UNL     1       1.851   3.358  20.134  0.00  0.00    +0.000 C 
ATOM     12  N   UNL     1       1.222   2.849  20.967  0.00  0.00    +0.000 NA
ENDBRANCH   8  11
ENDBRANCH   1   9
BRANCH   1  13
ATOM     13  C   UNL     1       2.211   7.606  19.914  0.00  0.00    +0.000 C 
BRANCH  13  14
ATOM     14  C   UNL     1       0.991   8.506  20.251  0.00  0.00    +0.000 C 
ATOM     15  C   UNL     1       0.742   8.960  21.746  0.00  0.00    +0.000 C 
ATOM     16  N   UNL     1      -0.453   9.866  21.836  0.00  0.00    +0.000 NA
ATOM     17  C   UNL     1      -0.763  10.335  23.185  0.00  0.00    +0.000 C 
ATOM     18  C   UNL     1      -0.254  11.030  20.957  0.00  0.00    +0.000 C 
ATOM     19  C   UNL     1      -0.036  10.595  19.507  0.00  0.00    +0.000 C 
ATOM     20  N   UNL     1       1.138   9.732  19.377  0.00  0.00    +0.000 NA
ATOM     21  C   UNL     1       1.404   9.459  17.969  0.00  0.00    +0.000 C 
ENDBRANCH  13  14
ENDBRANCH   1  13
TORSDOF 4
ENDMDL
MODEL 3
REMARK VINA RESULT:      -6.3      3.335      7.021
REMARK  Name = 
REMARK  8 active torsions:
REMARK  status: ('A' for Active; 'I' for Inactive)
REMARK    1  A    between atoms: C_1  and  C_2
REMARK    2  A    between atoms: C_4  and  C_5
REMARK    3  A    between atoms: C_6  and  C_7
REMARK    4  A    between atoms: C_9  and  N_10
REMARK    5  A    between atoms: N_10  and  C_11
REMARK    6  A    between atoms: C_11  and  C_12
REMARK    7  A    between atoms: N_14  and  C_15
REMARK    8  A    between atoms: N_18  and  C_19
REMARK                            x       y       z     vdW  Elec       q    Type
REMARK                         _______ _______ _______ _____ _____    ______ ____
ROOT
ATOM      1  N   UNL     1       4.525   2.964  17.279  0.00  0.00    +0.000 N 
ATOM      2  H   UNL     1       4.580   2.039  16.840  0.00  0.00    +0.000 HD
ENDROOT
BRANCH   1   9
ATOM      3  C   UNL     1       6.482   4.119  13.054  0.00  0.00    +0.000 C 
ATOM      4  C   UNL     1       6.355   4.403  14.523  0.00  0.00    +0.000 A 
ATOM      5  C   UNL     1       7.068   5.444  15.103  0.00  0.00    +0.000 A 
ATOM      6  C   UNL     1       6.938   5.660  16.484  0.00  0.00    +0.000 A 
ATOM      7  C   UNL     1       7.673   6.805  17.116  0.00  0.00    +0.000 C 
ATOM      8  C   UNL     1       6.113   4.815  17.226  0.00  0.00    +0.000 A 
ATOM      9  C   UNL     1       5.418   3.792  16.579  0.00  0.00    +0.000 A 
ATOM     10  N   UNL     1       5.540   3.615  15.242  0.00  0.00    +0.000 NA
BRANCH   8  11
ATOM     11  C   UNL     1       5.989   4.965  18.666  0.00  0.00    +0.000 C 
ATOM     12  N   UNL     1       5.926   5.016  19.825  0.00  0.00    +0.000 NA
ENDBRANCH   8  11
ENDBRANCH   1   9
BRANCH   1  13
ATOM     13  C   UNL     1       3.138   3.414  17.194  0.00  0.00    +0.000 C 
BRANCH  13  14
ATOM     14  C   UNL     1       2.288   3.702  18.462  0.00  0.00    +0.000 C 
ATOM     15  C   UNL     1       2.377   2.725  19.703  0.00  0.00    +0.000 C 
ATOM     16  N   UNL     1       1.520   3.220  20.834  0.00  0.00    +0.000 NA
ATOM     17  C   UNL     1       1.538   2.377  22.027  0.00  0.00    +0.000 C 
ATOM     18  C   UNL     1       1.935   4.583  21.203  0.00  0.00    +0.000 C 
ATOM     19  C   UNL     1       1.828   5.536  20.011  0.00  0.00    +0.000 C 
ATOM     20  N   UNL     1       2.672   5.098  18.899  0.00  0.00    +0.000 NA
ATOM     21  C   UNL     1       2.663   6.102  17.841  0.00  0.00    +0.000 C 
ENDBRANCH  13  14
ENDBRANCH   1  13
TORSDOF 4
ENDMDL
MODEL 4
REMARK VINA RESULT:      -6.0      2.640      6.523
REMARK  Name = 
REMARK  8 active torsions:
REMARK  status: ('A' for Active; 'I' for Inactive)
REMARK    1  A    between atoms: C_1  and  C_2
REMARK    2  A    between atoms: C_4  and  C_5
REMARK    3  A    between atoms: C_6  and  C_7
REMARK    4  A    between atoms: C_9  and  N_10
REMARK    5  A    between atoms: N_10  and  C_11
REMARK    6  A    between atoms: C_11  and  C_12
REMARK    7  A    between atoms: N_14  and  C_15
REMARK    8  A    between atoms: N_18  and  C_19
REMARK                            x       y       z     vdW  Elec       q    Type
REMARK                         _______ _______ _______ _____ _____    ______ ____
ROOT
ATOM      1  N   UNL     1       5.739   3.310  18.790  0.00  0.00    +0.000 N 
ATOM      2  H   UNL     1       5.974   2.381  18.426  0.00  0.00    +0.000 HD
ENDROOT
BRANCH   1   9
ATOM      3  C   UNL     1       5.432   4.581  14.175  0.00  0.00    +0.000 C 
ATOM      4  C   UNL     1       5.930   4.897  15.555  0.00  0.00    +0.000 A 
ATOM      5  C   UNL     1       6.668   6.048  15.792  0.00  0.00    +0.000 A 
ATOM      6  C   UNL     1       7.134   6.293  17.093  0.00  0.00    +0.000 A 
ATOM      7  C   UNL     1       7.901   7.554  17.369  0.00  0.00    +0.000 C 
ATOM      8  C   UNL     1       6.855   5.366  18.097  0.00  0.00    +0.000 A 
ATOM      9  C   UNL     1       6.100   4.231  17.793  0.00  0.00    +0.000 A 
ATOM     10  N   UNL     1       5.641   4.027  16.536  0.00  0.00    +0.000 NA
BRANCH   8  11
ATOM     11  C   UNL     1       7.363   5.548  19.446  0.00  0.00    +0.000 C 
ATOM     12  N   UNL     1       7.763   5.616  20.534  0.00  0.00    +0.000 NA
ENDBRANCH   8  11
ENDBRANCH   1   9
BRANCH   1  13
ATOM     13  C   UNL     1       4.311   3.322  19.093  0.00  0.00    +0.000 C 
BRANCH  13  14
ATOM     14  C   UNL     1       3.620   4.546  19.754  0.00  0.00    +0.000 C 
ATOM     15  C   UNL     1       3.226   5.797  18.869  0.00  0.00    +0.000 C 
ATOM     16  N   UNL     1       2.523   6.835  19.696  0.00  0.00    +0.000 NA
ATOM     17  C   UNL     1       2.122   8.032  18.960  0.00  0.00    +0.000 C 
ATOM     18  C   UNL     1       1.334   6.239  20.326  0.00  0.00    +0.000 C 
ATOM     19  C   UNL     1       1.714   5.043  21.201  0.00  0.00    +0.000 C 
ATOM     20  N   UNL     1       2.378   3.998  20.421  0.00  0.00    +0.000 NA
ATOM     21  C   UNL     1       2.591   2.817  21.250  0.00  0.00    +0.000 C 
ENDBRANCH  13  14
ENDBRANCH   1  13
TORSDOF 4
ENDMDL
MODEL 5
REMARK VINA RESULT:      -6.0      2.381      6.886
REMARK  Name = 
REMARK  8 active torsions:
REMARK  status: ('A' for Active; 'I' for Inactive)
REMARK    1  A    between atoms: C_1  and  C_2
REMARK    2  A    between atoms: C_4  and  C_5
REMARK    3  A    between atoms: C_6  and  C_7
REMARK    4  A    between atoms: C_9  and  N_10
REMARK    5  A    between atoms: N_10  and  C_11
REMARK    6  A    between atoms: C_11  and  C_12
REMARK    7  A    between atoms: N_14  and  C_15
REMARK    8  A    between atoms: N_18  and  C_19
REMARK                            x       y       z     vdW  Elec       q    Type
REMARK                         _______ _______ _______ _____ _____    ______ ____
ROOT
ATOM      1  N   UNL     1       4.753   2.883  17.442  0.00  0.00    +0.000 N 
ATOM      2  H   UNL     1       4.732   1.978  16.960  0.00  0.00    +0.000 HD
ENDROOT
BRANCH   1   9
ATOM      3  C   UNL     1       6.273   4.032  13.040  0.00  0.00    +0.000 C 
ATOM      4  C   UNL     1       6.256   4.348  14.508  0.00  0.00    +0.000 A 
ATOM      5  C   UNL     1       6.954   5.441  15.001  0.00  0.00    +0.000 A 
ATOM      6  C   UNL     1       6.930   5.686  16.383  0.00  0.00    +0.000 A 
ATOM      7  C   UNL     1       7.650   6.887  16.925  0.00  0.00    +0.000 C 
ATOM      8  C   UNL     1       6.222   4.817  17.212  0.00  0.00    +0.000 A 
ATOM      9  C   UNL     1       5.534   3.740  16.650  0.00  0.00    +0.000 A 
ATOM     10  N   UNL     1       5.551   3.535  15.311  0.00  0.00    +0.000 NA
BRANCH   8  11
ATOM     11  C   UNL     1       6.212   4.998  18.654  0.00  0.00    +0.000 C 
ATOM     12  N   UNL     1       6.127   5.145  19.803  0.00  0.00    +0.000 NA
ENDBRANCH   8  11
ENDBRANCH   1   9
BRANCH   1  13
ATOM     13  C   UNL     1       3.373   3.338  17.592  0.00  0.00    +0.000 C 
BRANCH  13  14
ATOM     14  C   UNL     1       2.889   4.091  18.862  0.00  0.00    +0.000 C 
ATOM     15  C   UNL     1       2.670   5.657  18.807  0.00  0.00    +0.000 C 
ATOM     16  N   UNL     1       2.148   6.169  20.120  0.00  0.00    +0.000 NA
ATOM     17  C   UNL     1       1.917   7.610  20.165  0.00  0.00    +0.000 C 
ATOM     18  C   UNL     1       0.897   5.471  20.457  0.00  0.00    +0.000 C 
ATOM     19  C   UNL     1       1.110   3.958  20.533  0.00  0.00    +0.000 C 
ATOM     20  N   UNL     1       1.593   3.421  19.260  0.00  0.00    +0.000 NA
ATOM     21  C   UNL     1       1.643   1.964  19.321  0.00  0.00    +0.000 C 
ENDBRANCH  13  14
ENDBRANCH   1  13
TORSDOF 4
ENDMDL
MODEL 6
REMARK VINA RESULT:      -5.9      2.505      5.824
REMARK  Name = 
REMARK  8 active torsions:
REMARK  status: ('A' for Active; 'I' for Inactive)
REMARK    1  A    between atoms: C_1  and  C_2
REMARK    2  A    between atoms: C_4  and  C_5
REMARK    3  A    between atoms: C_6  and  C_7
REMARK    4  A    between atoms: C_9  and  N_10
REMARK    5  A    between atoms: N_10  and  C_11
REMARK    6  A    between atoms: C_11  and  C_12
REMARK    7  A    between atoms: N_14  and  C_15
REMARK    8  A    between atoms: N_18  and  C_19
REMARK                            x       y       z     vdW  Elec       q    Type
REMARK                         _______ _______ _______ _____ _____    ______ ____
ROOT
ATOM      1  N   UNL     1       3.649   4.559  17.221  0.00  0.00    +0.000 N 
ATOM      2  H   UNL     1       3.329   3.646  16.881  0.00  0.00    +0.000 HD
ENDROOT
BRANCH   1   9
ATOM      3  C   UNL     1       1.823   7.713  20.340  0.00  0.00    +0.000 C 
ATOM      4  C   UNL     1       2.085   6.280  19.980  0.00  0.00    +0.000 A 
ATOM      5  C   UNL     1       1.688   5.256  20.830  0.00  0.00    +0.000 A 
ATOM      6  C   UNL     1       1.974   3.931  20.465  0.00  0.00    +0.000 A 
ATOM      7  C   UNL     1       1.516   2.813  21.356  0.00  0.00    +0.000 C 
ATOM      8  C   UNL     1       2.658   3.689  19.274  0.00  0.00    +0.000 A 
ATOM      9  C   UNL     1       3.021   4.765  18.461  0.00  0.00    +0.000 A 
ATOM     10  N   UNL     1       2.715   6.034  18.821  0.00  0.00    +0.000 NA
BRANCH   8  11
ATOM     11  C   UNL     1       3.024   2.339  18.881  0.00  0.00    +0.000 C 
ATOM     12  N   UNL     1       3.344   1.290  18.500  0.00  0.00    +0.000 NA
ENDBRANCH   8  11
ENDBRANCH   1   9
BRANCH   1  13
ATOM     13  C   UNL     1       5.106   4.512  17.317  0.00  0.00    +0.000 C 
BRANCH  13  14
ATOM     14  C   UNL     1       6.005   4.290  16.070  0.00  0.00    +0.000 C 
ATOM     15  C   UNL     1       5.356   3.799  14.714  0.00  0.00    +0.000 C 
ATOM     16  N   UNL     1       6.393   3.705  13.630  0.00  0.00    +0.000 NA
ATOM     17  C   UNL     1       5.884   3.255  12.337  0.00  0.00    +0.000 C 
ATOM     18  C   UNL     1       7.045   5.014  13.460  0.00  0.00    +0.000 C 
ATOM     19  C   UNL     1       7.693   5.481  14.764  0.00  0.00    +0.000 C 
ATOM     20  N   UNL     1       6.707   5.610  15.836  0.00  0.00    +0.000 NA
ATOM     21  C   UNL     1       7.328   6.198  17.018  0.00  0.00    +0.000 C 
ENDBRANCH  13  14
ENDBRANCH   1  13
TORSDOF 4
ENDMDL
MODEL 7
REMARK VINA RESULT:      -5.9      1.590      6.452
REMARK  Name = 
REMARK  8 active torsions:
REMARK  status: ('A' for Active; 'I' for Inactive)
REMARK    1  A    between atoms: C_1  and  C_2
REMARK    2  A    between atoms: C_4  and  C_5
REMARK    3  A    between atoms: C_6  and  C_7
REMARK    4  A    between atoms: C_9  and  N_10
REMARK    5  A    between atoms: N_10  and  C_11
REMARK    6  A    between atoms: C_11  and  C_12
REMARK    7  A    between atoms: N_14  and  C_15
REMARK    8  A    between atoms: N_18  and  C_19
REMARK                            x       y       z     vdW  Elec       q    Type
REMARK                         _______ _______ _______ _____ _____    ______ ____
ROOT
ATOM      1  N   UNL     1       2.118   7.456  20.822  0.00  0.00    +0.000 N 
ATOM      2  H   UNL     1       2.515   7.428  21.767  0.00  0.00    +0.000 HD
ENDROOT
BRANCH   1   9
ATOM      3  C   UNL     1       1.324   2.809  21.709  0.00  0.00    +0.000 C 
ATOM      4  C   UNL     1       1.733   3.870  20.729  0.00  0.00    +0.000 A 
ATOM      5  C   UNL     1       2.084   3.531  19.429  0.00  0.00    +0.000 A 
ATOM      6  C   UNL     1       2.482   4.552  18.552  0.00  0.00    +0.000 A 
ATOM      7  C   UNL     1       2.828   4.203  17.133  0.00  0.00    +0.000 C 
ATOM      8  C   UNL     1       2.527   5.865  19.018  0.00  0.00    +0.000 A 
ATOM      9  C   UNL     1       2.153   6.139  20.335  0.00  0.00    +0.000 A 
ATOM     10  N   UNL     1       1.749   5.142  21.158  0.00  0.00    +0.000 NA
BRANCH   8  11
ATOM     11  C   UNL     1       2.985   6.948  18.164  0.00  0.00    +0.000 C 
ATOM     12  N   UNL     1       3.345   7.861  17.543  0.00  0.00    +0.000 NA
ENDBRANCH   8  11
ENDBRANCH   1   9
BRANCH   1  13
ATOM     13  C   UNL     1       0.764   7.994  20.925  0.00  0.00    +0.000 C 
BRANCH  13  14
ATOM     14  C   UNL     1       0.468   9.512  20.775  0.00  0.00    +0.000 C 
ATOM     15  C   UNL     1      -0.226  10.048  19.458  0.00  0.00    +0.000 C 
ATOM     16  N   UNL     1      -0.468  11.528  19.548  0.00  0.00    +0.000 NA
ATOM     17  C   UNL     1      -1.106  12.114  18.371  0.00  0.00    +0.000 C 
ATOM     18  C   UNL     1      -1.289  11.820  20.734  0.00  0.00    +0.000 C 
ATOM     19  C   UNL     1      -0.610  11.324  22.012  0.00  0.00    +0.000 C 
ATOM     20  N   UNL     1      -0.383   9.879  21.970  0.00  0.00    +0.000 NA
ATOM     21  C   UNL     1       0.127   9.417  23.257  0.00  0.00    +0.000 C 
ENDBRANCH  13  14
ENDBRANCH   1  13
TORSDOF 4
ENDMDL
MODEL 8
REMARK VINA RESULT:      -5.9      1.536      6.673
REMARK  Name = 
REMARK  8 active torsions:
REMARK  status: ('A' for Active; 'I' for Inactive)
REMARK    1  A    between atoms: C_1  and  C_2
REMARK    2  A    between atoms: C_4  and  C_5
REMARK    3  A    between atoms: C_6  and  C_7
REMARK    4  A    between atoms: C_9  and  N_10
REMARK    5  A    between atoms: N_10  and  C_11
REMARK    6  A    between atoms: C_11  and  C_12
REMARK    7  A    between atoms: N_14  and  C_15
REMARK    8  A    between atoms: N_18  and  C_19
REMARK                            x       y       z     vdW  Elec       q    Type
REMARK                         _______ _______ _______ _____ _____    ______ ____
ROOT
ATOM      1  N   UNL     1       3.096   6.527  19.800  0.00  0.00    +0.000 N 
ATOM      2  H   UNL     1       2.646   6.290  20.690  0.00  0.00    +0.000 HD
ENDROOT
BRANCH   1   9
ATOM      3  C   UNL     1       0.781   2.456  18.762  0.00  0.00    +0.000 C 
ATOM      4  C   UNL     1       1.906   3.400  18.451  0.00  0.00    +0.000 A 
ATOM      5  C   UNL     1       2.792   3.123  17.418  0.00  0.00    +0.000 A 
ATOM      6  C   UNL     1       3.843   4.020  17.176  0.00  0.00    +0.000 A 
ATOM      7  C   UNL     1       4.785   3.753  16.038  0.00  0.00    +0.000 C 
ATOM      8  C   UNL     1       3.972   5.147  17.988  0.00  0.00    +0.000 A 
ATOM      9  C   UNL     1       3.042   5.370  19.005  0.00  0.00    +0.000 A 
ATOM     10  N   UNL     1       2.021   4.503  19.206  0.00  0.00    +0.000 NA
BRANCH   8  11
ATOM     11  C   UNL     1       5.076   6.075  17.812  0.00  0.00    +0.000 C 
ATOM     12  N   UNL     1       5.910   6.875  17.695  0.00  0.00    +0.000 NA
ENDBRANCH   8  11
ENDBRANCH   1   9
BRANCH   1  13
ATOM     13  C   UNL     1       2.372   7.655  19.221  0.00  0.00    +0.000 C 
BRANCH  13  14
ATOM     14  C   UNL     1       1.186   8.336  19.957  0.00  0.00    +0.000 C 
ATOM     15  C   UNL     1       1.251   8.541  21.525  0.00  0.00    +0.000 C 
ATOM     16  N   UNL     1       0.031   9.266  22.019  0.00  0.00    +0.000 NA
ATOM     17  C   UNL     1       0.002   9.498  23.461  0.00  0.00    +0.000 C 
ATOM     18  C   UNL     1      -0.088  10.557  21.322  0.00  0.00    +0.000 C 
ATOM     19  C   UNL     1      -0.175  10.361  19.807  0.00  0.00    +0.000 C 
ATOM     20  N   UNL     1       1.011   9.681  19.287  0.00  0.00    +0.000 NA
ATOM     21  C   UNL     1       0.966   9.644  17.829  0.00  0.00    +0.000 C 
ENDBRANCH  13  14
ENDBRANCH   1  13
TORSDOF 4
ENDMDL
MODEL 9
REMARK VINA RESULT:      -5.9      2.352      5.034
REMARK  Name = 
REMARK  8 active torsions:
REMARK  status: ('A' for Active; 'I' for Inactive)
REMARK    1  A    between atoms: C_1  and  C_2
REMARK    2  A    between atoms: C_4  and  C_5
REMARK    3  A    between atoms: C_6  and  C_7
REMARK    4  A    between atoms: C_9  and  N_10
REMARK    5  A    between atoms: N_10  and  C_11
REMARK    6  A    between atoms: C_11  and  C_12
REMARK    7  A    between atoms: N_14  and  C_15
REMARK    8  A    between atoms: N_18  and  C_19
REMARK                            x       y       z     vdW  Elec       q    Type
REMARK                         _______ _______ _______ _____ _____    ______ ____
ROOT
ATOM      1  N   UNL     1       3.480   4.758  17.295  0.00  0.00    +0.000 N 
ATOM      2  H   UNL     1       2.885   4.132  16.741  0.00  0.00    +0.000 HD
ENDROOT
BRANCH   1   9
ATOM      3  C   UNL     1       1.698   2.775  21.283  0.00  0.00    +0.000 C 
ATOM      4  C   UNL     1       1.981   4.020  20.493  0.00  0.00    +0.000 A 
ATOM      5  C   UNL     1       1.624   5.266  20.989  0.00  0.00    +0.000 A 
ATOM      6  C   UNL     1       1.886   6.401  20.207  0.00  0.00    +0.000 A 
ATOM      7  C   UNL     1       1.540   7.758  20.749  0.00  0.00    +0.000 C 
ATOM      8  C   UNL     1       2.478   6.239  18.955  0.00  0.00    +0.000 A 
ATOM      9  C   UNL     1       2.819   4.957  18.518  0.00  0.00    +0.000 A 
ATOM     10  N   UNL     1       2.579   3.877  19.299  0.00  0.00    +0.000 NA
BRANCH   8  11
ATOM     11  C   UNL     1       2.719   7.378  18.086  0.00  0.00    +0.000 C 
ATOM     12  N   UNL     1       2.899   8.335  17.452  0.00  0.00    +0.000 NA
ENDBRANCH   8  11
ENDBRANCH   1   9
BRANCH   1  13
ATOM     13  C   UNL     1       4.783   4.116  17.444  0.00  0.00    +0.000 C 
BRANCH  13  14
ATOM     14  C   UNL     1       5.772   3.976  16.254  0.00  0.00    +0.000 C 
ATOM     15  C   UNL     1       5.211   3.733  14.794  0.00  0.00    +0.000 C 
ATOM     16  N   UNL     1       6.332   3.685  13.794  0.00  0.00    +0.000 NA
ATOM     17  C   UNL     1       5.908   3.461  12.414  0.00  0.00    +0.000 C 
ATOM     18  C   UNL     1       7.104   4.936  13.862  0.00  0.00    +0.000 C 
ATOM     19  C   UNL     1       7.667   5.163  15.267  0.00  0.00    +0.000 C 
ATOM     20  N   UNL     1       6.600   5.242  16.264  0.00  0.00    +0.000 NA
ATOM     21  C   UNL     1       7.157   5.606  17.562  0.00  0.00    +0.000 C 
ENDBRANCH  13  14
ENDBRANCH   1  13
TORSDOF 4
ENDMDL
