MODEL 1
REMARK VINA RESULT:      -8.8      0.000      0.000
REMARK  Name = 
REMARK  7 active torsions:
REMARK  status: ('A' for Active; 'I' for Inactive)
REMARK    1  A    between atoms: C_1  and  C_2
REMARK    2  A    between atoms: C_5  and  S_6
REMARK    3  A    between atoms: S_6  and  O_9
REMARK    4  A    between atoms: O_9  and  C_10
REMARK    5  A    between atoms: C_16  and  C_17
REMARK    6  A    between atoms: N_25  and  C_26
REMARK    7  A    between atoms: C_29  and  C_30
REMARK                            x       y       z     vdW  Elec       q    Type
REMARK                         _______ _______ _______ _____ _____    ______ ____
ROOT
ATOM      1  C   UNL     1       2.024   7.874  20.064  0.00  0.00    +0.000 A 
ATOM      2  C   UNL     1       2.139   8.741  18.984  0.00  0.00    +0.000 A 
ATOM      3  C   UNL     1       2.822   8.329  17.820  0.00  0.00    +0.000 A 
ATOM      4  C   UNL     1       3.350   7.035  17.702  0.00  0.00    +0.000 A 
ATOM      5  C   UNL     1       3.012   6.093  18.678  0.00  0.00    +0.000 A 
ATOM      6  C   UNL     1       2.459   6.561  19.901  0.00  0.00    +0.000 A 
ATOM      7  C   UNL     1       3.451   4.621  18.477  0.00  0.00    +0.000 C 
ATOM      8  C   UNL     1       3.003   3.929  17.093  0.00  0.00    +0.000 C 
ATOM      9  C   UNL     1       4.165   3.317  16.315  0.00  0.00    +0.000 C 
ATOM     10  N   UNL     1       4.938   4.442  15.847  0.00  0.00    +0.000 NA
ATOM     11  C   UNL     1       5.974   4.130  14.890  0.00  0.00    +0.000 C 
ATOM     12  C   UNL     1       5.262   5.404  16.914  0.00  0.00    +0.000 C 
ATOM     13  C   UNL     1       4.346   6.671  16.622  0.00  0.00    +0.000 C 
ATOM     14  C   UNL     1       5.020   4.794  18.370  0.00  0.00    +0.000 C 
ATOM     15  C   UNL     1       5.759   5.699  19.388  0.00  0.00    +0.000 C 
ENDROOT
BRANCH   7  16
ATOM     16  C   UNL     1       2.636   3.729  19.428  0.00  0.00    +0.000 A 
ATOM     17  C   UNL     1       3.389   3.131  20.502  0.00  0.00    +0.000 A 
ATOM     18  C   UNL     1       2.798   2.544  21.605  0.00  0.00    +0.000 A 
ATOM     19  C   UNL     1       1.419   2.469  21.650  0.00  0.00    +0.000 A 
ATOM     20  C   UNL     1       0.657   2.950  20.577  0.00  0.00    +0.000 A 
ATOM     21  C   UNL     1       1.256   3.585  19.469  0.00  0.00    +0.000 A 
ENDBRANCH   7  16
BRANCH   1  22
ATOM     22  O   UNL     1       1.590   8.198  21.331  0.00  0.00    +0.000 OA
BRANCH  22  23
ATOM     23  S   UNL     1       0.081   8.741  21.637  0.00  0.00    +0.000 S 
ATOM     24  O   UNL     1       0.019   9.122  23.043  0.00  0.00    +0.000 OA
ATOM     25  O   UNL     1      -0.890   7.840  21.067  0.00  0.00    +0.000 OA
BRANCH  23  30
ATOM     26  C   UNL     1      -0.343  13.832  18.291  0.00  0.00    +0.000 C 
ATOM     27  C   UNL     1      -0.252  12.592  19.146  0.00  0.00    +0.000 A 
ATOM     28  C   UNL     1       0.570  12.555  20.277  0.00  0.00    +0.000 A 
ATOM     29  C   UNL     1       0.661  11.396  21.059  0.00  0.00    +0.000 A 
ATOM     30  C   UNL     1      -0.075  10.263  20.698  0.00  0.00    +0.000 A 
ATOM     31  C   UNL     1      -0.903  10.294  19.567  0.00  0.00    +0.000 A 
ATOM     32  C   UNL     1      -0.987  11.454  18.794  0.00  0.00    +0.000 A 
ENDBRANCH  23  30
ENDBRANCH  22  23
ENDBRANCH   1  22
TORSDOF 4
ENDMDL
MODEL 2
REMARK VINA RESULT:      -8.4      1.034      1.365
REMARK  Name = 
REMARK  7 active torsions:
REMARK  status: ('A' for Active; 'I' for Inactive)
REMARK    1  A    between atoms: C_1  and  C_2
REMARK    2  A    between atoms: C_5  and  S_6
REMARK    3  A    between atoms: S_6  and  O_9
REMARK    4  A    between atoms: O_9  and  C_10
REMARK    5  A    between atoms: C_16  and  C_17
REMARK    6  A    between atoms: N_25  and  C_26
REMARK    7  A    between atoms: C_29  and  C_30
REMARK                            x       y       z     vdW  Elec       q    Type
REMARK                         _______ _______ _______ _____ _____    ______ ____
ROOT
ATOM      1  C   UNL     1       1.987   8.063  19.663  0.00  0.00    +0.000 A 
ATOM      2  C   UNL     1       2.193   8.868  18.549  0.00  0.00    +0.000 A 
ATOM      3  C   UNL     1       2.971   8.394  17.472  0.00  0.00    +0.000 A 
ATOM      4  C   UNL     1       3.507   7.098  17.472  0.00  0.00    +0.000 A 
ATOM      5  C   UNL     1       3.088   6.212  18.469  0.00  0.00    +0.000 A 
ATOM      6  C   UNL     1       2.435   6.745  19.612  0.00  0.00    +0.000 A 
ATOM      7  C   UNL     1       3.543   4.733  18.389  0.00  0.00    +0.000 C 
ATOM      8  C   UNL     1       3.212   3.960  17.014  0.00  0.00    +0.000 C 
ATOM      9  C   UNL     1       4.436   3.311  16.372  0.00  0.00    +0.000 C 
ATOM     10  N   UNL     1       5.245   4.412  15.907  0.00  0.00    +0.000 NA
ATOM     11  C   UNL     1       6.358   4.051  15.059  0.00  0.00    +0.000 C 
ATOM     12  C   UNL     1       5.478   5.434  16.941  0.00  0.00    +0.000 C 
ATOM     13  C   UNL     1       4.590   6.678  16.501  0.00  0.00    +0.000 C 
ATOM     14  C   UNL     1       5.115   4.906  18.404  0.00  0.00    +0.000 C 
ATOM     15  C   UNL     1       5.766   5.871  19.427  0.00  0.00    +0.000 C 
ENDROOT
BRANCH   7  16
ATOM     16  C   UNL     1       2.651   3.892  19.317  0.00  0.00    +0.000 A 
ATOM     17  C   UNL     1       3.335   3.268  20.423  0.00  0.00    +0.000 A 
ATOM     18  C   UNL     1       2.676   2.721  21.509  0.00  0.00    +0.000 A 
ATOM     19  C   UNL     1       1.295   2.716  21.505  0.00  0.00    +0.000 A 
ATOM     20  C   UNL     1       0.597   3.225  20.402  0.00  0.00    +0.000 A 
ATOM     21  C   UNL     1       1.264   3.817  19.311  0.00  0.00    +0.000 A 
ENDBRANCH   7  16
BRANCH   1  22
ATOM     22  O   UNL     1       1.449   8.456  20.868  0.00  0.00    +0.000 OA
BRANCH  22  23
ATOM     23  S   UNL     1      -0.092   8.974  21.022  0.00  0.00    +0.000 S 
ATOM     24  O   UNL     1      -0.662   8.340  22.205  0.00  0.00    +0.000 OA
ATOM     25  O   UNL     1      -0.762   8.907  19.746  0.00  0.00    +0.000 OA
BRANCH  23  30
ATOM     26  C   UNL     1       0.151  14.958  22.218  0.00  0.00    +0.000 C 
ATOM     27  C   UNL     1       0.125  13.476  21.934  0.00  0.00    +0.000 A 
ATOM     28  C   UNL     1       0.973  12.911  20.976  0.00  0.00    +0.000 A 
ATOM     29  C   UNL     1       0.935  11.537  20.708  0.00  0.00    +0.000 A 
ATOM     30  C   UNL     1       0.032  10.724  21.401  0.00  0.00    +0.000 A 
ATOM     31  C   UNL     1      -0.820  11.284  22.364  0.00  0.00    +0.000 A 
ATOM     32  C   UNL     1      -0.773  12.655  22.626  0.00  0.00    +0.000 A 
ENDBRANCH  23  30
ENDBRANCH  22  23
ENDBRANCH   1  22
TORSDOF 4
ENDMDL
MODEL 3
REMARK VINA RESULT:      -8.1      2.237      4.365
REMARK  Name = 
REMARK  7 active torsions:
REMARK  status: ('A' for Active; 'I' for Inactive)
REMARK    1  A    between atoms: C_1  and  C_2
REMARK    2  A    between atoms: C_5  and  S_6
REMARK    3  A    between atoms: S_6  and  O_9
REMARK    4  A    between atoms: O_9  and  C_10
REMARK    5  A    between atoms: C_16  and  C_17
REMARK    6  A    between atoms: N_25  and  C_26
REMARK    7  A    between atoms: C_29  and  C_30
REMARK                            x       y       z     vdW  Elec       q    Type
REMARK                         _______ _______ _______ _____ _____    ______ ____
ROOT
ATOM      1  C   UNL     1       1.905   8.681  19.199  0.00  0.00    +0.000 A 
ATOM      2  C   UNL     1       1.236   8.465  20.398  0.00  0.00    +0.000 A 
ATOM      3  C   UNL     1       1.172   7.166  20.945  0.00  0.00    +0.000 A 
ATOM      4  C   UNL     1       1.816   6.082  20.330  0.00  0.00    +0.000 A 
ATOM      5  C   UNL     1       2.692   6.348  19.275  0.00  0.00    +0.000 A 
ATOM      6  C   UNL     1       2.626   7.623  18.651  0.00  0.00    +0.000 A 
ATOM      7  C   UNL     1       3.533   5.184  18.693  0.00  0.00    +0.000 C 
ATOM      8  C   UNL     1       4.430   4.359  19.748  0.00  0.00    +0.000 C 
ATOM      9  C   UNL     1       4.182   2.853  19.710  0.00  0.00    +0.000 C 
ATOM     10  N   UNL     1       2.855   2.676  20.247  0.00  0.00    +0.000 NA
ATOM     11  C   UNL     1       2.473   1.311  20.525  0.00  0.00    +0.000 C 
ATOM     12  C   UNL     1       1.854   3.549  19.611  0.00  0.00    +0.000 C 
ATOM     13  C   UNL     1       1.507   4.649  20.706  0.00  0.00    +0.000 C 
ATOM     14  C   UNL     1       2.388   4.187  18.248  0.00  0.00    +0.000 C 
ATOM     15  C   UNL     1       1.163   4.731  17.471  0.00  0.00    +0.000 C 
ENDROOT
BRANCH   7  16
ATOM     16  C   UNL     1       4.683   5.774  17.862  0.00  0.00    +0.000 A 
ATOM     17  C   UNL     1       5.901   6.023  18.592  0.00  0.00    +0.000 A 
ATOM     18  C   UNL     1       7.114   6.274  17.978  0.00  0.00    +0.000 A 
ATOM     19  C   UNL     1       7.149   6.355  16.600  0.00  0.00    +0.000 A 
ATOM     20  C   UNL     1       5.966   6.217  15.861  0.00  0.00    +0.000 A 
ATOM     21  C   UNL     1       4.735   5.922  16.482  0.00  0.00    +0.000 A 
ENDBRANCH   7  16
BRANCH   1  22
ATOM     22  O   UNL     1       1.868   9.826  18.436  0.00  0.00    +0.000 OA
BRANCH  22  23
ATOM     23  S   UNL     1       1.221  11.227  18.973  0.00  0.00    +0.000 S 
ATOM     24  O   UNL     1       1.723  12.305  18.130  0.00  0.00    +0.000 OA
ATOM     25  O   UNL     1       1.325  11.295  20.410  0.00  0.00    +0.000 OA
BRANCH  23  30
ATOM     26  C   UNL     1      -4.725  10.870  17.624  0.00  0.00    +0.000 C 
ATOM     27  C   UNL     1      -3.263  10.950  17.991  0.00  0.00    +0.000 A 
ATOM     28  C   UNL     1      -2.800  11.908  18.899  0.00  0.00    +0.000 A 
ATOM     29  C   UNL     1      -1.440  11.986  19.226  0.00  0.00    +0.000 A 
ATOM     30  C   UNL     1      -0.537  11.099  18.631  0.00  0.00    +0.000 A 
ATOM     31  C   UNL     1      -0.994  10.134  17.723  0.00  0.00    +0.000 A 
ATOM     32  C   UNL     1      -2.353  10.064  17.404  0.00  0.00    +0.000 A 
ENDBRANCH  23  30
ENDBRANCH  22  23
ENDBRANCH   1  22
TORSDOF 4
ENDMDL
MODEL 4
REMARK VINA RESULT:      -7.8      0.958      1.528
REMARK  Name = 
REMARK  7 active torsions:
REMARK  status: ('A' for Active; 'I' for Inactive)
REMARK    1  A    between atoms: C_1  and  C_2
REMARK    2  A    between atoms: C_5  and  S_6
REMARK    3  A    between atoms: S_6  and  O_9
REMARK    4  A    between atoms: O_9  and  C_10
REMARK    5  A    between atoms: C_16  and  C_17
REMARK    6  A    between atoms: N_25  and  C_26
REMARK    7  A    between atoms: C_29  and  C_30
REMARK                            x       y       z     vdW  Elec       q    Type
REMARK                         _______ _______ _______ _____ _____    ______ ____
ROOT
ATOM      1  C   UNL     1       1.876   7.995  19.714  0.00  0.00    +0.000 A 
ATOM      2  C   UNL     1       2.083   8.854  18.641  0.00  0.00    +0.000 A 
ATOM      3  C   UNL     1       2.902   8.451  17.565  0.00  0.00    +0.000 A 
ATOM      4  C   UNL     1       3.478   7.173  17.523  0.00  0.00    +0.000 A 
ATOM      5  C   UNL     1       3.062   6.232  18.469  0.00  0.00    +0.000 A 
ATOM      6  C   UNL     1       2.365   6.695  19.617  0.00  0.00    +0.000 A 
ATOM      7  C   UNL     1       3.565   4.772  18.337  0.00  0.00    +0.000 C 
ATOM      8  C   UNL     1       3.292   4.052  16.921  0.00  0.00    +0.000 C 
ATOM      9  C   UNL     1       4.550   3.469  16.284  0.00  0.00    +0.000 C 
ATOM     10  N   UNL     1       5.336   4.612  15.888  0.00  0.00    +0.000 NA
ATOM     11  C   UNL     1       6.480   4.323  15.054  0.00  0.00    +0.000 C 
ATOM     12  C   UNL     1       5.512   5.594  16.971  0.00  0.00    +0.000 C 
ATOM     13  C   UNL     1       4.597   6.829  16.563  0.00  0.00    +0.000 C 
ATOM     14  C   UNL     1       5.130   4.992  18.400  0.00  0.00    +0.000 C 
ATOM     15  C   UNL     1       5.725   5.929  19.480  0.00  0.00    +0.000 C 
ENDROOT
BRANCH   7  16
ATOM     16  C   UNL     1       2.677   3.865  19.204  0.00  0.00    +0.000 A 
ATOM     17  C   UNL     1       3.275   3.423  20.440  0.00  0.00    +0.000 A 
ATOM     18  C   UNL     1       2.551   2.852  21.470  0.00  0.00    +0.000 A 
ATOM     19  C   UNL     1       1.199   2.635  21.281  0.00  0.00    +0.000 A 
ATOM     20  C   UNL     1       0.603   2.961  20.056  0.00  0.00    +0.000 A 
ATOM     21  C   UNL     1       1.331   3.578  19.018  0.00  0.00    +0.000 A 
ENDBRANCH   7  16
BRANCH   1  22
ATOM     22  O   UNL     1       1.296   8.318  20.921  0.00  0.00    +0.000 OA
BRANCH  22  23
ATOM     23  S   UNL     1       0.704   9.804  21.248  0.00  0.00    +0.000 S 
ATOM     24  O   UNL     1       1.825  10.736  21.281  0.00  0.00    +0.000 OA
ATOM     25  O   UNL     1      -0.233   9.729  22.342  0.00  0.00    +0.000 OA
BRANCH  23  30
ATOM     26  C   UNL     1      -2.740  11.454  16.482  0.00  0.00    +0.000 C 
ATOM     27  C   UNL     1      -1.875  11.019  17.641  0.00  0.00    +0.000 A 
ATOM     28  C   UNL     1      -2.040   9.763  18.232  0.00  0.00    +0.000 A 
ATOM     29  C   UNL     1      -1.244   9.371  19.315  0.00  0.00    +0.000 A 
ATOM     30  C   UNL     1      -0.277  10.251  19.813  0.00  0.00    +0.000 A 
ATOM     31  C   UNL     1      -0.104  11.511  19.224  0.00  0.00    +0.000 A 
ATOM     32  C   UNL     1      -0.903  11.892  18.143  0.00  0.00    +0.000 A 
ENDBRANCH  23  30
ENDBRANCH  22  23
ENDBRANCH   1  22
TORSDOF 4
ENDMDL
MODEL 5
REMARK VINA RESULT:      -7.8      1.146      1.702
REMARK  Name = 
REMARK  7 active torsions:
REMARK  status: ('A' for Active; 'I' for Inactive)
REMARK    1  A    between atoms: C_1  and  C_2
REMARK    2  A    between atoms: C_5  and  S_6
REMARK    3  A    between atoms: S_6  and  O_9
REMARK    4  A    between atoms: O_9  and  C_10
REMARK    5  A    between atoms: C_16  and  C_17
REMARK    6  A    between atoms: N_25  and  C_26
REMARK    7  A    between atoms: C_29  and  C_30
REMARK                            x       y       z     vdW  Elec       q    Type
REMARK                         _______ _______ _______ _____ _____    ______ ____
ROOT
ATOM      1  C   UNL     1       1.961   8.398  19.611  0.00  0.00    +0.000 A 
ATOM      2  C   UNL     1       2.118   9.077  18.409  0.00  0.00    +0.000 A 
ATOM      3  C   UNL     1       2.841   8.483  17.353  0.00  0.00    +0.000 A 
ATOM      4  C   UNL     1       3.369   7.189  17.467  0.00  0.00    +0.000 A 
ATOM      5  C   UNL     1       2.993   6.418  18.570  0.00  0.00    +0.000 A 
ATOM      6  C   UNL     1       2.398   7.077  19.680  0.00  0.00    +0.000 A 
ATOM      7  C   UNL     1       3.435   4.934  18.627  0.00  0.00    +0.000 C 
ATOM      8  C   UNL     1       3.034   4.024  17.359  0.00  0.00    +0.000 C 
ATOM      9  C   UNL     1       4.222   3.297  16.733  0.00  0.00    +0.000 C 
ATOM     10  N   UNL     1       5.015   4.333  16.116  0.00  0.00    +0.000 NA
ATOM     11  C   UNL     1       6.084   3.873  15.260  0.00  0.00    +0.000 C 
ATOM     12  C   UNL     1       5.303   5.457  17.023  0.00  0.00    +0.000 C 
ATOM     13  C   UNL     1       4.402   6.657  16.496  0.00  0.00    +0.000 C 
ATOM     14  C   UNL     1       5.007   5.091  18.549  0.00  0.00    +0.000 C 
ATOM     15  C   UNL     1       5.711   6.152  19.433  0.00  0.00    +0.000 C 
ENDROOT
BRANCH   7  16
ATOM     16  C   UNL     1       2.583   4.206  19.680  0.00  0.00    +0.000 A 
ATOM     17  C   UNL     1       1.380   3.593  19.175  0.00  0.00    +0.000 A 
ATOM     18  C   UNL     1       0.645   2.667  19.892  0.00  0.00    +0.000 A 
ATOM     19  C   UNL     1       1.046   2.362  21.178  0.00  0.00    +0.000 A 
ATOM     20  C   UNL     1       2.154   3.013  21.738  0.00  0.00    +0.000 A 
ATOM     21  C   UNL     1       2.928   3.929  20.996  0.00  0.00    +0.000 A 
ENDBRANCH   7  16
BRANCH   1  22
ATOM     22  O   UNL     1       1.484   8.922  20.792  0.00  0.00    +0.000 OA
BRANCH  22  23
ATOM     23  S   UNL     1      -0.061   9.417  20.979  0.00  0.00    +0.000 S 
ATOM     24  O   UNL     1      -0.586   8.800  22.190  0.00  0.00    +0.000 OA
ATOM     25  O   UNL     1      -0.765   9.312  19.724  0.00  0.00    +0.000 OA
BRANCH  23  30
ATOM     26  C   UNL     1       0.471  15.373  22.221  0.00  0.00    +0.000 C 
ATOM     27  C   UNL     1       0.306  13.907  21.903  0.00  0.00    +0.000 A 
ATOM     28  C   UNL     1      -0.630  13.122  22.586  0.00  0.00    +0.000 A 
ATOM     29  C   UNL     1      -0.769  11.759  22.296  0.00  0.00    +0.000 A 
ATOM     30  C   UNL     1       0.043  11.177  21.317  0.00  0.00    +0.000 A 
ATOM     31  C   UNL     1       0.980  11.958  20.626  0.00  0.00    +0.000 A 
ATOM     32  C   UNL     1       1.111  13.317  20.922  0.00  0.00    +0.000 A 
ENDBRANCH  23  30
ENDBRANCH  22  23
ENDBRANCH   1  22
TORSDOF 4
ENDMDL
MODEL 6
REMARK VINA RESULT:      -7.7      1.053      1.452
REMARK  Name = 
REMARK  7 active torsions:
REMARK  status: ('A' for Active; 'I' for Inactive)
REMARK    1  A    between atoms: C_1  and  C_2
REMARK    2  A    between atoms: C_5  and  S_6
REMARK    3  A    between atoms: S_6  and  O_9
REMARK    4  A    between atoms: O_9  and  C_10
REMARK    5  A    between atoms: C_16  and  C_17
REMARK    6  A    between atoms: N_25  and  C_26
REMARK    7  A    between atoms: C_29  and  C_30
REMARK                            x       y       z     vdW  Elec       q    Type
REMARK                         _______ _______ _______ _____ _____    ______ ____
ROOT
ATOM      1  C   UNL     1       1.942   8.462  19.466  0.00  0.00    +0.000 A 
ATOM      2  C   UNL     1       2.118   9.112  18.250  0.00  0.00    +0.000 A 
ATOM      3  C   UNL     1       2.858   8.494  17.221  0.00  0.00    +0.000 A 
ATOM      4  C   UNL     1       3.387   7.204  17.374  0.00  0.00    +0.000 A 
ATOM      5  C   UNL     1       2.994   6.459  18.490  0.00  0.00    +0.000 A 
ATOM      6  C   UNL     1       2.380   7.144  19.573  0.00  0.00    +0.000 A 
ATOM      7  C   UNL     1       3.437   4.978  18.590  0.00  0.00    +0.000 C 
ATOM      8  C   UNL     1       3.059   4.036  17.338  0.00  0.00    +0.000 C 
ATOM      9  C   UNL     1       4.258   3.297  16.749  0.00  0.00    +0.000 C 
ATOM     10  N   UNL     1       5.059   4.320  16.120  0.00  0.00    +0.000 NA
ATOM     11  C   UNL     1       6.142   3.841  15.294  0.00  0.00    +0.000 C 
ATOM     12  C   UNL     1       5.330   5.465  17.005  0.00  0.00    +0.000 C 
ATOM     13  C   UNL     1       4.436   6.651  16.434  0.00  0.00    +0.000 C 
ATOM     14  C   UNL     1       5.010   5.136  18.534  0.00  0.00    +0.000 C 
ATOM     15  C   UNL     1       5.698   6.219  19.403  0.00  0.00    +0.000 C 
ENDROOT
BRANCH   7  16
ATOM     16  C   UNL     1       2.569   4.274  19.646  0.00  0.00    +0.000 A 
ATOM     17  C   UNL     1       1.381   3.637  19.136  0.00  0.00    +0.000 A 
ATOM     18  C   UNL     1       0.639   2.726  19.864  0.00  0.00    +0.000 A 
ATOM     19  C   UNL     1       1.016   2.462  21.166  0.00  0.00    +0.000 A 
ATOM     20  C   UNL     1       2.107   3.138  21.729  0.00  0.00    +0.000 A 
ATOM     21  C   UNL     1       2.889   4.038  20.977  0.00  0.00    +0.000 A 
ENDBRANCH   7  16
BRANCH   1  22
ATOM     22  O   UNL     1       1.444   9.013  20.625  0.00  0.00    +0.000 OA
BRANCH  22  23
ATOM     23  S   UNL     1       0.091   9.927  20.660  0.00  0.00    +0.000 S 
ATOM     24  O   UNL     1      -0.311  10.079  22.053  0.00  0.00    +0.000 OA
ATOM     25  O   UNL     1      -0.841   9.461  19.663  0.00  0.00    +0.000 OA
BRANCH  23  30
ATOM     26  C   UNL     1       1.925  15.380  18.612  0.00  0.00    +0.000 C 
ATOM     27  C   UNL     1       1.462  14.048  19.149  0.00  0.00    +0.000 A 
ATOM     28  C   UNL     1       2.060  13.479  20.278  0.00  0.00    +0.000 A 
ATOM     29  C   UNL     1       1.634  12.236  20.763  0.00  0.00    +0.000 A 
ATOM     30  C   UNL     1       0.604  11.555  20.105  0.00  0.00    +0.000 A 
ATOM     31  C   UNL     1      -0.002  12.121  18.975  0.00  0.00    +0.000 A 
ATOM     32  C   UNL     1       0.430  13.362  18.499  0.00  0.00    +0.000 A 
ENDBRANCH  23  30
ENDBRANCH  22  23
ENDBRANCH   1  22
TORSDOF 4
ENDMDL
MODEL 7
REMARK VINA RESULT:      -7.7      0.783      1.263
REMARK  Name = 
REMARK  7 active torsions:
REMARK  status: ('A' for Active; 'I' for Inactive)
REMARK    1  A    between atoms: C_1  and  C_2
REMARK    2  A    between atoms: C_5  and  S_6
REMARK    3  A    between atoms: S_6  and  O_9
REMARK    4  A    between atoms: O_9  and  C_10
REMARK    5  A    between atoms: C_16  and  C_17
REMARK    6  A    between atoms: N_25  and  C_26
REMARK    7  A    between atoms: C_29  and  C_30
REMARK                            x       y       z     vdW  Elec       q    Type
REMARK                         _______ _______ _______ _____ _____    ______ ____
ROOT
ATOM      1  C   UNL     1       1.790   7.599  19.796  0.00  0.00    +0.000 A 
ATOM      2  C   UNL     1       2.021   8.617  18.878  0.00  0.00    +0.000 A 
ATOM      3  C   UNL     1       2.935   8.418  17.822  0.00  0.00    +0.000 A 
ATOM      4  C   UNL     1       3.586   7.189  17.640  0.00  0.00    +0.000 A 
ATOM      5  C   UNL     1       3.162   6.099  18.405  0.00  0.00    +0.000 A 
ATOM      6  C   UNL     1       2.360   6.353  19.551  0.00  0.00    +0.000 A 
ATOM      7  C   UNL     1       3.757   4.701  18.103  0.00  0.00    +0.000 C 
ATOM      8  C   UNL     1       3.625   4.186  16.582  0.00  0.00    +0.000 C 
ATOM      9  C   UNL     1       4.957   3.765  15.966  0.00  0.00    +0.000 C 
ATOM     10  N   UNL     1       5.700   4.990  15.801  0.00  0.00    +0.000 NA
ATOM     11  C   UNL     1       6.914   4.883  15.026  0.00  0.00    +0.000 C 
ATOM     12  C   UNL     1       5.743   5.808  17.025  0.00  0.00    +0.000 C 
ATOM     13  C   UNL     1       4.787   7.045  16.730  0.00  0.00    +0.000 C 
ATOM     14  C   UNL     1       5.298   4.983  18.318  0.00  0.00    +0.000 C 
ATOM     15  C   UNL     1       5.761   5.777  19.565  0.00  0.00    +0.000 C 
ENDROOT
BRANCH   7  16
ATOM     16  C   UNL     1       2.865   3.634  18.759  0.00  0.00    +0.000 A 
ATOM     17  C   UNL     1       3.205   3.306  20.122  0.00  0.00    +0.000 A 
ATOM     18  C   UNL     1       2.365   2.599  20.962  0.00  0.00    +0.000 A 
ATOM     19  C   UNL     1       1.170   2.128  20.453  0.00  0.00    +0.000 A 
ATOM     20  C   UNL     1       0.852   2.342  19.106  0.00  0.00    +0.000 A 
ATOM     21  C   UNL     1       1.688   3.096  18.257  0.00  0.00    +0.000 A 
ENDBRANCH   7  16
BRANCH   1  22
ATOM     22  O   UNL     1       1.111   7.712  20.989  0.00  0.00    +0.000 OA
BRANCH  22  23
ATOM     23  S   UNL     1       1.108   9.080  21.880  0.00  0.00    +0.000 S 
ATOM     24  O   UNL     1       2.484   9.364  22.268  0.00  0.00    +0.000 OA
ATOM     25  O   UNL     1       0.054   9.023  22.863  0.00  0.00    +0.000 OA
BRANCH  23  30
ATOM     26  C   UNL     1      -0.571  13.637  18.176  0.00  0.00    +0.000 C 
ATOM     27  C   UNL     1      -0.154  12.489  19.063  0.00  0.00    +0.000 A 
ATOM     28  C   UNL     1      -0.961  11.355  19.200  0.00  0.00    +0.000 A 
ATOM     29  C   UNL     1      -0.576  10.298  20.036  0.00  0.00    +0.000 A 
ATOM     30  C   UNL     1       0.627  10.385  20.745  0.00  0.00    +0.000 A 
ATOM     31  C   UNL     1       1.442  11.517  20.610  0.00  0.00    +0.000 A 
ATOM     32  C   UNL     1       1.049  12.565  19.774  0.00  0.00    +0.000 A 
ENDBRANCH  23  30
ENDBRANCH  22  23
ENDBRANCH   1  22
TORSDOF 4
ENDMDL
MODEL 8
REMARK VINA RESULT:      -7.7      5.133      8.438
REMARK  Name = 
REMARK  7 active torsions:
REMARK  status: ('A' for Active; 'I' for Inactive)
REMARK    1  A    between atoms: C_1  and  C_2
REMARK    2  A    between atoms: C_5  and  S_6
REMARK    3  A    between atoms: S_6  and  O_9
REMARK    4  A    between atoms: O_9  and  C_10
REMARK    5  A    between atoms: C_16  and  C_17
REMARK    6  A    between atoms: N_25  and  C_26
REMARK    7  A    between atoms: C_29  and  C_30
REMARK                            x       y       z     vdW  Elec       q    Type
REMARK                         _______ _______ _______ _____ _____    ______ ____
ROOT
ATOM      1  C   UNL     1      -4.677  12.229  19.004  0.00  0.00    +0.000 A 
ATOM      2  C   UNL     1      -4.844  11.219  18.064  0.00  0.00    +0.000 A 
ATOM      3  C   UNL     1      -3.742  10.425  17.681  0.00  0.00    +0.000 A 
ATOM      4  C   UNL     1      -2.480  10.595  18.267  0.00  0.00    +0.000 A 
ATOM      5  C   UNL     1      -2.378  11.429  19.383  0.00  0.00    +0.000 A 
ATOM      6  C   UNL     1      -3.449  12.324  19.654  0.00  0.00    +0.000 A 
ATOM      7  C   UNL     1      -1.028  11.501  20.140  0.00  0.00    +0.000 C 
ATOM      8  C   UNL     1      -0.421  10.095  20.645  0.00  0.00    +0.000 C 
ATOM      9  C   UNL     1       1.012   9.850  20.181  0.00  0.00    +0.000 C 
ATOM     10  N   UNL     1       0.916   9.637  18.758  0.00  0.00    +0.000 NA
ATOM     11  C   UNL     1       2.120   9.160  18.117  0.00  0.00    +0.000 C 
ATOM     12  C   UNL     1       0.145  10.685  18.068  0.00  0.00    +0.000 C 
ATOM     13  C   UNL     1      -1.228   9.992  17.664  0.00  0.00    +0.000 C 
ATOM     14  C   UNL     1      -0.064  11.979  18.980  0.00  0.00    +0.000 C 
ATOM     15  C   UNL     1      -0.505  13.141  18.055  0.00  0.00    +0.000 C 
ENDROOT
BRANCH   7  16
ATOM     16  C   UNL     1      -1.269  12.129  21.522  0.00  0.00    +0.000 A 
ATOM     17  C   UNL     1      -0.501  13.319  21.796  0.00  0.00    +0.000 A 
ATOM     18  C   UNL     1      -0.783  14.177  22.843  0.00  0.00    +0.000 A 
ATOM     19  C   UNL     1      -1.808  13.845  23.707  0.00  0.00    +0.000 A 
ATOM     20  C   UNL     1      -2.512  12.646  23.530  0.00  0.00    +0.000 A 
ATOM     21  C   UNL     1      -2.253  11.789  22.441  0.00  0.00    +0.000 A 
ENDBRANCH   7  16
BRANCH   1  22
ATOM     22  O   UNL     1      -5.584  13.217  19.313  0.00  0.00    +0.000 OA
BRANCH  22  23
ATOM     23  S   UNL     1      -6.566  13.141  20.617  0.00  0.00    +0.000 S 
ATOM     24  O   UNL     1      -6.485  11.790  21.159  0.00  0.00    +0.000 OA
ATOM     25  O   UNL     1      -7.839  13.745  20.308  0.00  0.00    +0.000 OA
BRANCH  23  30
ATOM     26  C   UNL     1      -4.185  16.912  24.789  0.00  0.00    +0.000 C 
ATOM     27  C   UNL     1      -4.740  15.966  23.752  0.00  0.00    +0.000 A 
ATOM     28  C   UNL     1      -4.332  16.040  22.416  0.00  0.00    +0.000 A 
ATOM     29  C   UNL     1      -4.861  15.168  21.457  0.00  0.00    +0.000 A 
ATOM     30  C   UNL     1      -5.814  14.219  21.840  0.00  0.00    +0.000 A 
ATOM     31  C   UNL     1      -6.226  14.137  23.177  0.00  0.00    +0.000 A 
ATOM     32  C   UNL     1      -5.692  15.011  24.127  0.00  0.00    +0.000 A 
ENDBRANCH  23  30
ENDBRANCH  22  23
ENDBRANCH   1  22
TORSDOF 4
ENDMDL
MODEL 9
REMARK VINA RESULT:      -7.7      6.301      9.637
REMARK  Name = 
REMARK  7 active torsions:
REMARK  status: ('A' for Active; 'I' for Inactive)
REMARK    1  A    between atoms: C_1  and  C_2
REMARK    2  A    between atoms: C_5  and  S_6
REMARK    3  A    between atoms: S_6  and  O_9
REMARK    4  A    between atoms: O_9  and  C_10
REMARK    5  A    between atoms: C_16  and  C_17
REMARK    6  A    between atoms: N_25  and  C_26
REMARK    7  A    between atoms: C_29  and  C_30
REMARK                            x       y       z     vdW  Elec       q    Type
REMARK                         _______ _______ _______ _____ _____    ______ ____
ROOT
ATOM      1  C   UNL     1      -5.145  13.026  21.058  0.00  0.00    +0.000 A 
ATOM      2  C   UNL     1      -5.597  14.333  20.918  0.00  0.00    +0.000 A 
ATOM      3  C   UNL     1      -4.679  15.404  20.957  0.00  0.00    +0.000 A 
ATOM      4  C   UNL     1      -3.300  15.180  21.084  0.00  0.00    +0.000 A 
ATOM      5  C   UNL     1      -2.832  13.868  20.966  0.00  0.00    +0.000 A 
ATOM      6  C   UNL     1      -3.770  12.806  21.079  0.00  0.00    +0.000 A 
ATOM      7  C   UNL     1      -1.302  13.623  20.940  0.00  0.00    +0.000 C 
ATOM      8  C   UNL     1      -0.471  14.436  19.824  0.00  0.00    +0.000 C 
ATOM      9  C   UNL     1       0.692  15.240  20.399  0.00  0.00    +0.000 C 
ATOM     10  N   UNL     1       0.078  16.308  21.149  0.00  0.00    +0.000 NA
ATOM     11  C   UNL     1       0.975  17.343  21.607  0.00  0.00    +0.000 C 
ATOM     12  C   UNL     1      -0.955  15.836  22.086  0.00  0.00    +0.000 C 
ATOM     13  C   UNL     1      -2.337  16.291  21.445  0.00  0.00    +0.000 C 
ATOM     14  C   UNL     1      -0.877  14.259  22.324  0.00  0.00    +0.000 C 
ATOM     15  C   UNL     1      -1.700  13.934  23.597  0.00  0.00    +0.000 C 
ENDROOT
BRANCH   7  16
ATOM     16  C   UNL     1      -1.039  12.207  20.401  0.00  0.00    +0.000 A 
ATOM     17  C   UNL     1      -0.983  12.100  18.964  0.00  0.00    +0.000 A 
ATOM     18  C   UNL     1      -0.481  10.992  18.307  0.00  0.00    +0.000 A 
ATOM     19  C   UNL     1      -0.073   9.909  19.061  0.00  0.00    +0.000 A 
ATOM     20  C   UNL     1      -0.206   9.939  20.456  0.00  0.00    +0.000 A 
ATOM     21  C   UNL     1      -0.681  11.081  21.131  0.00  0.00    +0.000 A 
ENDBRANCH   7  16
BRANCH   1  22
ATOM     22  O   UNL     1      -5.923  11.909  21.261  0.00  0.00    +0.000 OA
BRANCH  22  23
ATOM     23  S   UNL     1      -6.811  11.221  20.075  0.00  0.00    +0.000 S 
ATOM     24  O   UNL     1      -7.843  12.172  19.679  0.00  0.00    +0.000 OA
ATOM     25  O   UNL     1      -7.147   9.866  20.437  0.00  0.00    +0.000 OA
BRANCH  23  30
ATOM     26  C   UNL     1      -2.875  10.793  15.424  0.00  0.00    +0.000 C 
ATOM     27  C   UNL     1      -3.875  10.892  16.551  0.00  0.00    +0.000 A 
ATOM     28  C   UNL     1      -4.858  11.887  16.557  0.00  0.00    +0.000 A 
ATOM     29  C   UNL     1      -5.774  11.982  17.612  0.00  0.00    +0.000 A 
ATOM     30  C   UNL     1      -5.699  11.075  18.674  0.00  0.00    +0.000 A 
ATOM     31  C   UNL     1      -4.718  10.073  18.673  0.00  0.00    +0.000 A 
ATOM     32  C   UNL     1      -3.809   9.986  17.616  0.00  0.00    +0.000 A 
ENDBRANCH  23  30
ENDBRANCH  22  23
ENDBRANCH   1  22
TORSDOF 4
ENDMDL
