MODEL 1
REMARK VINA RESULT:      -7.4      0.000      0.000
REMARK  Name = 
REMARK  11 active torsions:
REMARK  status: ('A' for Active; 'I' for Inactive)
REMARK    1  A    between atoms: C_1  and  O_2
REMARK    2  A    between atoms: O_2  and  C_3
REMARK    3  A    between atoms: C_6  and  S_7
REMARK    4  A    between atoms: S_7  and  N_10
REMARK    5  A    between atoms: N_10  and  C_11
REMARK    6  A    between atoms: C_11  and  C_12
REMARK    7  A    between atoms: C_12  and  C_13
REMARK    8  A    between atoms: C_12  and  S_18
REMARK    9  A    between atoms: S_18  and  C_21
REMARK   10  A    between atoms: C_28  and  O_29
REMARK   11  A    between atoms: O_29  and  C_30
REMARK                            x       y       z     vdW  Elec       q    Type
REMARK                         _______ _______ _______ _____ _____    ______ ____
ROOT
ATOM      1  C   UNL     1       4.313   5.302  18.968  0.00  0.00    +0.000 C 
ENDROOT
BRANCH   1   2
ATOM      2  N   UNL     1       3.355   6.313  19.485  0.00  0.00    +0.000 NA
ATOM      3  H   UNL     1       2.817   6.053  20.312  0.00  0.00    +0.000 HD
BRANCH   2   4
ATOM      4  S   UNL     1       2.488   7.315  18.450  0.00  0.00    +0.000 S 
ATOM      5  O   UNL     1       1.529   6.498  17.737  0.00  0.00    +0.000 OA
ATOM      6  O   UNL     1       3.449   8.151  17.765  0.00  0.00    +0.000 OA
BRANCH   4  10
ATOM      7  C   UNL     1       0.566  10.160  21.423  0.00  0.00    +0.000 A 
ATOM      8  C   UNL     1       0.974   8.878  21.837  0.00  0.00    +0.000 A 
ATOM      9  C   UNL     1       1.519   7.974  20.931  0.00  0.00    +0.000 A 
ATOM     10  C   UNL     1       1.599   8.333  19.590  0.00  0.00    +0.000 A 
ATOM     11  C   UNL     1       1.088   9.551  19.144  0.00  0.00    +0.000 A 
ATOM     12  C   UNL     1       0.573  10.482  20.055  0.00  0.00    +0.000 A 
BRANCH   7  14
ATOM     13  C   UNL     1      -1.044  10.760  23.047  0.00  0.00    +0.000 C 
ATOM     14  O   UNL     1       0.155  11.089  22.340  0.00  0.00    +0.000 OA
ENDBRANCH   7  14
BRANCH  12  15
ATOM     15  O   UNL     1       0.180  11.634  19.431  0.00  0.00    +0.000 OA
ATOM     16  C   UNL     1      -1.194  11.828  19.136  0.00  0.00    +0.000 C 
ENDBRANCH  12  15
ENDBRANCH   4  10
ENDBRANCH   2   4
ENDBRANCH   1   2
BRANCH   1  17
ATOM     17  C   UNL     1       4.056   4.848  17.526  0.00  0.00    +0.000 C 
BRANCH  17  18
ATOM     18  C   UNL     1       5.283   4.812  16.638  0.00  0.00    +0.000 A 
ATOM     19  C   UNL     1       5.309   4.790  15.253  0.00  0.00    +0.000 A 
ATOM     20  C   UNL     1       6.632   4.806  14.728  0.00  0.00    +0.000 A 
ATOM     21  C   UNL     1       7.579   4.871  15.722  0.00  0.00    +0.000 A 
ATOM     22  S   UNL     1       6.877   4.839  17.276  0.00  0.00    +0.000 S 
ENDBRANCH  17  18
BRANCH  17  23
ATOM     23  S   UNL     1       3.254   3.239  17.584  0.00  0.00    +0.000 S 
ATOM     24  O   UNL     1       2.151   3.206  16.645  0.00  0.00    +0.000 OA
ATOM     25  O   UNL     1       4.301   2.233  17.493  0.00  0.00    +0.000 OA
BRANCH  23  26
ATOM     26  C   UNL     1       2.577   3.101  19.225  0.00  0.00    +0.000 A 
ATOM     27  C   UNL     1       1.244   3.449  19.450  0.00  0.00    +0.000 A 
ATOM     28  C   UNL     1       0.710   3.325  20.733  0.00  0.00    +0.000 A 
ATOM     29  C   UNL     1       1.499   2.833  21.774  0.00  0.00    +0.000 A 
ATOM     30  C   UNL     1       2.823   2.459  21.535  0.00  0.00    +0.000 A 
ATOM     31  C   UNL     1       3.367   2.591  20.259  0.00  0.00    +0.000 A 
ENDBRANCH  23  26
ENDBRANCH  17  23
ENDBRANCH   1  17
TORSDOF 9
ENDMDL
MODEL 2
REMARK VINA RESULT:      -7.3      2.089      4.600
REMARK  Name = 
REMARK  11 active torsions:
REMARK  status: ('A' for Active; 'I' for Inactive)
REMARK    1  A    between atoms: C_1  and  O_2
REMARK    2  A    between atoms: O_2  and  C_3
REMARK    3  A    between atoms: C_6  and  S_7
REMARK    4  A    between atoms: S_7  and  N_10
REMARK    5  A    between atoms: N_10  and  C_11
REMARK    6  A    between atoms: C_11  and  C_12
REMARK    7  A    between atoms: C_12  and  C_13
REMARK    8  A    between atoms: C_12  and  S_18
REMARK    9  A    between atoms: S_18  and  C_21
REMARK   10  A    between atoms: C_28  and  O_29
REMARK   11  A    between atoms: O_29  and  C_30
REMARK                            x       y       z     vdW  Elec       q    Type
REMARK                         _______ _______ _______ _____ _____    ______ ____
ROOT
ATOM      1  C   UNL     1       2.776   6.587  18.365  0.00  0.00    +0.000 C 
ENDROOT
BRANCH   1   2
ATOM      2  N   UNL     1       2.272   7.749  19.143  0.00  0.00    +0.000 NA
ATOM      3  H   UNL     1       1.820   7.542  20.034  0.00  0.00    +0.000 HD
BRANCH   2   4
ATOM      4  S   UNL     1       1.601   9.092  18.386  0.00  0.00    +0.000 S 
ATOM      5  O   UNL     1       0.640   8.622  17.412  0.00  0.00    +0.000 OA
ATOM      6  O   UNL     1       2.696   9.967  18.028  0.00  0.00    +0.000 OA
BRANCH   4  10
ATOM      7  C   UNL     1      -0.302  11.155  21.956  0.00  0.00    +0.000 A 
ATOM      8  C   UNL     1      -0.204   9.752  21.923  0.00  0.00    +0.000 A 
ATOM      9  C   UNL     1       0.330   9.098  20.817  0.00  0.00    +0.000 A 
ATOM     10  C   UNL     1       0.712   9.850  19.712  0.00  0.00    +0.000 A 
ATOM     11  C   UNL     1       0.508  11.229  19.681  0.00  0.00    +0.000 A 
ATOM     12  C   UNL     1       0.006  11.899  20.804  0.00  0.00    +0.000 A 
BRANCH   7  14
ATOM     13  C   UNL     1      -2.109  11.748  23.360  0.00  0.00    +0.000 C 
ATOM     14  O   UNL     1      -0.705  11.799  23.095  0.00  0.00    +0.000 OA
ENDBRANCH   7  14
BRANCH  12  15
ATOM     15  O   UNL     1      -0.063  13.249  20.596  0.00  0.00    +0.000 OA
ATOM     16  C   UNL     1       0.682  13.826  19.535  0.00  0.00    +0.000 C 
ENDBRANCH  12  15
ENDBRANCH   4  10
ENDBRANCH   2   4
ENDBRANCH   1   2
BRANCH   1  17
ATOM     17  C   UNL     1       3.458   5.498  19.202  0.00  0.00    +0.000 C 
BRANCH  17  18
ATOM     18  C   UNL     1       2.524   4.448  19.767  0.00  0.00    +0.000 A 
ATOM     19  C   UNL     1       2.360   4.110  21.101  0.00  0.00    +0.000 A 
ATOM     20  C   UNL     1       1.364   3.112  21.296  0.00  0.00    +0.000 A 
ATOM     21  C   UNL     1       0.772   2.738  20.113  0.00  0.00    +0.000 A 
ATOM     22  S   UNL     1       1.465   3.531  18.773  0.00  0.00    +0.000 S 
ENDBRANCH  17  18
BRANCH  17  23
ATOM     23  S   UNL     1       4.741   4.743  18.192  0.00  0.00    +0.000 S 
ATOM     24  O   UNL     1       5.196   3.515  18.813  0.00  0.00    +0.000 OA
ATOM     25  O   UNL     1       4.248   4.712  16.823  0.00  0.00    +0.000 OA
BRANCH  23  26
ATOM     26  C   UNL     1       6.097   5.896  18.202  0.00  0.00    +0.000 A 
ATOM     27  C   UNL     1       7.166   5.691  19.078  0.00  0.00    +0.000 A 
ATOM     28  C   UNL     1       8.236   6.586  19.074  0.00  0.00    +0.000 A 
ATOM     29  C   UNL     1       8.247   7.660  18.182  0.00  0.00    +0.000 A 
ATOM     30  C   UNL     1       7.189   7.842  17.289  0.00  0.00    +0.000 A 
ATOM     31  C   UNL     1       6.110   6.959  17.295  0.00  0.00    +0.000 A 
ENDBRANCH  23  26
ENDBRANCH  17  23
ENDBRANCH   1  17
TORSDOF 9
ENDMDL
MODEL 3
REMARK VINA RESULT:      -7.3      2.611      3.864
REMARK  Name = 
REMARK  11 active torsions:
REMARK  status: ('A' for Active; 'I' for Inactive)
REMARK    1  A    between atoms: C_1  and  O_2
REMARK    2  A    between atoms: O_2  and  C_3
REMARK    3  A    between atoms: C_6  and  S_7
REMARK    4  A    between atoms: S_7  and  N_10
REMARK    5  A    between atoms: N_10  and  C_11
REMARK    6  A    between atoms: C_11  and  C_12
REMARK    7  A    between atoms: C_12  and  C_13
REMARK    8  A    between atoms: C_12  and  S_18
REMARK    9  A    between atoms: S_18  and  C_21
REMARK   10  A    between atoms: C_28  and  O_29
REMARK   11  A    between atoms: O_29  and  C_30
REMARK                            x       y       z     vdW  Elec       q    Type
REMARK                         _______ _______ _______ _____ _____    ______ ____
ROOT
ATOM      1  C   UNL     1       2.828   8.077  17.799  0.00  0.00    +0.000 C 
ENDROOT
BRANCH   1   2
ATOM      2  N   UNL     1       1.470   8.615  18.075  0.00  0.00    +0.000 NA
ATOM      3  H   UNL     1       0.746   8.406  17.387  0.00  0.00    +0.000 HD
BRANCH   2   4
ATOM      4  S   UNL     1       1.249  10.119  18.796  0.00  0.00    +0.000 S 
ATOM      5  O   UNL     1       2.023  11.089  18.051  0.00  0.00    +0.000 OA
ATOM      6  O   UNL     1       1.411   9.933  20.221  0.00  0.00    +0.000 OA
BRANCH   4  10
ATOM      7  C   UNL     1      -3.023  11.180  17.679  0.00  0.00    +0.000 A 
ATOM      8  C   UNL     1      -2.444  11.719  18.844  0.00  0.00    +0.000 A 
ATOM      9  C   UNL     1      -1.155  11.368  19.230  0.00  0.00    +0.000 A 
ATOM     10  C   UNL     1      -0.463  10.424  18.479  0.00  0.00    +0.000 A 
ATOM     11  C   UNL     1      -1.068   9.791  17.394  0.00  0.00    +0.000 A 
ATOM     12  C   UNL     1      -2.350  10.166  16.976  0.00  0.00    +0.000 A 
BRANCH   7  14
ATOM     13  C   UNL     1      -5.373  11.099  17.922  0.00  0.00    +0.000 C 
ATOM     14  O   UNL     1      -4.237  11.629  17.234  0.00  0.00    +0.000 OA
ENDBRANCH   7  14
BRANCH  12  15
ATOM     15  O   UNL     1      -2.740   9.475  15.862  0.00  0.00    +0.000 OA
ATOM     16  C   UNL     1      -2.922  10.174  14.641  0.00  0.00    +0.000 C 
ENDBRANCH  12  15
ENDBRANCH   4  10
ENDBRANCH   2   4
ENDBRANCH   1   2
BRANCH   1  17
ATOM     17  C   UNL     1       2.938   6.548  17.853  0.00  0.00    +0.000 C 
BRANCH  17  18
ATOM     18  C   UNL     1       4.128   5.967  17.118  0.00  0.00    +0.000 A 
ATOM     19  C   UNL     1       4.248   4.683  16.611  0.00  0.00    +0.000 A 
ATOM     20  C   UNL     1       5.481   4.474  15.931  0.00  0.00    +0.000 A 
ATOM     21  C   UNL     1       6.256   5.609  15.910  0.00  0.00    +0.000 A 
ATOM     22  S   UNL     1       5.531   6.893  16.766  0.00  0.00    +0.000 S 
ENDBRANCH  17  18
BRANCH  17  23
ATOM     23  S   UNL     1       2.943   6.052  19.582  0.00  0.00    +0.000 S 
ATOM     24  O   UNL     1       4.305   5.833  20.027  0.00  0.00    +0.000 OA
ATOM     25  O   UNL     1       2.098   6.994  20.302  0.00  0.00    +0.000 OA
BRANCH  23  26
ATOM     26  C   UNL     1       2.095   4.488  19.633  0.00  0.00    +0.000 A 
ATOM     27  C   UNL     1       1.961   3.819  20.852  0.00  0.00    +0.000 A 
ATOM     28  C   UNL     1       1.281   2.601  20.893  0.00  0.00    +0.000 A 
ATOM     29  C   UNL     1       0.719   2.073  19.730  0.00  0.00    +0.000 A 
ATOM     30  C   UNL     1       0.832   2.762  18.521  0.00  0.00    +0.000 A 
ATOM     31  C   UNL     1       1.519   3.973  18.468  0.00  0.00    +0.000 A 
ENDBRANCH  23  26
ENDBRANCH  17  23
ENDBRANCH   1  17
TORSDOF 9
ENDMDL
MODEL 4
REMARK VINA RESULT:      -7.2      2.514      3.683
REMARK  Name = 
REMARK  11 active torsions:
REMARK  status: ('A' for Active; 'I' for Inactive)
REMARK    1  A    between atoms: C_1  and  O_2
REMARK    2  A    between atoms: O_2  and  C_3
REMARK    3  A    between atoms: C_6  and  S_7
REMARK    4  A    between atoms: S_7  and  N_10
REMARK    5  A    between atoms: N_10  and  C_11
REMARK    6  A    between atoms: C_11  and  C_12
REMARK    7  A    between atoms: C_12  and  C_13
REMARK    8  A    between atoms: C_12  and  S_18
REMARK    9  A    between atoms: S_18  and  C_21
REMARK   10  A    between atoms: C_28  and  O_29
REMARK   11  A    between atoms: O_29  and  C_30
REMARK                            x       y       z     vdW  Elec       q    Type
REMARK                         _______ _______ _______ _____ _____    ______ ____
ROOT
ATOM      1  C   UNL     1       2.978   8.017  17.785  0.00  0.00    +0.000 C 
ENDROOT
BRANCH   1   2
ATOM      2  N   UNL     1       1.605   8.550  17.980  0.00  0.00    +0.000 NA
ATOM      3  H   UNL     1       0.928   8.354  17.242  0.00  0.00    +0.000 HD
BRANCH   2   4
ATOM      4  S   UNL     1       1.334  10.040  18.712  0.00  0.00    +0.000 S 
ATOM      5  O   UNL     1       2.179  11.018  18.059  0.00  0.00    +0.000 OA
ATOM      6  O   UNL     1       1.369   9.823  20.141  0.00  0.00    +0.000 OA
BRANCH   4  10
ATOM      7  C   UNL     1      -3.087  10.629  17.856  0.00  0.00    +0.000 A 
ATOM      8  C   UNL     1      -2.320   9.774  17.043  0.00  0.00    +0.000 A 
ATOM      9  C   UNL     1      -0.954   9.618  17.258  0.00  0.00    +0.000 A 
ATOM     10  C   UNL     1      -0.341  10.371  18.253  0.00  0.00    +0.000 A 
ATOM     11  C   UNL     1      -1.064  11.312  18.985  0.00  0.00    +0.000 A 
ATOM     12  C   UNL     1      -2.445  11.447  18.802  0.00  0.00    +0.000 A 
BRANCH   7  14
ATOM     13  C   UNL     1      -4.943  11.714  16.875  0.00  0.00    +0.000 C 
ATOM     14  O   UNL     1      -4.448  10.677  17.726  0.00  0.00    +0.000 OA
ENDBRANCH   7  14
BRANCH  12  15
ATOM     15  O   UNL     1      -2.978  12.375  19.654  0.00  0.00    +0.000 OA
ATOM     16  C   UNL     1      -2.111  13.259  20.347  0.00  0.00    +0.000 C 
ENDBRANCH  12  15
ENDBRANCH   4  10
ENDBRANCH   2   4
ENDBRANCH   1   2
BRANCH   1  17
ATOM     17  C   UNL     1       3.088   6.488  17.831  0.00  0.00    +0.000 C 
BRANCH  17  18
ATOM     18  C   UNL     1       4.273   5.910  17.085  0.00  0.00    +0.000 A 
ATOM     19  C   UNL     1       4.364   4.651  16.514  0.00  0.00    +0.000 A 
ATOM     20  C   UNL     1       5.602   4.440  15.843  0.00  0.00    +0.000 A 
ATOM     21  C   UNL     1       6.410   5.551  15.893  0.00  0.00    +0.000 A 
ATOM     22  S   UNL     1       5.708   6.810  16.804  0.00  0.00    +0.000 S 
ENDBRANCH  17  18
BRANCH  17  23
ATOM     23  S   UNL     1       3.105   5.983  19.557  0.00  0.00    +0.000 S 
ATOM     24  O   UNL     1       4.462   5.688  19.970  0.00  0.00    +0.000 OA
ATOM     25  O   UNL     1       2.329   6.966  20.300  0.00  0.00    +0.000 OA
BRANCH  23  26
ATOM     26  C   UNL     1       2.173   4.468  19.622  0.00  0.00    +0.000 A 
ATOM     27  C   UNL     1       2.022   3.806  20.842  0.00  0.00    +0.000 A 
ATOM     28  C   UNL     1       1.278   2.627  20.894  0.00  0.00    +0.000 A 
ATOM     29  C   UNL     1       0.670   2.131  19.740  0.00  0.00    +0.000 A 
ATOM     30  C   UNL     1       0.801   2.814  18.529  0.00  0.00    +0.000 A 
ATOM     31  C   UNL     1       1.552   3.986  18.465  0.00  0.00    +0.000 A 
ENDBRANCH  23  26
ENDBRANCH  17  23
ENDBRANCH   1  17
TORSDOF 9
ENDMDL
MODEL 5
REMARK VINA RESULT:      -7.2      0.900      1.319
REMARK  Name = 
REMARK  11 active torsions:
REMARK  status: ('A' for Active; 'I' for Inactive)
REMARK    1  A    between atoms: C_1  and  O_2
REMARK    2  A    between atoms: O_2  and  C_3
REMARK    3  A    between atoms: C_6  and  S_7
REMARK    4  A    between atoms: S_7  and  N_10
REMARK    5  A    between atoms: N_10  and  C_11
REMARK    6  A    between atoms: C_11  and  C_12
REMARK    7  A    between atoms: C_12  and  C_13
REMARK    8  A    between atoms: C_12  and  S_18
REMARK    9  A    between atoms: S_18  and  C_21
REMARK   10  A    between atoms: C_28  and  O_29
REMARK   11  A    between atoms: O_29  and  C_30
REMARK                            x       y       z     vdW  Elec       q    Type
REMARK                         _______ _______ _______ _____ _____    ______ ____
ROOT
ATOM      1  C   UNL     1       4.877   5.649  18.913  0.00  0.00    +0.000 C 
ENDROOT
BRANCH   1   2
ATOM      2  N   UNL     1       3.731   6.419  19.463  0.00  0.00    +0.000 NA
ATOM      3  H   UNL     1       3.328   6.079  20.336  0.00  0.00    +0.000 HD
BRANCH   2   4
ATOM      4  S   UNL     1       2.578   7.121  18.459  0.00  0.00    +0.000 S 
ATOM      5  O   UNL     1       1.664   6.082  18.036  0.00  0.00    +0.000 OA
ATOM      6  O   UNL     1       3.290   7.953  17.514  0.00  0.00    +0.000 OA
BRANCH   4  10
ATOM      7  C   UNL     1       0.744  10.061  21.394  0.00  0.00    +0.000 A 
ATOM      8  C   UNL     1       1.066   8.757  21.812  0.00  0.00    +0.000 A 
ATOM      9  C   UNL     1       1.583   7.825  20.917  0.00  0.00    +0.000 A 
ATOM     10  C   UNL     1       1.720   8.184  19.580  0.00  0.00    +0.000 A 
ATOM     11  C   UNL     1       1.291   9.431  19.127  0.00  0.00    +0.000 A 
ATOM     12  C   UNL     1       0.806  10.387  20.028  0.00  0.00    +0.000 A 
BRANCH   7  14
ATOM     13  C   UNL     1      -1.031  11.025  22.621  0.00  0.00    +0.000 C 
ATOM     14  O   UNL     1       0.363  11.010  22.304  0.00  0.00    +0.000 OA
ENDBRANCH   7  14
BRANCH  12  15
ATOM     15  O   UNL     1       0.497  11.561  19.399  0.00  0.00    +0.000 OA
ATOM     16  C   UNL     1       1.460  12.603  19.363  0.00  0.00    +0.000 C 
ENDBRANCH  12  15
ENDBRANCH   4  10
ENDBRANCH   2   4
ENDBRANCH   1   2
BRANCH   1  17
ATOM     17  C   UNL     1       4.514   4.662  17.797  0.00  0.00    +0.000 C 
BRANCH  17  18
ATOM     18  C   UNL     1       5.455   4.665  16.610  0.00  0.00    +0.000 A 
ATOM     19  C   UNL     1       5.106   4.653  15.269  0.00  0.00    +0.000 A 
ATOM     20  C   UNL     1       6.236   4.708  14.406  0.00  0.00    +0.000 A 
ATOM     21  C   UNL     1       7.415   4.793  15.108  0.00  0.00    +0.000 A 
ATOM     22  S   UNL     1       7.161   4.732  16.792  0.00  0.00    +0.000 S 
ENDBRANCH  17  18
BRANCH  17  23
ATOM     23  S   UNL     1       4.396   3.021  18.523  0.00  0.00    +0.000 S 
ATOM     24  O   UNL     1       4.440   2.017  17.479  0.00  0.00    +0.000 OA
ATOM     25  O   UNL     1       5.361   2.962  19.612  0.00  0.00    +0.000 OA
BRANCH  23  26
ATOM     26  C   UNL     1       2.788   2.948  19.283  0.00  0.00    +0.000 A 
ATOM     27  C   UNL     1       2.666   3.177  20.655  0.00  0.00    +0.000 A 
ATOM     28  C   UNL     1       1.404   3.136  21.247  0.00  0.00    +0.000 A 
ATOM     29  C   UNL     1       0.272   2.893  20.466  0.00  0.00    +0.000 A 
ATOM     30  C   UNL     1       0.399   2.693  19.090  0.00  0.00    +0.000 A 
ATOM     31  C   UNL     1       1.657   2.721  18.493  0.00  0.00    +0.000 A 
ENDBRANCH  23  26
ENDBRANCH  17  23
ENDBRANCH   1  17
TORSDOF 9
ENDMDL
MODEL 6
REMARK VINA RESULT:      -7.2      2.255      5.020
REMARK  Name = 
REMARK  11 active torsions:
REMARK  status: ('A' for Active; 'I' for Inactive)
REMARK    1  A    between atoms: C_1  and  O_2
REMARK    2  A    between atoms: O_2  and  C_3
REMARK    3  A    between atoms: C_6  and  S_7
REMARK    4  A    between atoms: S_7  and  N_10
REMARK    5  A    between atoms: N_10  and  C_11
REMARK    6  A    between atoms: C_11  and  C_12
REMARK    7  A    between atoms: C_12  and  C_13
REMARK    8  A    between atoms: C_12  and  S_18
REMARK    9  A    between atoms: S_18  and  C_21
REMARK   10  A    between atoms: C_28  and  O_29
REMARK   11  A    between atoms: O_29  and  C_30
REMARK                            x       y       z     vdW  Elec       q    Type
REMARK                         _______ _______ _______ _____ _____    ______ ____
ROOT
ATOM      1  C   UNL     1       1.847   7.123  19.673  0.00  0.00    +0.000 C 
ENDROOT
BRANCH   1   2
ATOM      2  N   UNL     1       2.056   8.273  20.591  0.00  0.00    +0.000 NA
ATOM      3  H   UNL     1       2.974   8.346  21.031  0.00  0.00    +0.000 HD
BRANCH   2   4
ATOM      4  S   UNL     1       0.825   8.840  21.587  0.00  0.00    +0.000 S 
ATOM      5  O   UNL     1       1.424   9.292  22.824  0.00  0.00    +0.000 OA
ATOM      6  O   UNL     1      -0.231   7.853  21.558  0.00  0.00    +0.000 OA
BRANCH   4  10
ATOM      7  C   UNL     1      -0.288  12.424  19.029  0.00  0.00    +0.000 A 
ATOM      8  C   UNL     1       0.379  12.612  20.255  0.00  0.00    +0.000 A 
ATOM      9  C   UNL     1       0.684  11.532  21.076  0.00  0.00    +0.000 A 
ATOM     10  C   UNL     1       0.265  10.261  20.697  0.00  0.00    +0.000 A 
ATOM     11  C   UNL     1      -0.501  10.074  19.548  0.00  0.00    +0.000 A 
ATOM     12  C   UNL     1      -0.780  11.150  18.696  0.00  0.00    +0.000 A 
BRANCH   7  14
ATOM     13  C   UNL     1      -0.141  14.759  18.694  0.00  0.00    +0.000 C 
ATOM     14  O   UNL     1      -0.467  13.470  18.166  0.00  0.00    +0.000 OA
ENDBRANCH   7  14
BRANCH  12  15
ATOM     15  O   UNL     1      -1.489  10.752  17.597  0.00  0.00    +0.000 OA
ATOM     16  C   UNL     1      -2.653   9.958  17.772  0.00  0.00    +0.000 C 
ENDBRANCH  12  15
ENDBRANCH   4  10
ENDBRANCH   2   4
ENDBRANCH   1   2
BRANCH   1  17
ATOM     17  C   UNL     1       2.941   6.049  19.725  0.00  0.00    +0.000 C 
BRANCH  17  18
ATOM     18  C   UNL     1       2.501   4.716  20.295  0.00  0.00    +0.000 A 
ATOM     19  C   UNL     1       3.295   3.786  20.946  0.00  0.00    +0.000 A 
ATOM     20  C   UNL     1       2.558   2.656  21.401  0.00  0.00    +0.000 A 
ATOM     21  C   UNL     1       1.218   2.767  21.113  0.00  0.00    +0.000 A 
ATOM     22  S   UNL     1       0.868   4.188  20.238  0.00  0.00    +0.000 S 
ENDBRANCH  17  18
BRANCH  17  23
ATOM     23  S   UNL     1       3.607   5.853  18.066  0.00  0.00    +0.000 S 
ATOM     24  O   UNL     1       3.380   4.499  17.602  0.00  0.00    +0.000 OA
ATOM     25  O   UNL     1       3.120   6.972  17.272  0.00  0.00    +0.000 OA
BRANCH  23  26
ATOM     26  C   UNL     1       5.364   6.089  18.225  0.00  0.00    +0.000 A 
ATOM     27  C   UNL     1       6.017   6.984  17.375  0.00  0.00    +0.000 A 
ATOM     28  C   UNL     1       7.391   7.180  17.511  0.00  0.00    +0.000 A 
ATOM     29  C   UNL     1       8.100   6.505  18.506  0.00  0.00    +0.000 A 
ATOM     30  C   UNL     1       7.435   5.633  19.371  0.00  0.00    +0.000 A 
ATOM     31  C   UNL     1       6.065   5.423  19.235  0.00  0.00    +0.000 A 
ENDBRANCH  23  26
ENDBRANCH  17  23
ENDBRANCH   1  17
TORSDOF 9
ENDMDL
MODEL 7
REMARK VINA RESULT:      -7.2      1.046      1.132
REMARK  Name = 
REMARK  11 active torsions:
REMARK  status: ('A' for Active; 'I' for Inactive)
REMARK    1  A    between atoms: C_1  and  O_2
REMARK    2  A    between atoms: O_2  and  C_3
REMARK    3  A    between atoms: C_6  and  S_7
REMARK    4  A    between atoms: S_7  and  N_10
REMARK    5  A    between atoms: N_10  and  C_11
REMARK    6  A    between atoms: C_11  and  C_12
REMARK    7  A    between atoms: C_12  and  C_13
REMARK    8  A    between atoms: C_12  and  S_18
REMARK    9  A    between atoms: S_18  and  C_21
REMARK   10  A    between atoms: C_28  and  O_29
REMARK   11  A    between atoms: O_29  and  C_30
REMARK                            x       y       z     vdW  Elec       q    Type
REMARK                         _______ _______ _______ _____ _____    ______ ____
ROOT
ATOM      1  C   UNL     1       3.423   6.193  18.932  0.00  0.00    +0.000 C 
ENDROOT
BRANCH   1   2
ATOM      2  N   UNL     1       2.152   6.915  19.200  0.00  0.00    +0.000 NA
ATOM      3  H   UNL     1       1.313   6.343  19.302  0.00  0.00    +0.000 HD
BRANCH   2   4
ATOM      4  S   UNL     1       1.823   8.408  18.500  0.00  0.00    +0.000 S 
ATOM      5  O   UNL     1       0.889   8.197  17.415  0.00  0.00    +0.000 OA
ATOM      6  O   UNL     1       3.093   9.073  18.305  0.00  0.00    +0.000 OA
BRANCH   4  10
ATOM      7  C   UNL     1      -0.042  10.823  21.864  0.00  0.00    +0.000 A 
ATOM      8  C   UNL     1       0.586   9.595  22.142  0.00  0.00    +0.000 A 
ATOM      9  C   UNL     1       1.120   8.816  21.120  0.00  0.00    +0.000 A 
ATOM     10  C   UNL     1       0.969   9.241  19.805  0.00  0.00    +0.000 A 
ATOM     11  C   UNL     1       0.243  10.393  19.504  0.00  0.00    +0.000 A 
ATOM     12  C   UNL     1      -0.264  11.201  20.528  0.00  0.00    +0.000 A 
BRANCH   7  14
ATOM     13  C   UNL     1      -1.843  11.602  23.180  0.00  0.00    +0.000 C 
ATOM     14  O   UNL     1      -0.446  11.645  22.881  0.00  0.00    +0.000 OA
ENDBRANCH   7  14
BRANCH  12  15
ATOM     15  O   UNL     1      -0.888  12.312  20.031  0.00  0.00    +0.000 OA
ATOM     16  C   UNL     1      -1.939  12.153  19.091  0.00  0.00    +0.000 C 
ENDBRANCH  12  15
ENDBRANCH   4  10
ENDBRANCH   2   4
ENDBRANCH   1   2
BRANCH   1  17
ATOM     17  C   UNL     1       3.512   5.534  17.550  0.00  0.00    +0.000 C 
BRANCH  17  18
ATOM     18  C   UNL     1       4.910   5.149  17.114  0.00  0.00    +0.000 A 
ATOM     19  C   UNL     1       5.390   5.087  15.816  0.00  0.00    +0.000 A 
ATOM     20  C   UNL     1       6.769   4.736  15.756  0.00  0.00    +0.000 A 
ATOM     21  C   UNL     1       7.312   4.569  17.008  0.00  0.00    +0.000 A 
ATOM     22  S   UNL     1       6.149   4.764  18.239  0.00  0.00    +0.000 S 
ENDBRANCH  17  18
BRANCH  17  23
ATOM     23  S   UNL     1       2.418   4.107  17.544  0.00  0.00    +0.000 S 
ATOM     24  O   UNL     1       1.068   4.523  17.223  0.00  0.00    +0.000 OA
ATOM     25  O   UNL     1       3.059   3.077  16.739  0.00  0.00    +0.000 OA
BRANCH  23  26
ATOM     26  C   UNL     1       2.417   3.497  19.216  0.00  0.00    +0.000 A 
ATOM     27  C   UNL     1       1.266   3.631  19.996  0.00  0.00    +0.000 A 
ATOM     28  C   UNL     1       1.262   3.138  21.301  0.00  0.00    +0.000 A 
ATOM     29  C   UNL     1       2.392   2.495  21.811  0.00  0.00    +0.000 A 
ATOM     30  C   UNL     1       3.529   2.339  21.015  0.00  0.00    +0.000 A 
ATOM     31  C   UNL     1       3.546   2.839  19.715  0.00  0.00    +0.000 A 
ENDBRANCH  23  26
ENDBRANCH  17  23
ENDBRANCH   1  17
TORSDOF 9
ENDMDL
MODEL 8
REMARK VINA RESULT:      -7.1      2.025      4.880
REMARK  Name = 
REMARK  11 active torsions:
REMARK  status: ('A' for Active; 'I' for Inactive)
REMARK    1  A    between atoms: C_1  and  O_2
REMARK    2  A    between atoms: O_2  and  C_3
REMARK    3  A    between atoms: C_6  and  S_7
REMARK    4  A    between atoms: S_7  and  N_10
REMARK    5  A    between atoms: N_10  and  C_11
REMARK    6  A    between atoms: C_11  and  C_12
REMARK    7  A    between atoms: C_12  and  C_13
REMARK    8  A    between atoms: C_12  and  S_18
REMARK    9  A    between atoms: S_18  and  C_21
REMARK   10  A    between atoms: C_28  and  O_29
REMARK   11  A    between atoms: O_29  and  C_30
REMARK                            x       y       z     vdW  Elec       q    Type
REMARK                         _______ _______ _______ _____ _____    ______ ____
ROOT
ATOM      1  C   UNL     1       1.671   6.590  20.514  0.00  0.00    +0.000 C 
ENDROOT
BRANCH   1   2
ATOM      2  N   UNL     1       1.846   8.059  20.662  0.00  0.00    +0.000 NA
ATOM      3  H   UNL     1       2.804   8.398  20.758  0.00  0.00    +0.000 HD
BRANCH   2   4
ATOM      4  S   UNL     1       0.748   8.994  21.527  0.00  0.00    +0.000 S 
ATOM      5  O   UNL     1       1.499   9.861  22.410  0.00  0.00    +0.000 OA
ATOM      6  O   UNL     1      -0.278   8.099  22.015  0.00  0.00    +0.000 OA
BRANCH   4  10
ATOM      7  C   UNL     1      -1.453  11.369  18.342  0.00  0.00    +0.000 A 
ATOM      8  C   UNL     1      -0.645  10.276  17.975  0.00  0.00    +0.000 A 
ATOM      9  C   UNL     1       0.076   9.566  18.929  0.00  0.00    +0.000 A 
ATOM     10  C   UNL     1       0.038   9.992  20.252  0.00  0.00    +0.000 A 
ATOM     11  C   UNL     1      -0.659  11.145  20.613  0.00  0.00    +0.000 A 
ATOM     12  C   UNL     1      -1.418  11.842  19.665  0.00  0.00    +0.000 A 
BRANCH   7  14
ATOM     13  C   UNL     1      -3.546  11.376  17.246  0.00  0.00    +0.000 C 
ATOM     14  O   UNL     1      -2.261  11.978  17.421  0.00  0.00    +0.000 OA
ENDBRANCH   7  14
BRANCH  12  15
ATOM     15  O   UNL     1      -2.073  12.903  20.226  0.00  0.00    +0.000 OA
ATOM     16  C   UNL     1      -3.342  12.696  20.827  0.00  0.00    +0.000 C 
ENDBRANCH  12  15
ENDBRANCH   4  10
ENDBRANCH   2   4
ENDBRANCH   1   2
BRANCH   1  17
ATOM     17  C   UNL     1       2.835   5.868  19.826  0.00  0.00    +0.000 C 
BRANCH  17  18
ATOM     18  C   UNL     1       3.044   4.432  20.260  0.00  0.00    +0.000 A 
ATOM     19  C   UNL     1       4.108   3.609  19.932  0.00  0.00    +0.000 A 
ATOM     20  C   UNL     1       4.022   2.327  20.546  0.00  0.00    +0.000 A 
ATOM     21  C   UNL     1       2.912   2.216  21.350  0.00  0.00    +0.000 A 
ATOM     22  S   UNL     1       1.947   3.621  21.304  0.00  0.00    +0.000 S 
ENDBRANCH  17  18
BRANCH  17  23
ATOM     23  S   UNL     1       2.582   5.974  18.048  0.00  0.00    +0.000 S 
ATOM     24  O   UNL     1       1.723   4.893  17.609  0.00  0.00    +0.000 OA
ATOM     25  O   UNL     1       2.210   7.349  17.748  0.00  0.00    +0.000 OA
BRANCH  23  26
ATOM     26  C   UNL     1       4.187   5.727  17.320  0.00  0.00    +0.000 A 
ATOM     27  C   UNL     1       5.190   6.676  17.530  0.00  0.00    +0.000 A 
ATOM     28  C   UNL     1       6.453   6.473  16.973  0.00  0.00    +0.000 A 
ATOM     29  C   UNL     1       6.715   5.318  16.234  0.00  0.00    +0.000 A 
ATOM     30  C   UNL     1       5.715   4.360  16.052  0.00  0.00    +0.000 A 
ATOM     31  C   UNL     1       4.448   4.560  16.596  0.00  0.00    +0.000 A 
ENDBRANCH  23  26
ENDBRANCH  17  23
ENDBRANCH   1  17
TORSDOF 9
ENDMDL
MODEL 9
REMARK VINA RESULT:      -7.1      2.212      5.068
REMARK  Name = 
REMARK  11 active torsions:
REMARK  status: ('A' for Active; 'I' for Inactive)
REMARK    1  A    between atoms: C_1  and  O_2
REMARK    2  A    between atoms: O_2  and  C_3
REMARK    3  A    between atoms: C_6  and  S_7
REMARK    4  A    between atoms: S_7  and  N_10
REMARK    5  A    between atoms: N_10  and  C_11
REMARK    6  A    between atoms: C_11  and  C_12
REMARK    7  A    between atoms: C_12  and  C_13
REMARK    8  A    between atoms: C_12  and  S_18
REMARK    9  A    between atoms: S_18  and  C_21
REMARK   10  A    between atoms: C_28  and  O_29
REMARK   11  A    between atoms: O_29  and  C_30
REMARK                            x       y       z     vdW  Elec       q    Type
REMARK                         _______ _______ _______ _____ _____    ______ ____
ROOT
ATOM      1  C   UNL     1       1.737   7.532  19.983  0.00  0.00    +0.000 C 
ENDROOT
BRANCH   1   2
ATOM      2  N   UNL     1       1.776   8.212  21.304  0.00  0.00    +0.000 NA
ATOM      3  H   UNL     1       2.374   7.793  22.017  0.00  0.00    +0.000 HD
BRANCH   2   4
ATOM      4  S   UNL     1       0.408   8.934  21.964  0.00  0.00    +0.000 S 
ATOM      5  O   UNL     1       0.723   9.335  23.318  0.00  0.00    +0.000 OA
ATOM      6  O   UNL     1      -0.714   8.075  21.655  0.00  0.00    +0.000 OA
BRANCH   4  10
ATOM      7  C   UNL     1       0.269  12.490  19.142  0.00  0.00    +0.000 A 
ATOM      8  C   UNL     1       1.119  12.513  20.264  0.00  0.00    +0.000 A 
ATOM      9  C   UNL     1       1.140  11.456  21.167  0.00  0.00    +0.000 A 
ATOM     10  C   UNL     1       0.260  10.396  20.980  0.00  0.00    +0.000 A 
ATOM     11  C   UNL     1      -0.673  10.415  19.944  0.00  0.00    +0.000 A 
ATOM     12  C   UNL     1      -0.675  11.457  19.008  0.00  0.00    +0.000 A 
BRANCH   7  14
ATOM     13  C   UNL     1      -0.100  14.762  18.604  0.00  0.00    +0.000 C 
ATOM     14  O   UNL     1       0.348  13.469  18.189  0.00  0.00    +0.000 OA
ENDBRANCH   7  14
BRANCH  12  15
ATOM     15  O   UNL     1      -1.620  11.263  18.039  0.00  0.00    +0.000 OA
ATOM     16  C   UNL     1      -2.258  10.000  17.937  0.00  0.00    +0.000 C 
ENDBRANCH  12  15
ENDBRANCH   4  10
ENDBRANCH   2   4
ENDBRANCH   1   2
BRANCH   1  17
ATOM     17  C   UNL     1       2.660   6.314  19.857  0.00  0.00    +0.000 C 
BRANCH  17  18
ATOM     18  C   UNL     1       2.040   4.997  20.274  0.00  0.00    +0.000 A 
ATOM     19  C   UNL     1       0.885   4.423  19.768  0.00  0.00    +0.000 A 
ATOM     20  C   UNL     1       0.603   3.152  20.346  0.00  0.00    +0.000 A 
ATOM     21  C   UNL     1       1.566   2.776  21.253  0.00  0.00    +0.000 A 
ATOM     22  S   UNL     1       2.756   3.979  21.457  0.00  0.00    +0.000 S 
ENDBRANCH  17  18
BRANCH  17  23
ATOM     23  S   UNL     1       3.254   6.239  18.161  0.00  0.00    +0.000 S 
ATOM     24  O   UNL     1       2.837   4.994  17.549  0.00  0.00    +0.000 OA
ATOM     25  O   UNL     1       2.903   7.502  17.526  0.00  0.00    +0.000 OA
BRANCH  23  26
ATOM     26  C   UNL     1       5.030   6.223  18.277  0.00  0.00    +0.000 A 
ATOM     27  C   UNL     1       5.647   5.468  19.277  0.00  0.00    +0.000 A 
ATOM     28  C   UNL     1       7.039   5.443  19.356  0.00  0.00    +0.000 A 
ATOM     29  C   UNL     1       7.807   6.148  18.427  0.00  0.00    +0.000 A 
ATOM     30  C   UNL     1       7.183   6.877  17.412  0.00  0.00    +0.000 A 
ATOM     31  C   UNL     1       5.793   6.917  17.332  0.00  0.00    +0.000 A 
ENDBRANCH  23  26
ENDBRANCH  17  23
ENDBRANCH   1  17
TORSDOF 9
ENDMDL
